# generated using pymatgen
data_CdH22C24(NO)4
_symmetry_space_group_name_H-M   'P 1'
_cell_length_a   10.85363815
_cell_length_b   11.22948428
_cell_length_c   11.43168533
_cell_angle_alpha   87.74402255
_cell_angle_beta   62.65141865
_cell_angle_gamma   66.78756746
_symmetry_Int_Tables_number   1
_chemical_formula_structural   CdH22C24(NO)4
_chemical_formula_sum   'Cd2 H44 C48 N8 O8'
_cell_volume   1120.12106421
_cell_formula_units_Z   2
loop_
 _symmetry_equiv_pos_site_id
 _symmetry_equiv_pos_as_xyz
  1  'x, y, z'
loop_
 _atom_site_type_symbol
 _atom_site_label
 _atom_site_symmetry_multiplicity
 _atom_site_fract_x
 _atom_site_fract_y
 _atom_site_fract_z
 _atom_site_occupancy
 _atom_site_hle17_bader_spin_density
 _atom_site_hle17_ddec_charge
 _atom_site_hle17_ddec_spin_density
 _atom_site_hle17_ddec_sum_bond_order
 _atom_site_hle17_magmom
 _atom_site_hse06_10hf_bader_spin_density
 _atom_site_hse06_10hf_ddec_charge
 _atom_site_hse06_10hf_ddec_spin_density
 _atom_site_hse06_10hf_ddec_sum_bond_order
 _atom_site_hse06_10hf_magmom
 _atom_site_hse06_bader_spin_density
 _atom_site_hse06_ddec_charge
 _atom_site_hse06_ddec_spin_density
 _atom_site_hse06_ddec_sum_bond_order
 _atom_site_hse06_magmom
 _atom_site_pbe_bader_spin_density
 _atom_site_pbe_cm5_charge
 _atom_site_pbe_ddec_charge
 _atom_site_pbe_ddec_spin_density
 _atom_site_pbe_ddec_sum_bond_order
 _atom_site_pbe_magmom
Cd  Cd0  1  0.89930628  0.12408266  0.66848836  1  0  1.124526  0  1.667597  0  0  0.928804  0  2.109504  0  0  0.989686  0  2.057158  0  0  0.764561  0.886799  0  2.144335  0
Cd  Cd1  1  0.10069572  0.87591566  0.33151040  1  0  1.124513  0  1.667661  0  0  0.928793  0  2.109587  0  0  0.989676  0  2.057242  0  0  0.764568  0.88679  0  2.144431  0
H  H2  1  0.02873493  0.66029870  0.18474685  1  0  0.115664  0  0.975859  0  0  0.124772  0  1.04164  0  0  0.128319  0  1.038882  0  0  0.102827  0.122432  0  1.043223  0
H  H3  1  0.97126045  0.33970260  0.81525648  1  0  0.115757  0  0.975815  0  0  0.124827  0  1.041632  0  0  0.128374  0  1.038875  0  0  0.102837  0.122487  0  1.043211  0
H  H4  1  0.52882259  0.32244346  0.27753331  1  0  0.089656  0  0.946212  0  0  0.105307  0  0.997692  0  0  0.108239  0  0.99679  0  0  0.100492  0.103098  0  0.998599  0
H  H5  1  0.47118356  0.67755484  0.72246272  1  0  0.089682  0  0.946177  0  0  0.105329  0  0.997659  0  0  0.10826  0  0.996757  0  0  0.10051  0.103118  0  0.998573  0
H  H6  1  0.05555724  0.18954751  0.35300902  1  0  0.094028  0  0.972691  0  0  0.097609  0  1.048478  0  0  0.099665  0  1.046457  0  0  0.128994  0.09598  0  1.050122  0
H  H7  1  0.94444589  0.81045277  0.64699002  1  0  0.09398  0  0.972695  0  0  0.097583  0  1.048464  0  0  0.099641  0  1.046439  0  0  0.128971  0.095958  0  1.050103  0
H  H8  1  0.72583713  0.02817614  0.97371133  1  0  0.088467  0  0.975366  0  0  0.097503  0  1.04347  0  0  0.098736  0  1.042821  0  0  0.129415  0.096675  0  1.043717  0
H  H9  1  0.27415873  0.97182418  0.02629184  1  0  0.088527  0  0.975314  0  0  0.097561  0  1.043415  0  0  0.098794  0  1.042763  0  0  0.129439  0.096735  0  1.043663  0
H  H10  1  0.36831032  0.00219606  0.17156969  1  0  0.099828  0  0.975509  0  0  0.108127  0  1.044113  0  0  0.111199  0  1.042707  0  0  0.098073  0.105687  0  1.045599  0
H  H11  1  0.63168368  0.99781015  0.82843227  1  0  0.099807  0  0.975536  0  0  0.108145  0  1.044099  0  0  0.111204  0  1.042707  0  0  0.098079  0.105703  0  1.045578  0
H  H12  1  0.15599538  0.76616742  0.92913905  1  0  0.128662  0  0.952276  0  0  0.137392  0  1.014422  0  0  0.140761  0  1.012294  0  0  0.123827  0.134845  0  1.016316  0
H  H13  1  0.84399939  0.23383095  0.07086645  1  0  0.128626  0  0.952309  0  0  0.137361  0  1.01445  0  0  0.140732  0  1.012319  0  0  0.12381  0.13481  0  1.016338  0
H  H14  1  0.52147634  0.42599164  0.09530320  1  0  0.101826  0  0.940041  0  0  0.116653  0  1.001511  0  0  0.118898  0  0.999857  0  0  0.097693  0.115001  0  1.002781  0
H  H15  1  0.47852423  0.57400964  0.90469694  1  0  0.101848  0  0.940054  0  0  0.116697  0  1.0015  0  0  0.118941  0  0.999847  0  0  0.097707  0.115047  0  1.002772  0
H  H16  1  0.40585812  0.40811384  0.03200484  1  0  0.112217  0  0.931117  0  0  0.126796  0  0.992949  0  0  0.129181  0  0.991582  0  0  0.10197  0.125139  0  0.993743  0
H  H17  1  0.59414405  0.59188841  0.96799454  1  0  0.112225  0  0.931102  0  0  0.126797  0  0.992966  0  0  0.129181  0  0.991599  0  0  0.101971  0.125142  0  0.993755  0
H  H18  1  0.40893056  0.16940100  0.02659379  1  0  0.087564  0  0.988814  0  0  0.096741  0  1.056398  0  0  0.099884  0  1.054487  0  0  0.095424  0.094402  0  1.058054  0
H  H19  1  0.59107006  0.83060223  0.97340447  1  0  0.087533  0  0.988761  0  0  0.096704  0  1.05636  0  0  0.099846  0  1.05445  0  0  0.095405  0.094362  0  1.058019  0
H  H20  1  0.73434110  0.95561623  0.17832615  1  0  0.082328  0  0.949629  0  0  0.095867  0  1.014987  0  0  0.095662  0  1.016785  0  0  0.110284  0.095964  0  1.014047  0
H  H21  1  0.26565470  0.04438213  0.82167801  1  0  0.082315  0  0.949572  0  0  0.095809  0  1.014991  0  0  0.095605  0  1.01679  0  0  0.110235  0.095903  0  1.014051  0
H  H22  1  0.91424113  0.88425026  0.17250703  1  0  0.104238  0  0.953166  0  0  0.115367  0  1.018729  0  0  0.116833  0  1.017571  0  0  0.114935  0.11435  0  1.019501  0
H  H23  1  0.08575466  0.11574811  0.82749713  1  0  0.104176  0  0.953198  0  0  0.115338  0  1.018724  0  0  0.116804  0  1.017566  0  0  0.11493  0.114319  0  1.019497  0
H  H24  1  0.42600910  0.87741845  0.33566736  1  0  0.120475  0  0.942041  0  0  0.134693  0  1.000936  0  0  0.1372  0  0.999627  0  0  0.102776  0.132768  0  1.002001  0
H  H25  1  0.57399669  0.12258281  0.66433219  1  0  0.120488  0  0.942093  0  0  0.134672  0  1.00101  0  0  0.13718  0  0.999701  0  0  0.102776  0.132737  0  1.002066  0
H  H26  1  0.46467137  0.94668509  0.44613513  1  0  0.105608  0  0.953423  0  0  0.120101  0  1.014315  0  0  0.122482  0  1.012499  0  0  0.099541  0.118112  0  1.016263  0
H  H27  1  0.53532736  0.05332208  0.55386555  1  0  0.105594  0  0.953485  0  0  0.120087  0  1.014352  0  0  0.122469  0  1.012536  0  0  0.099537  0.11809  0  1.016295  0
H  H28  1  0.48297882  0.15939501  0.42427993  1  0  0.093397  0  0.960293  0  0  0.107794  0  1.01571  0  0  0.11082  0  1.013743  0  0  0.101833  0.105575  0  1.017321  0
H  H29  1  0.51702582  0.84060428  0.57571761  1  0  0.09333  0  0.96035  0  0  0.107772  0  1.015705  0  0  0.110797  0  1.013739  0  0  0.101831  0.105555  0  1.01732  0
H  H30  1  0.63654598  0.80202935  0.12294654  1  0  0.085295  0  0.985503  0  0  0.095793  0  1.053483  0  0  0.09814  0  1.052175  0  0  0.096063  0.093956  0  1.054861  0
H  H31  1  0.36345129  0.19796801  0.87705352  1  0  0.085298  0  0.985512  0  0  0.095772  0  1.053528  0  0  0.098116  0  1.052226  0  0  0.096042  0.093934  0  1.054901  0
H  H32  1  0.19469096  0.85613814  0.68692866  1  0  0.104251  0  0.950411  0  0  0.117774  0  1.003297  0  0  0.11978  0  1.002871  0  0  0.118411  0.116447  0  1.003578  0
H  H33  1  0.80530437  0.14386121  0.31307654  1  0  0.10423  0  0.950436  0  0  0.11775  0  1.003319  0  0  0.119752  0  1.002903  0  0  0.118394  0.116422  0  1.0036  0
H  H34  1  0.08880573  0.32828039  0.17862950  1  0  0.086101  0  0.920052  0  0  0.100882  0  0.984022  0  0  0.101069  0  0.984886  0  0  0.113306  0.100621  0  0.98368  0
H  H35  1  0.91119276  0.67172090  0.82137157  1  0  0.086086  0  0.920037  0  0  0.100866  0  0.984012  0  0  0.101053  0  0.984877  0  0  0.113295  0.100603  0  0.983673  0
H  H36  1  0.12078621  0.45263709  0.23538134  1  0  0.080734  0  0.930518  0  0  0.095145  0  0.995571  0  0  0.095348  0  0.995844  0  0  0.110391  0.095106  0  0.995136  0
H  H37  1  0.87921379  0.54736321  0.76461822  1  0  0.080709  0  0.930549  0  0  0.095137  0  0.995587  0  0  0.09534  0  0.995861  0  0  0.110389  0.095096  0  0.995148  0
H  H38  1  0.72587792  0.46904637  0.70467648  1  0  0.097445  0  0.974055  0  0  0.106628  0  1.039309  0  0  0.108304  0  1.039002  0  0  0.112353  0.105486  0  1.039432  0
H  H39  1  0.27412456  0.53095097  0.29532212  1  0  0.097427  0  0.974211  0  0  0.106631  0  1.03942  0  0  0.10829  0  1.039139  0  0  0.112339  0.105492  0  1.039538  0
H  H40  1  0.80753493  0.60103560  0.48875573  1  0  0.123934  0  0.949838  0  0  0.135103  0  1.007416  0  0  0.137481  0  1.007116  0  0  0.124906  0.133324  0  1.007873  0
H  H41  1  0.19246113  0.39897059  0.51124357  1  0  0.124006  0  0.950034  0  0  0.135135  0  1.007634  0  0  0.1375  0  1.007349  0  0  0.124917  0.133374  0  1.008061  0
H  H42  1  0.79234133  0.41784584  0.22511412  1  0  0.080461  0  0.977648  0  0  0.090546  0  1.04283  0  0  0.092918  0  1.042251  0  0  0.093245  0.088622  0  1.043676  0
H  H43  1  0.20766219  0.58215150  0.77488401  1  0  0.080489  0  0.977646  0  0  0.090564  0  1.042842  0  0  0.092935  0  1.042263  0  0  0.093262  0.08864  0  1.043692  0
H  H44  1  0.60937103  0.59502302  0.16883687  1  0  0.087949  0  0.962379  0  0  0.097748  0  1.023561  0  0  0.100583  0  1.022111  0  0  0.096152  0.095983  0  1.024236  0
H  H45  1  0.39062978  0.40497138  0.83116348  1  0  0.087995  0  0.962267  0  0  0.097754  0  1.023495  0  0  0.100589  0  1.022045  0  0  0.096139  0.095989  0  1.024174  0
C  C46  1  0.93843160  0.64443788  0.17946582  1  0  -0.147698  0  3.678952  0  0  -0.175381  0  3.916989  0  0  -0.177702  0  3.936882  0  0  -0.086223  -0.173602  0  3.903334  0
C  C47  1  0.06156527  0.35556243  0.82053427  1  0  -0.147861  0  3.678953  0  0  -0.175523  0  3.917011  0  0  -0.177846  0  3.936904  0  0  -0.086268  -0.173745  0  3.903355  0
C  C48  1  0.92325164  0.52721371  0.20685591  1  0  0.067051  0  3.769258  0  0  0.090673  0  4.006193  0  0  0.089561  0  4.030597  0  0  -0.01523  0.091364  0  3.989699  0
C  C49  1  0.07674986  0.47278559  0.79314215  1  0  0.067129  0  3.76917  0  0  0.090756  0  4.006093  0  0  0.089645  0  4.030493  0  0  -0.015223  0.091441  0  3.989602  0
C  C50  1  0.49326944  0.25250133  0.25367572  1  0  -0.130327  0  3.774739  0  0  -0.148607  0  4.022578  0  0  -0.15124  0  4.043999  0  0  -0.096423  -0.146884  0  4.008459  0
C  C51  1  0.50673623  0.74749795  0.74632048  1  0  -0.130412  0  3.774635  0  0  -0.148656  0  4.022527  0  0  -0.151294  0  4.043961  0  0  -0.096442  -0.146932  0  4.008415  0
C  C52  1  0.97688080  0.28235051  0.42121924  1  0  0.16478  0  3.659775  0  0  0.105026  0  3.921609  0  0  0.119163  0  3.935651  0  0  0.137342  0.096044  0  3.911694  0
C  C53  1  0.02312184  0.71765076  0.57877909  1  0  0.164921  0  3.659545  0  0  0.105155  0  3.921372  0  0  0.11929  0  3.935414  0  0  0.137436  0.096165  0  3.91146  0
C  C54  1  0.47189338  0.25762608  0.14140272  1  0  0.104489  0  3.767867  0  0  0.123854  0  4.005113  0  0  0.12438  0  4.029239  0  0  -0.01603  0.123412  0  3.988904  0
C  C55  1  0.52810878  0.74237617  0.85859578  1  0  0.104649  0  3.767612  0  0  0.123911  0  4.005024  0  0  0.124437  0  4.029148  0  0  -0.016001  0.123471  0  3.988812  0
C  C56  1  0.22689313  0.02428791  0.49963884  1  0  0.693145  0  3.874588  0  0  0.649052  0  4.168108  0  0  0.682066  0  4.16298  0  0  0.196988  0.626703  0  4.170629  0
C  C57  1  0.77310887  0.97571041  0.50035992  1  0  0.693184  0  3.874562  0  0  0.649042  0  4.168124  0  0  0.682058  0  4.162992  0  0  0.196966  0.626681  0  4.17065  0
C  C58  1  0.84842980  0.96797167  0.92469833  1  0  0.155403  0  3.671542  0  0  0.094139  0  3.938307  0  0  0.108008  0  3.952768  0  0  0.135741  0.085537  0  3.927977  0
C  C59  1  0.15156455  0.03202964  0.07530633  1  0  0.155329  0  3.671527  0  0  0.094085  0  3.938251  0  0  0.107952  0  3.952718  0  0  0.135726  0.085484  0  3.927919  0
C  C60  1  0.83661327  0.74372643  0.14787675  1  0  0.084883  0  3.739167  0  0  0.104882  0  3.978097  0  0  0.103883  0  4.002214  0  0  -0.012632  0.105464  0  3.961809  0
C  C61  1  0.16338306  0.25627291  0.85212538  1  0  0.084911  0  3.739192  0  0  0.104906  0  3.978127  0  0  0.10391  0  4.002242  0  0  -0.012629  0.105491  0  3.961829  0
C  C62  1  0.40248458  0.07348121  0.19485942  1  0  -0.138003  0  3.755872  0  0  -0.158088  0  4.007643  0  0  -0.161065  0  4.028772  0  0  -0.100728  -0.155983  0  3.993684  0
C  C63  1  0.59751350  0.92652302  0.80514081  1  0  -0.13809  0  3.755813  0  0  -0.158183  0  4.007598  0  0  -0.16115  0  4.028729  0  0  -0.100767  -0.156078  0  3.993635  0
C  C64  1  0.07535660  0.83051494  0.89816428  1  0  -0.067342  0  3.657403  0  0  -0.107585  0  3.919491  0  0  -0.10585  0  3.937182  0  0  0.000399  -0.108788  0  3.908441  0
C  C65  1  0.92463766  0.16948441  0.10183965  1  0  -0.067362  0  3.657455  0  0  -0.107615  0  3.919552  0  0  -0.105884  0  3.937243  0  0  0.00039  -0.108812  0  3.908485  0
C  C66  1  0.42442947  0.06824398  0.30691549  1  0  0.119495  0  3.758322  0  0  0.13873  0  3.995639  0  0  0.139786  0  4.018832  0  0  -0.010559  0.138223  0  3.97957  0
C  C67  1  0.57557011  0.93175926  0.69308325  1  0  0.119676  0  3.758175  0  0  0.138826  0  3.995586  0  0  0.139885  0  4.018772  0  0  -0.010519  0.13831  0  3.979503  0
C  C68  1  0.64722639  0.28346096  0.91464694  1  0  0.671748  0  3.900754  0  0  0.630029  0  4.196529  0  0  0.66213  0  4.192716  0  0  0.188496  0.608384  0  4.198223  0
C  C69  1  0.35277531  0.71654228  0.08535347  1  0  0.671708  0  3.900801  0  0  0.630053  0  4.196525  0  0  0.662152  0  4.192714  0  0  0.188472  0.608421  0  4.198208  0
C  C70  1  0.50343700  0.35458976  0.04979646  1  0  -0.306327  0  3.70355  0  0  -0.351622  0  3.948725  0  0  -0.35693  0  3.955969  0  0  -0.164393  -0.348101  0  3.943877  0
C  C71  1  0.49656461  0.64541152  0.95020320  1  0  -0.306432  0  3.703479  0  0  -0.351721  0  3.948674  0  0  -0.357024  0  3.955911  0  0  -0.164433  -0.348209  0  3.94383  0
C  C72  1  0.42497799  0.16710911  0.11402765  1  0  -0.129837  0  3.771246  0  0  -0.149138  0  4.020631  0  0  -0.151345  0  4.04137  0  0  -0.100929  -0.147683  0  4.006928  0
C  C73  1  0.57502150  0.83289216  0.88596948  1  0  -0.129792  0  3.771173  0  0  -0.149056  0  4.020604  0  0  -0.151262  0  4.041338  0  0  -0.100903  -0.147601  0  4.0069  0
C  C74  1  0.84830804  0.87323826  0.12809702  1  0  -0.052419  0  3.642901  0  0  -0.116215  0  3.883286  0  0  -0.111353  0  3.893222  0  0  -0.052306  -0.119534  0  3.876759  0
C  C75  1  0.15168727  0.12676108  0.87190644  1  0  -0.052273  0  3.64276  0  0  -0.116062  0  3.883159  0  0  -0.111202  0  3.893096  0  0  -0.052232  -0.119382  0  3.876631  0
C  C76  1  0.39592694  0.96840038  0.39515054  1  0  -0.310718  0  3.698075  0  0  -0.355764  0  3.939878  0  0  -0.361105  0  3.94583  0  0  -0.16389  -0.352185  0  3.936054  0
C  C77  1  0.60407474  0.03160285  0.60484813  1  0  -0.310828  0  3.698178  0  0  -0.355774  0  3.939941  0  0  -0.361123  0  3.945903  0  0  -0.163901  -0.352153  0  3.936059  0
C  C78  1  0.46820133  0.16014165  0.33612518  1  0  -0.120648  0  3.750513  0  0  -0.14063  0  3.99851  0  0  -0.141777  0  4.017171  0  0  -0.093698  -0.139905  0  3.985937  0
C  C79  1  0.53180180  0.83985864  0.66387386  1  0  -0.120651  0  3.750556  0  0  -0.140634  0  3.998571  0  0  -0.141781  0  4.017232  0  0  -0.093706  -0.139913  0  3.986009  0
C  C80  1  0.71968441  0.72387216  0.14306012  1  0  -0.120024  0  3.749707  0  0  -0.143035  0  3.997668  0  0  -0.145708  0  4.020436  0  0  -0.093584  -0.140926  0  3.982283  0
C  C81  1  0.28031287  0.27612520  0.85694080  1  0  -0.120078  0  3.749751  0  0  -0.143071  0  3.997717  0  0  -0.145743  0  4.020481  0  0  -0.093574  -0.140963  0  3.982325  0
C  C82  1  0.09155014  0.87676782  0.78109370  1  0  -0.005856  0  3.77125  0  0  -0.0411  0  4.044123  0  0  -0.038777  0  4.063822  0  0  -0.005948  -0.042568  0  4.030966  0
C  C83  1  0.90844670  0.12323054  0.21891000  1  0  -0.005787  0  3.771307  0  0  -0.041016  0  4.044167  0  0  -0.038695  0  4.063868  0  0  -0.005929  -0.042484  0  4.03101  0
C  C84  1  0.03167518  0.42348344  0.24458955  1  0  -0.030397  0  3.641251  0  0  -0.09896  0  3.890805  0  0  -0.093878  0  3.901433  0  0  -0.042412  -0.102389  0  3.883548  0
C  C85  1  0.96832585  0.57651685  0.75540868  1  0  -0.03041  0  3.641237  0  0  -0.098983  0  3.890794  0  0  -0.093902  0  3.901422  0  0  -0.042418  -0.102401  0  3.883525  0
C  C86  1  0.80656130  0.43069334  0.59956224  1  0  -0.008895  0  3.777755  0  0  -0.042101  0  4.045743  0  0  -0.040156  0  4.066889  0  0  -0.009958  -0.04344  0  4.031462  0
C  C87  1  0.19344645  0.56930787  0.40042769  1  0  -0.008894  0  3.777595  0  0  -0.042103  0  4.045546  0  0  -0.040144  0  4.0667  0  0  -0.009924  -0.043437  0  4.03126  0
C  C88  1  0.84551643  0.49713630  0.49431103  1  0  -0.070105  0  3.681987  0  0  -0.1129  0  3.941633  0  0  -0.11136  0  3.961221  0  0  -0.002743  -0.113873  0  3.928659  0
C  C89  1  0.15448545  0.50285811  0.50569060  1  0  -0.070231  0  3.681944  0  0  -0.112994  0  3.941603  0  0  -0.111445  0  3.961196  0  0  -0.002775  -0.113988  0  3.928612  0
C  C90  1  0.80510918  0.50879957  0.20215824  1  0  -0.117789  0  3.762969  0  0  -0.141309  0  4.008714  0  0  -0.143469  0  4.030844  0  0  -0.095728  -0.139623  0  3.993893  0
C  C91  1  0.19489318  0.49119579  0.79783788  1  0  -0.11782  0  3.763085  0  0  -0.14133  0  4.008825  0  0  -0.143493  0  4.030961  0  0  -0.095722  -0.139648  0  3.994016  0
C  C92  1  0.70384136  0.60682403  0.16994343  1  0  -0.066439  0  3.794452  0  0  -0.074734  0  4.040586  0  0  -0.077465  0  4.063272  0  0  -0.095605  -0.072754  0  4.024591  0
C  C93  1  0.29615799  0.39317331  0.83005569  1  0  -0.066476  0  3.794398  0  0  -0.074732  0  4.040523  0  0  -0.077462  0  4.063206  0  0  -0.095593  -0.072754  0  4.024534  0
N  N94  1  0.92041605  0.88897523  0.98770010  1  0  -0.050488  0  3.567612  0  0  0.043398  0  3.785039  0  0  0.028674  0  3.811195  0  0  -0.239753  0.053016  0  3.767398  0
N  N95  1  0.07958031  0.11102411  0.01230377  1  0  -0.050436  0  3.567579  0  0  0.043451  0  3.78501  0  0  0.02873  0  3.811163  0  0  -0.23973  0.05307  0  3.767366  0
N  N96  1  0.94911942  0.96298124  0.79875206  1  0  -0.408209  0  3.254301  0  0  -0.333138  0  3.538194  0  0  -0.354705  0  3.55523  0  0  -0.359102  -0.318255  0  3.525957  0
N  N97  1  0.05087749  0.03701908  0.20125151  1  0  -0.408266  0  3.254285  0  0  -0.333198  0  3.538184  0  0  -0.354762  0  3.555214  0  0  -0.359125  -0.318327  0  3.525976  0
N  N98  1  0.95323666  0.40133402  0.38187789  1  0  -0.0623  0  3.568123  0  0  0.034561  0  3.783089  0  0  0.019416  0  3.809041  0  0  -0.238547  0.044611  0  3.765333  0
N  N99  1  0.04676293  0.59866922  0.61812084  1  0  -0.062281  0  3.567987  0  0  0.03458  0  3.782962  0  0  0.019438  0  3.808911  0  0  -0.238567  0.044627  0  3.765213  0
N  N100  1  0.88932951  0.29697930  0.55267018  1  0  -0.383865  0  3.258626  0  0  -0.305426  0  3.535223  0  0  -0.327447  0  3.55251  0  0  -0.357899  -0.290222  0  3.522797  0
N  N101  1  0.11067312  0.70302196  0.44732816  1  0  -0.383892  0  3.25863  0  0  -0.30546  0  3.535253  0  0  -0.327481  0  3.552537  0  0  -0.357946  -0.290256  0  3.522825  0
O  O102  1  0.77063271  0.28893876  0.89097424  1  0  -0.651359  0  1.913989  0  0  -0.597474  0  2.149167  0  0  -0.623431  0  2.140725  0  0  -0.335936  -0.579602  0  2.153649  0
O  O103  1  0.22936796  0.71106449  0.10902663  1  0  -0.651274  0  1.914016  0  0  -0.597462  0  2.149227  0  0  -0.623423  0  2.140794  0  0  -0.335916  -0.579595  0  2.153707  0
O  O104  1  0.13856126  0.99113317  0.47567349  1  0  -0.689933  0  2.058958  0  0  -0.606387  0  2.323692  0  0  -0.639915  0  2.312729  0  0  -0.344573  -0.583363  0  2.330758  0
O  O105  1  0.86144218  0.00886220  0.52432477  1  0  -0.689926  0  2.058908  0  0  -0.606371  0  2.323673  0  0  -0.639899  0  2.312704  0  0  -0.344559  -0.583348  0  2.330746  0
O  O106  1  0.63544318  0.21803091  0.83399422  1  0  -0.659656  0  1.938473  0  0  -0.59162  0  2.177666  0  0  -0.620922  0  2.169151  0  0  -0.337984  -0.571351  0  2.182753  0
O  O107  1  0.36455905  0.78197329  0.16600328  1  0  -0.659647  0  1.93844  0  0  -0.591618  0  2.1776  0  0  -0.620918  0  2.169091  0  0  -0.337962  -0.57135  0  2.182683  0
O  O108  1  0.17759754  0.10236704  0.60275086  1  0  -0.627011  0  1.922056  0  0  -0.576284  0  2.158112  0  0  -0.602654  0  2.15201  0  0  -0.323619  -0.558098  0  2.161513  0
O  O109  1  0.82240141  0.89763325  0.39724830  1  0  -0.627035  0  1.922136  0  0  -0.576279  0  2.158193  0  0  -0.602648  0  2.152095  0  0  -0.323613  -0.558093  0  2.161606  0
