# generated using pymatgen
data_Dy2Cu3H24(C4O5)6
_symmetry_space_group_name_H-M   'P 1'
_cell_length_a   12.88043782
_cell_length_b   12.88186015
_cell_length_c   16.33286591
_cell_angle_alpha   90.00686653
_cell_angle_beta   89.99622698
_cell_angle_gamma   119.99459358
_symmetry_Int_Tables_number   1
_chemical_formula_structural   Dy2Cu3H24(C4O5)6
_chemical_formula_sum   'Dy4 Cu6 H48 C48 O60'
_cell_volume   2347.06916346
_cell_formula_units_Z   2
loop_
 _symmetry_equiv_pos_site_id
 _symmetry_equiv_pos_as_xyz
  1  'x, y, z'
loop_
 _atom_site_type_symbol
 _atom_site_label
 _atom_site_symmetry_multiplicity
 _atom_site_fract_x
 _atom_site_fract_y
 _atom_site_fract_z
 _atom_site_occupancy
 _atom_site_pbe_bader_charge
 _atom_site_pbe_bader_spin_density
 _atom_site_pbe_cm5_charge
 _atom_site_pbe_ddec_charge
 _atom_site_pbe_ddec_spin_density
 _atom_site_pbe_ddec_sum_bond_order
 _atom_site_pbe_magmom
Dy  Dy0  1  0.66663477  0.33332275  0.24999057  1  2.159254  -0.000658  1.536186  1.961032  -0.001232  2.28169  -0.001
Dy  Dy1  1  0.33331188  0.66668841  0.25003652  1  2.159563  -0.000658  1.536383  1.961208  -0.001232  2.281587  -0.001
Dy  Dy2  1  0.33338198  0.66666779  0.75003083  1  2.159319  -0.000658  1.536379  1.960932  -0.001233  2.282153  -0.001
Dy  Dy3  1  0.66666264  0.33332431  0.74999101  1  2.159299  -0.000658  1.536221  1.961193  -0.001232  2.28194  -0.001
Cu  Cu4  1  0.99995137  0.49989357  0.50001933  1  1.114471  0.58041  0.733233  0.947159  0.738317  2.003751  0.583
Cu  Cu5  1  0.49968323  0.49999724  0.49999355  1  1.115306  0.580294  0.732874  0.946384  0.737831  2.002869  0.583
Cu  Cu6  1  0.49998813  0.00021224  0.49999683  1  1.117434  0.580424  0.733058  0.946831  0.738102  2.004222  0.583
Cu  Cu7  1  0.49997684  0.00001708  0.00001965  1  1.114167  0.580351  0.732899  0.946707  0.73832  2.004097  0.583
Cu  Cu8  1  0.50000609  0.49962818  0.00000108  1  1.115414  0.580406  0.733273  0.946972  0.737937  2.003732  0.583
Cu  Cu9  1  0.00021271  0.50004019  0.00003532  1  1.117615  0.580327  0.732909  0.946662  0.737975  2.002741  0.583
H  H10  1  0.80604902  0.65240963  0.35616496  1  0.104479  0.000106  0.118305  0.113825  6e-06  0.961813  0.0
H  H11  1  0.93580531  0.69431919  0.29343928  1  0.031599  -0.000164  0.106599  0.084058  -0.000214  1.009468  0.0
H  H12  1  0.34760092  0.15355989  0.35612332  1  0.105681  0.00011  0.118377  0.113958  7e-06  0.961884  0.0
H  H13  1  0.30578061  0.24149324  0.29337503  1  0.072415  -0.000177  0.106256  0.083571  -0.000214  1.009578  0.0
H  H14  1  0.84634309  0.19410597  0.35613581  1  0.09932  0.000108  0.118336  0.113838  6e-06  0.961845  0.0
H  H15  1  0.75848246  0.06420602  0.29345604  1  0.07104  -0.000176  0.106517  0.083955  -0.000212  1.009568  0.0
H  H16  1  0.19405373  0.34763442  0.35615739  1  0.103736  0.000106  0.118264  0.114012  6e-06  0.961866  0.0
H  H17  1  0.06427005  0.30561831  0.29342316  1  0.031028  -0.000164  0.10666  0.084022  -0.000213  1.009619  0.0
H  H18  1  0.65243728  0.84648820  0.35616046  1  0.104988  0.000109  0.118406  0.114084  7e-06  0.961676  0.0
H  H19  1  0.69413164  0.75852437  0.29334781  1  0.074918  -0.000177  0.106216  0.083406  -0.000214  1.009623  0.0
H  H20  1  0.15364413  0.80609269  0.35619695  1  0.098411  0.000109  0.118408  0.11398  6e-06  0.96186  0.0
H  H21  1  0.24156491  0.93587828  0.29343578  1  0.069446  -0.000176  0.106435  0.083925  -0.000212  1.009623  0.0
H  H22  1  0.65216741  0.80580527  0.14384965  1  0.103884  0.000107  0.11844  0.114042  7e-06  0.96182  0.0
H  H23  1  0.69428322  0.93578373  0.20646511  1  0.03502  -0.000161  0.106579  0.083736  -0.000212  1.009468  0.0
H  H24  1  0.15361790  0.34757641  0.14379621  1  0.103355  0.000108  0.118329  0.113917  6e-06  0.962107  0.0
H  H25  1  0.24145277  0.30573179  0.20657724  1  0.074813  -0.000176  0.106396  0.083744  -0.000214  1.009607  0.0
H  H26  1  0.19416505  0.84648798  0.14387968  1  0.097997  0.00011  0.118446  0.114159  8e-06  0.961779  0.0
H  H27  1  0.06435687  0.75861594  0.20661918  1  0.073178  -0.000176  0.106244  0.083547  -0.000213  1.009619  0.0
H  H28  1  0.34767407  0.19407566  0.14380075  1  0.103124  0.000106  0.118366  0.114093  6e-06  0.961999  0.0
H  H29  1  0.30568436  0.06421716  0.20653193  1  0.034903  -0.00016  0.106685  0.08406  -0.000212  1.009862  0.0
H  H30  1  0.84642184  0.65245510  0.14384501  1  0.106734  0.000108  0.118371  0.113949  6e-06  0.96201  0.0
H  H31  1  0.75858293  0.69431026  0.20661083  1  0.0719  -0.000177  0.106479  0.083842  -0.000214  1.009637  0.0
H  H32  1  0.80603351  0.15356019  0.14383134  1  0.098209  0.000109  0.118422  0.114036  7e-06  0.96202  0.0
H  H33  1  0.93569713  0.24153773  0.20666257  1  0.07301  -0.000177  0.106211  0.08352  -0.000214  1.00976  0.0
H  H34  1  0.19397075  0.34757043  0.64380930  1  0.104786  0.000105  0.118346  0.114021  5e-06  0.962054  0.0
H  H35  1  0.06425538  0.30568704  0.70660111  1  0.032037  -0.000164  0.106526  0.084003  -0.000214  1.009676  0.0
H  H36  1  0.65242907  0.84644229  0.64391461  1  0.106296  0.000109  0.118336  0.113901  7e-06  0.961782  0.0
H  H37  1  0.69421190  0.75849619  0.70666535  1  0.071477  -0.000177  0.106327  0.083634  -0.000214  1.009524  0.0
H  H38  1  0.15366235  0.80586045  0.64382620  1  0.099577  0.000108  0.118438  0.114087  6e-06  0.962067  0.0
H  H39  1  0.24147353  0.93574544  0.70651944  1  0.072474  -0.000175  0.10653  0.083795  -0.000213  1.009474  0.0
H  H40  1  0.80599168  0.65238338  0.64380830  1  0.103501  0.000107  0.118277  0.113984  7e-06  0.961723  0.0
H  H41  1  0.93573260  0.69434167  0.70656273  1  0.032309  -0.000164  0.106619  0.084016  -0.000213  1.009741  0.0
H  H42  1  0.34759405  0.15350359  0.64384319  1  0.10557  0.000108  0.118339  0.113983  6e-06  0.961798  0.0
H  H43  1  0.30581157  0.24148185  0.70661727  1  0.074459  -0.000176  0.10616  0.083353  -0.000214  1.009651  0.0
H  H44  1  0.84636052  0.19406439  0.64380731  1  0.098674  0.000108  0.118339  0.113929  6e-06  0.962108  0.0
H  H45  1  0.75853578  0.06421728  0.70651889  1  0.072567  -0.000175  0.106613  0.083937  -0.000212  1.009589  0.0
H  H46  1  0.34770352  0.19406350  0.85615277  1  0.104286  0.000105  0.11829  0.113918  5e-06  0.961989  0.0
H  H47  1  0.30569679  0.06418576  0.79345098  1  0.031857  -0.000163  0.106574  0.084166  -0.000213  1.009363  0.0
H  H48  1  0.84642649  0.65238617  0.85616581  1  0.10551  0.00011  0.118306  0.113987  7e-06  0.961863  0.0
H  H49  1  0.75861415  0.69432772  0.79344049  1  0.073911  -0.000174  0.106586  0.08386  -0.000213  1.009553  0.0
H  H50  1  0.80594508  0.15356208  0.85611969  1  0.098473  0.000109  0.118365  0.113915  7e-06  0.961886  0.0
H  H51  1  0.93569246  0.24145281  0.79336365  1  0.07332  -0.000177  0.106264  0.083586  -0.000214  1.009704  0.0
H  H52  1  0.65237859  0.80605066  0.85618209  1  0.104234  0.000107  0.118417  0.113897  7e-06  0.961806  0.0
H  H53  1  0.69430827  0.93586178  0.79346253  1  0.031649  -0.000163  0.106522  0.083995  -0.000213  1.009439  0.0
H  H54  1  0.15359362  0.34755490  0.85617088  1  0.104236  0.000108  0.11833  0.113959  6e-06  0.962023  0.0
H  H55  1  0.24143330  0.30566711  0.79340506  1  0.071417  -0.000177  0.106525  0.083974  -0.000214  1.009679  0.0
H  H56  1  0.19401588  0.84642191  0.85613680  1  0.098997  0.000108  0.118378  0.113901  7e-06  0.961965  0.0
H  H57  1  0.06430103  0.75847820  0.79335516  1  0.072654  -0.000177  0.106241  0.083514  -0.000214  1.0095  0.0
C  C58  1  0.87857222  0.53439527  0.36550790  1  1.625643  -0.000612  0.223577  0.634406  -0.001056  4.150003  -0.002
C  C59  1  0.85151484  0.61840070  0.31608730  1  0.426246  0.01021  -0.057039  -0.108176  0.007366  3.883254  0.008
C  C60  1  0.46559811  0.34412808  0.36552375  1  1.632778  -0.000555  0.223809  0.634014  -0.001052  4.150244  -0.002
C  C61  1  0.38164764  0.23304604  0.31607707  1  0.388654  0.010198  -0.057076  -0.107781  0.007371  3.882388  0.008
C  C62  1  0.65581809  0.12145000  0.36551549  1  1.623424  -0.000596  0.223404  0.634346  -0.00107  4.150058  -0.002
C  C63  1  0.76687163  0.14852045  0.31607996  1  0.392566  0.010237  -0.057289  -0.108301  0.007362  3.883433  0.008
C  C64  1  0.12139988  0.46551085  0.36551233  1  1.626629  -0.00061  0.223987  0.63502  -0.001053  4.149835  -0.002
C  C65  1  0.14853313  0.38157027  0.31607337  1  0.427098  0.01021  -0.05735  -0.108883  0.007365  3.884137  0.008
C  C66  1  0.53429100  0.65593948  0.36554485  1  1.632225  -0.000563  0.223859  0.634444  -0.001068  4.15027  -0.002
C  C67  1  0.61829777  0.76699877  0.31609951  1  0.389929  0.010191  -0.056825  -0.107407  0.007367  3.881901  0.008
C  C68  1  0.34415907  0.87868522  0.36557025  1  1.620705  -0.000564  0.224159  0.635504  -0.00106  4.149535  -0.002
C  C69  1  0.23310606  0.85157246  0.31612418  1  0.398297  0.010216  -0.057173  -0.108368  0.007363  3.882873  0.008
C  C70  1  0.53437515  0.87859749  0.13448196  1  1.631413  -0.000637  0.223616  0.634809  -0.001063  4.150342  -0.002
C  C71  1  0.61832795  0.85146924  0.18388805  1  0.419184  0.01023  -0.057398  -0.108313  0.007365  3.883333  0.008
C  C72  1  0.34416509  0.46558675  0.13450005  1  1.63374  -0.00055  0.224101  0.634953  -0.001041  4.14986  -0.002
C  C73  1  0.23306724  0.38161777  0.18389240  1  0.390455  0.010192  -0.057253  -0.108273  0.007368  3.884078  0.008
C  C74  1  0.12158101  0.65595356  0.13448048  1  1.616539  -0.000563  0.223718  0.634384  -0.001072  4.150409  -0.002
C  C75  1  0.14866700  0.76701809  0.18393343  1  0.401722  0.010211  -0.056873  -0.107711  0.007369  3.882537  0.008
C  C76  1  0.46550195  0.12136647  0.13445525  1  1.629238  -0.000616  0.224351  0.635359  -0.001067  4.150266  -0.002
C  C77  1  0.38156878  0.14851774  0.18387933  1  0.425336  0.010209  -0.057426  -0.108722  0.007362  3.883786  0.008
C  C78  1  0.65590258  0.53439539  0.13448431  1  1.633598  -0.000574  0.223647  0.634392  -0.001069  4.151027  -0.002
C  C79  1  0.76695235  0.61840357  0.18392091  1  0.387302  0.01019  -0.057095  -0.108069  0.007363  3.884117  0.008
C  C80  1  0.87850206  0.34410651  0.13445244  1  1.617153  -0.00056  0.223998  0.634438  -0.00106  4.149999  -0.002
C  C81  1  0.85138355  0.23303287  0.18390437  1  0.401209  0.010217  -0.056965  -0.107791  0.007372  3.882839  0.008
C  C82  1  0.12144263  0.46555000  0.63451105  1  1.625065  -0.000609  0.224083  0.634975  -0.001054  4.149909  -0.002
C  C83  1  0.14853129  0.38157540  0.68391941  1  0.425695  0.010213  -0.057253  -0.108729  0.007368  3.884453  0.008
C  C84  1  0.53434653  0.65589044  0.63448234  1  1.631858  -0.000568  0.223635  0.633948  -0.001071  4.150562  -0.002
C  C85  1  0.61834793  0.76694198  0.68394555  1  0.388469  0.010189  -0.056972  -0.107562  0.007365  3.882244  0.008
C  C86  1  0.34419633  0.87856707  0.63448081  1  1.624275  -0.000583  0.223922  0.634967  -0.001051  4.149856  -0.002
C  C87  1  0.23311478  0.85144291  0.68389736  1  0.393082  0.010247  -0.057445  -0.108735  0.007369  3.883828  0.008
C  C88  1  0.87858950  0.53443296  0.63448458  1  1.625566  -0.000617  0.224165  0.635696  -0.001062  4.149637  -0.002
C  C89  1  0.85147269  0.61841098  0.68389660  1  0.42587  0.010207  -0.057302  -0.108865  0.007364  3.884113  0.008
C  C90  1  0.46560898  0.34407165  0.63444410  1  1.633911  -0.000556  0.22395  0.634458  -0.00105  4.150228  -0.002
C  C91  1  0.38165691  0.23300104  0.68389373  1  0.389086  0.010208  -0.056895  -0.10746  0.007377  3.882238  0.008
C  C92  1  0.65583614  0.12142164  0.63444136  1  1.619637  -0.000573  0.224023  0.63535  -0.001071  4.149962  -0.002
C  C93  1  0.76690315  0.14850886  0.68387825  1  0.397873  0.010214  -0.057208  -0.108226  0.007363  3.883167  0.008
C  C94  1  0.46558028  0.12139856  0.86551067  1  1.631298  -0.000634  0.224268  0.635699  -0.001061  4.148993  -0.002
C  C95  1  0.38161045  0.14849146  0.81608866  1  0.419625  0.010237  -0.057263  -0.108859  0.007369  3.883021  0.008
C  C96  1  0.65590834  0.53438906  0.86551829  1  1.633703  -0.000572  0.223736  0.634653  -0.001068  4.150685  -0.002
C  C97  1  0.76695991  0.61839776  0.81609104  1  0.388929  0.010181  -0.05711  -0.108265  0.00736  3.883722  0.008
C  C98  1  0.87849535  0.34412275  0.86553174  1  1.617141  -0.000554  0.22363  0.634136  -0.001051  4.150351  -0.002
C  C99  1  0.85139149  0.23304190  0.81607451  1  0.398935  0.010227  -0.057004  -0.107697  0.007376  3.882376  0.008
C  C100  1  0.53443785  0.87866428  0.86554350  1  1.634357  -0.000634  0.224081  0.635327  -0.001063  4.149397  -0.002
C  C101  1  0.61841708  0.85155705  0.81611513  1  0.419709  0.01023  -0.057243  -0.108268  0.007364  3.882917  0.008
C  C102  1  0.34414032  0.46551240  0.86551445  1  1.635025  -0.00056  0.224158  0.63525  -0.001044  4.14992  -0.002
C  C103  1  0.23305711  0.38156964  0.81608764  1  0.38856  0.010206  -0.057226  -0.108709  0.007369  3.884217  0.008
C  C104  1  0.12157981  0.65590223  0.86554631  1  1.617177  -0.00056  0.223588  0.63419  -0.001061  4.150156  -0.002
C  C105  1  0.14861515  0.76693393  0.81608030  1  0.399218  0.010215  -0.05686  -0.107476  0.007369  3.882358  0.008
O  O106  1  0.82004256  0.42383941  0.35016221  1  -1.174979  0.001838  -0.374082  -0.623696  0.00029  2.279006  0.002
O  O107  1  0.95956194  0.58695164  0.41950752  1  -1.114302  0.091264  -0.319454  -0.538445  0.057945  2.343127  0.083
O  O108  1  0.57615429  0.39624194  0.35016809  1  -1.181369  0.001838  -0.373943  -0.623162  0.000296  2.279184  0.002
O  O109  1  0.41286409  0.37249618  0.41946332  1  -1.116589  0.091207  -0.31969  -0.538349  0.057931  2.342888  0.083
O  O110  1  0.60373866  0.17992323  0.35016552  1  -1.173768  0.001837  -0.373916  -0.623505  0.000289  2.279185  0.002
O  O111  1  0.62745595  0.04046820  0.41951727  1  -1.110599  0.091289  -0.319325  -0.538339  0.057998  2.342729  0.083
O  O112  1  0.17990145  0.57607103  0.35020265  1  -1.175842  0.001838  -0.374353  -0.623979  0.000292  2.278796  0.002
O  O113  1  0.04039688  0.41289802  0.41949988  1  -1.114433  0.091248  -0.31966  -0.538645  0.057935  2.343218  0.083
O  O114  1  0.42374095  0.60383214  0.35016861  1  -1.182557  0.001831  -0.374432  -0.623718  0.000289  2.280626  0.002
O  O115  1  0.58688820  0.62753135  0.41953979  1  -1.114912  0.091331  -0.319424  -0.538383  0.057979  2.342697  0.083
O  O116  1  0.39618260  0.82014114  0.35027036  1  -1.173098  0.001838  -0.373974  -0.623891  0.000291  2.278822  0.002
O  O117  1  0.37255431  0.95978496  0.41950423  1  -1.113271  0.091171  -0.319801  -0.539003  0.05794  2.343098  0.083
O  O118  1  0.42383079  0.82014505  0.14984309  1  -1.175752  0.001838  -0.373722  -0.62351  0.000291  2.27931  0.002
O  O119  1  0.58703930  0.95959937  0.08049464  1  -1.114213  0.091312  -0.319564  -0.538592  0.057977  2.342571  0.083
O  O120  1  0.39621981  0.57614456  0.14983017  1  -1.181582  0.001836  -0.374029  -0.623703  0.000295  2.278137  0.002
O  O121  1  0.37256044  0.41291504  0.08054466  1  -1.11734  0.091152  -0.319811  -0.538809  0.057896  2.343587  0.083
O  O122  1  0.18002937  0.60384784  0.14984912  1  -1.1743  0.001843  -0.374281  -0.623645  0.000294  2.280285  0.002
O  O123  1  0.04053718  0.62755793  0.08050917  1  -1.110711  0.091309  -0.319434  -0.538386  0.057999  2.342389  0.083
O  O124  1  0.57605391  0.17986154  0.14979111  1  -1.176184  0.001839  -0.374111  -0.62388  0.000292  2.279655  0.002
O  O125  1  0.41281720  0.04029546  0.08050192  1  -1.116101  0.091284  -0.319856  -0.538832  0.057972  2.343033  0.083
O  O126  1  0.60386738  0.42383539  0.14980159  1  -1.181955  0.00183  -0.374397  -0.623816  0.000287  2.279918  0.002
O  O127  1  0.62747159  0.58693033  0.08047395  1  -1.11617  0.09136  -0.319281  -0.538277  0.058006  2.343358  0.083
O  O128  1  0.82002004  0.39618952  0.14979122  1  -1.173172  0.001843  -0.373962  -0.623368  0.000295  2.279516  0.002
O  O129  1  0.95962569  0.37251774  0.08052904  1  -1.111502  0.091202  -0.319824  -0.538688  0.057949  2.342632  0.083
O  O130  1  0.17997337  0.57610786  0.64983041  1  -1.174797  0.001842  -0.3744  -0.624026  0.000293  2.278603  0.002
O  O131  1  0.04042793  0.41293397  0.58052796  1  -1.114162  0.091288  -0.319601  -0.538529  0.057964  2.343295  0.083
O  O132  1  0.42379454  0.60381967  0.64984719  1  -1.181491  0.001832  -0.374298  -0.623418  0.000289  2.280412  0.002
O  O133  1  0.58695108  0.62748217  0.58047971  1  -1.115677  0.091316  -0.319391  -0.538188  0.057982  2.342781  0.083
O  O134  1  0.39629101  0.82010660  0.64980935  1  -1.17362  0.001839  -0.373704  -0.623366  0.000293  2.278584  0.002
O  O135  1  0.37252022  0.95960219  0.58051700  1  -1.112286  0.091198  -0.319912  -0.538829  0.057948  2.342865  0.083
O  O136  1  0.82006218  0.42387464  0.64979732  1  -1.174814  0.001838  -0.374413  -0.624447  0.000289  2.278985  0.002
O  O137  1  0.95960664  0.58701859  0.58050438  1  -1.114379  0.091294  -0.319445  -0.538682  0.057964  2.343476  0.083
O  O138  1  0.57616147  0.39617514  0.64979891  1  -1.182558  0.001839  -0.374041  -0.623327  0.000298  2.279606  0.002
O  O139  1  0.41288984  0.37244909  0.58050793  1  -1.116059  0.091236  -0.319616  -0.538552  0.057941  2.342482  0.083
O  O140  1  0.60378143  0.17992415  0.64978900  1  -1.173485  0.001833  -0.374151  -0.624003  0.000286  2.279842  0.002
O  O141  1  0.62744375  0.04040425  0.58044922  1  -1.111338  0.091259  -0.319674  -0.538863  0.057978  2.342941  0.083
O  O142  1  0.57612521  0.17987324  0.85015076  1  -1.175445  0.001841  -0.37432  -0.624121  0.000293  2.279091  0.002
O  O143  1  0.41292111  0.04041166  0.91951023  1  -1.114398  0.091315  -0.319703  -0.538842  0.05798  2.342221  0.083
O  O144  1  0.60389427  0.42383185  0.85017960  1  -1.182186  0.001829  -0.374467  -0.624057  0.000286  2.280044  0.002
O  O145  1  0.62744814  0.58690558  0.91953552  1  -1.116407  0.091319  -0.319434  -0.538336  0.057979  2.343646  0.083
O  O146  1  0.82003405  0.39621806  0.85017290  1  -1.173258  0.001843  -0.373981  -0.623277  0.000296  2.279431  0.002
O  O147  1  0.95955182  0.37249869  0.91949571  1  -1.111135  0.09119  -0.319495  -0.538468  0.057935  2.342632  0.083
O  O148  1  0.42388435  0.82013877  0.85021070  1  -1.176158  0.001836  -0.374068  -0.623879  0.000289  2.279152  0.002
O  O149  1  0.58709444  0.95971666  0.91950968  1  -1.116733  0.091258  -0.31971  -0.538829  0.057954  2.3428  0.083
O  O150  1  0.39619303  0.57607844  0.85022532  1  -1.181442  0.001836  -0.374232  -0.623984  0.000295  2.278538  0.002
O  O151  1  0.37254092  0.41284095  0.91945378  1  -1.117131  0.091188  -0.319813  -0.538741  0.057927  2.343314  0.083
O  O152  1  0.18006987  0.60383280  0.85018672  1  -1.175261  0.001837  -0.374233  -0.623563  0.00029  2.280218  0.002
O  O153  1  0.04056069  0.62750495  0.91953767  1  -1.10935  0.091245  -0.319404  -0.538379  0.057953  2.342755  0.083
O  O154  1  0.77572016  0.55133173  0.24998950  1  -1.079889  0.004711  -0.274182  -0.251202  0.002665  2.766378  0.003
O  O155  1  0.44873181  0.22429708  0.24997193  1  -1.078642  0.004714  -0.274347  -0.251304  0.002669  2.765949  0.003
O  O156  1  0.77544412  0.22421819  0.24995456  1  -1.085359  0.004716  -0.274274  -0.25122  0.002666  2.766046  0.003
O  O157  1  0.22427310  0.44867433  0.24997085  1  -1.07869  0.004718  -0.273879  -0.250692  0.00267  2.76614  0.003
O  O158  1  0.55121175  0.77584008  0.25004536  1  -1.079044  0.004711  -0.274406  -0.251444  0.002666  2.765799  0.003
O  O159  1  0.22444885  0.77572585  0.25005661  1  -1.083769  0.004715  -0.274394  -0.251599  0.002667  2.765662  0.003
O  O160  1  0.22434994  0.44865333  0.75000374  1  -1.079572  0.004718  -0.274066  -0.250751  0.00267  2.76625  0.003
O  O161  1  0.55126764  0.77573280  0.75003723  1  -1.077654  0.004704  -0.274306  -0.251466  0.002663  2.765958  0.003
O  O162  1  0.22450654  0.77570798  0.75000806  1  -1.083278  0.004717  -0.274255  -0.251029  0.002668  2.766219  0.003
O  O163  1  0.77567579  0.55133405  0.74998259  1  -1.078116  0.004711  -0.274066  -0.250875  0.002666  2.76641  0.003
O  O164  1  0.44875311  0.22423960  0.74998033  1  -1.078796  0.004716  -0.274288  -0.251345  0.002669  2.76576  0.003
O  O165  1  0.77553640  0.22428421  0.74998684  1  -1.083369  0.004715  -0.274433  -0.251487  0.002667  2.765893  0.003
