# generated using pymatgen
data_ZnH8C10S2(NCl)2
_symmetry_space_group_name_H-M   'P 1'
_cell_length_a   7.88932263
_cell_length_b   7.88932414
_cell_length_c   10.98920291
_cell_angle_alpha   88.31977857
_cell_angle_beta   88.31975318
_cell_angle_gamma   77.27948324
_symmetry_Int_Tables_number   1
_chemical_formula_structural   ZnH8C10S2(NCl)2
_chemical_formula_sum   'Zn2 H16 C20 S4 N4 Cl4'
_cell_volume   666.72550279
_cell_formula_units_Z   2
loop_
 _symmetry_equiv_pos_site_id
 _symmetry_equiv_pos_as_xyz
  1  'x, y, z'
loop_
 _atom_site_type_symbol
 _atom_site_label
 _atom_site_symmetry_multiplicity
 _atom_site_fract_x
 _atom_site_fract_y
 _atom_site_fract_z
 _atom_site_occupancy
 _atom_site_hle17_bader_spin_density
 _atom_site_hle17_ddec_charge
 _atom_site_hle17_ddec_spin_density
 _atom_site_hle17_ddec_sum_bond_order
 _atom_site_hle17_magmom
 _atom_site_hse06_10hf_bader_spin_density
 _atom_site_hse06_10hf_ddec_charge
 _atom_site_hse06_10hf_ddec_spin_density
 _atom_site_hse06_10hf_ddec_sum_bond_order
 _atom_site_hse06_10hf_magmom
 _atom_site_hse06_bader_spin_density
 _atom_site_hse06_ddec_charge
 _atom_site_hse06_ddec_spin_density
 _atom_site_hse06_ddec_sum_bond_order
 _atom_site_hse06_magmom
 _atom_site_pbe_bader_spin_density
 _atom_site_pbe_cm5_charge
 _atom_site_pbe_ddec_charge
 _atom_site_pbe_ddec_spin_density
 _atom_site_pbe_ddec_sum_bond_order
 _atom_site_pbe_magmom
Zn  Zn0  1  0.95080778  0.04919281  0.74999977  1  0  0.839766  0  2.1425  0  0  0.664074  0  2.639289  0  0  0.703139  0  2.594814  0  0  0.551056  0.6364  0  2.67124  0
Zn  Zn1  1  0.04919250  0.95080779  0.24999996  1  0  0.839797  0  2.142457  0  0  0.664098  0  2.639235  0  0  0.703171  0  2.594767  0  0  0.551065  0.636429  0  2.671188  0
H  H2  1  0.93868249  0.41127589  0.83014173  1  0  0.083636  0  0.939022  0  0  0.090887  0  1.005899  0  0  0.093488  0  1.003275  0  0  0.108588  0.088855  0  1.00812  0
H  H3  1  0.58872497  0.06131677  0.66985698  1  0  0.083648  0  0.939014  0  0  0.0909  0  1.005886  0  0  0.093501  0  1.003262  0  0  0.108597  0.088868  0  1.008107  0
H  H4  1  0.06131651  0.58872472  0.16985802  1  0  0.083636  0  0.939021  0  0  0.090888  0  1.005893  0  0  0.093488  0  1.00327  0  0  0.10859  0.088857  0  1.008114  0
H  H5  1  0.41127559  0.93868253  0.33014186  1  0  0.083646  0  0.939012  0  0  0.090895  0  1.005891  0  0  0.093495  0  1.003268  0  0  0.108591  0.088864  0  1.008112  0
H  H6  1  0.79507156  0.60913446  0.99041601  1  0  0.120854  0  0.946832  0  0  0.130577  0  1.007147  0  0  0.133938  0  1.006057  0  0  0.101685  0.1281  0  1.008162  0
H  H7  1  0.39086623  0.20492668  0.50958460  1  0  0.12086  0  0.946799  0  0  0.130582  0  1.007115  0  0  0.133943  0  1.006025  0  0  0.1017  0.128107  0  1.00813  0
H  H8  1  0.20492774  0.39086485  0.00958467  1  0  0.12087  0  0.946785  0  0  0.130592  0  1.007103  0  0  0.133954  0  1.006012  0  0  0.101701  0.128117  0  1.008117  0
H  H9  1  0.60913433  0.79507262  0.49041515  1  0  0.120864  0  0.946796  0  0  0.130587  0  1.007111  0  0  0.133949  0  1.006019  0  0  0.101699  0.128112  0  1.008125  0
H  H10  1  0.59134680  0.18010329  0.14642210  1  0  0.110001  0  0.982977  0  0  0.115347  0  1.049925  0  0  0.118959  0  1.04869  0  0  0.095492  0.112576  0  1.051357  0
H  H11  1  0.81989591  0.40865365  0.35357763  1  0  0.109994  0  0.982979  0  0  0.115341  0  1.049926  0  0  0.118953  0  1.048691  0  0  0.095489  0.11257  0  1.051358  0
H  H12  1  0.40865347  0.81989731  0.85357763  1  0  0.110003  0  0.98298  0  0  0.115351  0  1.049926  0  0  0.118964  0  1.048691  0  0  0.095486  0.11258  0  1.051356  0
H  H13  1  0.18010309  0.59134696  0.64642213  1  0  0.110014  0  0.982973  0  0  0.115362  0  1.049918  0  0  0.118974  0  1.048683  0  0  0.095491  0.112591  0  1.051349  0
H  H14  1  0.73985653  0.00158835  0.97450296  1  0  0.082233  0  0.940953  0  0  0.090389  0  1.004463  0  0  0.093377  0  1.001418  0  0  0.108329  0.088217  0  1.006635  0
H  H15  1  0.99841295  0.26014273  0.52549662  1  0  0.08225  0  0.940941  0  0  0.090392  0  1.004464  0  0  0.093377  0  1.00142  0  0  0.108345  0.08822  0  1.006635  0
H  H16  1  0.26014375  0.99841226  0.02549768  1  0  0.082241  0  0.940993  0  0  0.090398  0  1.004499  0  0  0.093385  0  1.001454  0  0  0.108338  0.088225  0  1.00667  0
H  H17  1  0.00158761  0.73985657  0.47450313  1  0  0.082229  0  0.940973  0  0  0.090383  0  1.004485  0  0  0.093371  0  1.001439  0  0  0.108328  0.088211  0  1.006656  0
C  C18  1  0.85898985  0.36542512  0.90113503  1  0  0.133607  0  3.71535  0  0  0.099087  0  3.974379  0  0  0.107552  0  3.990896  0  0  0.040475  0.09338  0  3.963681  0
C  C19  1  0.63457594  0.14100932  0.59886460  1  0  0.133557  0  3.715415  0  0  0.099039  0  3.974444  0  0  0.107505  0  3.99096  0  0  0.040455  0.093332  0  3.963744  0
C  C20  1  0.14100916  0.63457549  0.09886473  1  0  0.133634  0  3.715285  0  0  0.099113  0  3.974313  0  0  0.107578  0  3.990832  0  0  0.040497  0.093406  0  3.963615  0
C  C21  1  0.36542462  0.85898998  0.40113516  1  0  0.133594  0  3.715361  0  0  0.09907  0  3.974389  0  0  0.107535  0  3.990907  0  0  0.040476  0.093363  0  3.963694  0
C  C22  1  0.77892064  0.47542663  0.99198778  1  0  -0.154638  0  3.702731  0  0  -0.173259  0  3.954886  0  0  -0.181509  0  3.975354  0  0  -0.090979  -0.16779  0  3.941284  0
C  C23  1  0.52457388  0.22107751  0.50801191  1  0  -0.154623  0  3.702689  0  0  -0.173237  0  3.954843  0  0  -0.181487  0  3.975311  0  0  -0.090978  -0.167762  0  3.94125  0
C  C24  1  0.22107836  0.52457398  0.00801198  1  0  -0.154666  0  3.702705  0  0  -0.173284  0  3.954861  0  0  -0.181536  0  3.97533  0  0  -0.090986  -0.16781  0  3.941266  0
C  C25  1  0.47542668  0.77892179  0.49198784  1  0  -0.154664  0  3.702738  0  0  -0.173283  0  3.954894  0  0  -0.181535  0  3.975364  0  0  -0.090985  -0.167815  0  3.941293  0
C  C26  1  0.67969423  0.41029136  0.08260572  1  0  0.089641  0  3.773808  0  0  0.104906  0  4.028608  0  0  0.111905  0  4.049342  0  0  0.006305  0.100149  0  4.014694  0
C  C27  1  0.58970840  0.32030493  0.41739496  1  0  0.089651  0  3.773812  0  0  0.104913  0  4.028615  0  0  0.11191  0  4.049352  0  0  0.006303  0.10013  0  4.014743  0
C  C28  1  0.32030478  0.58970924  0.91739494  1  0  0.089713  0  3.77389  0  0  0.104982  0  4.028675  0  0  0.11198  0  4.049413  0  0  0.006341  0.1002  0  4.014804  0
C  C29  1  0.41029089  0.67969437  0.58260482  1  0  0.089689  0  3.773882  0  0  0.104958  0  4.028674  0  0  0.111955  0  4.049411  0  0  0.006317  0.100199  0  4.014763  0
C  C30  1  0.66441073  0.23752762  0.07719192  1  0  -0.168137  0  3.753589  0  0  -0.185396  0  4.000467  0  0  -0.194262  0  4.022476  0  0  -0.093253  -0.179717  0  3.986461  0
C  C31  1  0.76247254  0.33558922  0.42280779  1  0  -0.168145  0  3.753532  0  0  -0.185398  0  4.000394  0  0  -0.194263  0  4.022402  0  0  -0.093266  -0.179711  0  3.986394  0
C  C32  1  0.33558954  0.76247298  0.92280780  1  0  -0.168203  0  3.753582  0  0  -0.185465  0  4.00045  0  0  -0.194332  0  4.022459  0  0  -0.093279  -0.179778  0  3.986447  0
C  C33  1  0.23752802  0.66441008  0.57719196  1  0  -0.168215  0  3.753592  0  0  -0.185482  0  4.000471  0  0  -0.194348  0  4.022479  0  0  -0.093273  -0.179802  0  3.986463  0
C  C34  1  0.74759578  0.13721305  0.98228881  1  0  0.141105  0  3.705511  0  0  0.110716  0  3.954034  0  0  0.118727  0  3.971042  0  0  0.044862  0.105309  0  3.942625  0
C  C35  1  0.86278836  0.25240333  0.51771079  1  0  0.141083  0  3.705469  0  0  0.110704  0  3.954001  0  0  0.118718  0  3.971004  0  0  0.044854  0.105296  0  3.942591  0
C  C36  1  0.25240323  0.86278756  0.01771186  1  0  0.141118  0  3.705545  0  0  0.110734  0  3.954049  0  0  0.118746  0  3.971058  0  0  0.044883  0.105328  0  3.942638  0
C  C37  1  0.13721220  0.74759597  0.48228805  1  0  0.141148  0  3.70548  0  0  0.110765  0  3.953983  0  0  0.118778  0  3.970989  0  0  0.044894  0.105359  0  3.942575  0
S  S38  1  0.58278364  0.55555304  0.19674796  1  0  0.052144  0  2.499051  0  0  0.051946  0  2.858947  0  0  0.048335  0  2.861475  0  0  0.070531  0.055293  0  2.858158  0
S  S39  1  0.44444621  0.41721625  0.30325276  1  0  0.052122  0  2.499058  0  0  0.051927  0  2.858953  0  0  0.048315  0  2.861483  0  0  0.070529  0.055282  0  2.858177  0
S  S40  1  0.41721537  0.44444756  0.80325271  1  0  0.052113  0  2.499111  0  0  0.051914  0  2.859005  0  0  0.048303  0  2.861534  0  0  0.070506  0.055269  0  2.858227  0
S  S41  1  0.55555280  0.58278436  0.69674700  1  0  0.052113  0  2.499079  0  0  0.051914  0  2.858973  0  0  0.048303  0  2.861502  0  0  0.070509  0.055261  0  2.858183  0
N  N42  1  0.84338530  0.19901031  0.89525999  1  0  -0.338132  0  3.345574  0  0  -0.254593  0  3.621419  0  0  -0.273863  0  3.637531  0  0  -0.341478  -0.241431  0  3.611188  0
N  N43  1  0.80099014  0.15661338  0.60473963  1  0  -0.338098  0  3.345658  0  0  -0.254565  0  3.6215  0  0  -0.273836  0  3.637613  0  0  -0.341473  -0.241401  0  3.611265  0
N  N44  1  0.15661371  0.80099029  0.10473977  1  0  -0.338161  0  3.345558  0  0  -0.254629  0  3.621415  0  0  -0.273895  0  3.637512  0  0  -0.341519  -0.241469  0  3.611185  0
N  N45  1  0.19901042  0.84338592  0.39526012  1  0  -0.338133  0  3.345586  0  0  -0.254589  0  3.62142  0  0  -0.273859  0  3.637529  0  0  -0.341494  -0.241431  0  3.611194  0
Cl  Cl46  1  0.89066190  0.78852913  0.78672486  1  0  -0.572186  0  0.945358  0  0  -0.512632  0  1.223706  0  0  -0.528206  0  1.203092  0  0  -0.326086  -0.50113  0  1.23813  0
Cl  Cl47  1  0.21147120  0.10933831  0.71327481  1  0  -0.572185  0  0.945356  0  0  -0.512633  0  1.223707  0  0  -0.528204  0  1.20309  0  0  -0.326087  -0.501129  0  1.238131  0
Cl  Cl48  1  0.10933838  0.21147148  0.21327486  1  0  -0.572196  0  0.945352  0  0  -0.512641  0  1.223704  0  0  -0.528217  0  1.203089  0  0  -0.326086  -0.501138  0  1.238128  0
Cl  Cl49  1  0.78852781  0.89066229  0.28672494  1  0  -0.572196  0  0.945344  0  0  -0.512646  0  1.223703  0  0  -0.528223  0  1.203092  0  0  -0.326087  -0.501143  0  1.238126  0
