# generated using pymatgen
data_Zn2H11C23O11
_symmetry_space_group_name_H-M   'P 1'
_cell_length_a   12.57561544
_cell_length_b   16.32649439
_cell_length_c   19.70330621
_cell_angle_alpha   93.52263280
_cell_angle_beta   89.99313291
_cell_angle_gamma   89.97736314
_symmetry_Int_Tables_number   1
_chemical_formula_structural   Zn2H11C23O11
_chemical_formula_sum   'Zn8 H44 C92 O44'
_cell_volume   4037.75468968
_cell_formula_units_Z   4
loop_
 _symmetry_equiv_pos_site_id
 _symmetry_equiv_pos_as_xyz
  1  'x, y, z'
loop_
 _atom_site_type_symbol
 _atom_site_label
 _atom_site_symmetry_multiplicity
 _atom_site_fract_x
 _atom_site_fract_y
 _atom_site_fract_z
 _atom_site_occupancy
 _atom_site_pbe_bader_charge
 _atom_site_pbe_bader_spin_density
 _atom_site_pbe_cm5_charge
 _atom_site_pbe_ddec_charge
 _atom_site_pbe_ddec_spin_density
 _atom_site_pbe_ddec_sum_bond_order
 _atom_site_pbe_magmom
Zn  Zn0  1  0.42970436  0.85590073  0.78626636  1  1.37717  0  0.687973  0.965988  0  2.286058  0
Zn  Zn1  1  0.92921578  0.14433355  0.71398074  1  1.375114  0  0.687797  0.964995  0  2.287884  0
Zn  Zn2  1  0.57100974  0.14457879  0.21421097  1  1.376894  0  0.687847  0.964662  0  2.289307  0
Zn  Zn3  1  0.07087118  0.85540664  0.28583567  1  1.375702  0  0.68772  0.964327  0  2.288556  0
Zn  Zn4  1  0.87155790  0.33516767  0.65187878  1  1.346717  0  0.695627  0.947916  0  2.26214  0
Zn  Zn5  1  0.37145080  0.66453673  0.84795262  1  1.34688  0  0.695452  0.947984  0  2.263022  0
Zn  Zn6  1  0.12844623  0.66499831  0.34813915  1  1.345243  0  0.69525  0.946992  0  2.265331  0
Zn  Zn7  1  0.62837695  0.33515190  0.15184504  1  1.345561  0  0.695141  0.946915  0  2.266647  0
H  H8  1  0.42553971  0.91552773  0.90722366  1  0.626896  0  0.31409  0.39981  0  0.900204  0
H  H9  1  0.92497587  0.08557512  0.59289612  1  0.624912  0  0.314198  0.399678  0  0.89955  0
H  H10  1  0.57533000  0.08606303  0.09307304  1  0.626649  0  0.314745  0.40045  0  0.898561  0
H  H11  1  0.07491785  0.91419996  0.40688495  1  0.626028  0  0.314794  0.400678  0  0.898809  0
H  H12  1  0.41719843  0.99306586  0.86676116  1  0.610077  0  0.324089  0.40317  0  0.878942  0
H  H13  1  0.91726068  0.00802428  0.63337569  1  0.619513  0  0.324195  0.403842  0  0.877631  0
H  H14  1  0.58324981  0.00855397  0.13359128  1  0.627251  0  0.324051  0.403561  0  0.87854  0
H  H15  1  0.08303386  0.99163813  0.36629582  1  0.624829  0  0.324035  0.403547  0  0.878973  0
H  H16  1  0.22072302  0.16358675  0.64524353  1  0.123086  0  0.117025  0.126164  0  0.991075  0
H  H17  1  0.72046728  0.83657527  0.85494555  1  0.121806  0  0.116907  0.12619  0  0.99123  0
H  H18  1  0.77937192  0.83615168  0.35439161  1  0.121365  0  0.117054  0.126414  0  0.990752  0
H  H19  1  0.27935695  0.16398856  0.14577803  1  0.124216  0  0.116836  0.126275  0  0.990366  0
H  H20  1  0.45085951  0.25424434  0.50522289  1  0.093538  0  0.111786  0.116673  0  1.001619  0
H  H21  1  0.95084991  0.74562935  0.99471514  1  0.094322  0  0.111915  0.11697  0  1.001455  0
H  H22  1  0.54887110  0.74597154  0.49442598  1  0.09468  0  0.111684  0.116389  0  1.001608  0
H  H23  1  0.04892216  0.25385940  0.00554880  1  0.095579  0  0.111687  0.116476  0  1.001207  0
H  H24  1  0.12040653  0.32443151  0.49398205  1  0.12392  0  0.118773  0.126539  0  0.984745  0
H  H25  1  0.62044373  0.67546010  0.00607212  1  0.1232  0  0.118689  0.126085  0  0.984643  0
H  H26  1  0.87915481  0.67531785  0.50579676  1  0.127067  0  0.118853  0.126232  0  0.985444  0
H  H27  1  0.37915646  0.32452384  0.99419524  1  0.12385  0  0.11856  0.125792  0  0.985631  0
H  H28  1  0.65916368  0.07152236  0.72457965  1  0.150891  0  0.118933  0.133628  0  0.988753  0
H  H29  1  0.15882699  0.92898192  0.77572076  1  0.1546  0  0.119007  0.133339  0  0.988668  0
H  H30  1  0.34102494  0.92877584  0.27512956  1  0.16112  0  0.119122  0.133764  0  0.987593  0
H  H31  1  0.84091622  0.07132797  0.22481529  1  0.144899  0  0.119093  0.133698  0  0.988009  0
H  H32  1  0.55253306  0.26002325  0.59800287  1  0.102508  0  0.114476  0.121482  0  0.994198  0
H  H33  1  0.05250601  0.73987805  0.90175647  1  0.101387  0  0.114377  0.121561  0  0.994112  0
H  H34  1  0.44752853  0.73969981  0.40120367  1  0.102404  0  0.114392  0.121397  0  0.993978  0
H  H35  1  0.94754975  0.26028681  0.09871614  1  0.10125  0  0.114418  0.121477  0  0.994194  0
H  H36  1  0.33874842  0.06419810  0.64863313  1  0.140203  0  0.115176  0.123222  0  0.994401  0
H  H37  1  0.83832939  0.93579038  0.85155496  1  0.13759  0  0.115323  0.123548  0  0.994543  0
H  H38  1  0.66136075  0.93574704  0.35119280  1  0.138967  0  0.115322  0.123463  0  0.994509  0
H  H39  1  0.16138051  0.06419717  0.14890290  1  0.138632  0  0.115385  0.123582  0  0.994251  0
H  H40  1  0.39059393  0.45284858  0.26961707  1  0.147992  0  0.11907  0.130414  0  0.983024  0
H  H41  1  0.89075636  0.54695702  0.23033748  1  0.142859  0  0.118987  0.130327  0  0.983388  0
H  H42  1  0.60982383  0.54694281  0.73010389  1  0.132884  0  0.119361  0.130785  0  0.983263  0
H  H43  1  0.10955805  0.45257824  0.76970744  1  0.145671  0  0.118926  0.130194  0  0.983653  0
H  H44  1  0.20180771  0.43712005  0.45009890  1  0.110048  0  0.116162  0.125438  0  0.992181  0
H  H45  1  0.70203576  0.56280646  0.04987352  1  0.111136  0  0.116127  0.125493  0  0.992332  0
H  H46  1  0.79747772  0.56279166  0.54916105  1  0.104959  0  0.116202  0.125601  0  0.992269  0
H  H47  1  0.29770444  0.43690020  0.95042088  1  0.10938  0  0.115923  0.125017  0  0.992771  0
H  H48  1  0.42724695  0.24485494  0.39079620  1  0.111918  0  0.112953  0.121145  0  0.997973  0
H  H49  1  0.92723610  0.75506315  0.10926546  1  0.109938  0  0.112819  0.121154  0  0.997865  0
H  H50  1  0.57277866  0.75525778  0.60926429  1  0.110909  0  0.112762  0.121129  0  0.997523  0
H  H51  1  0.07257171  0.24464686  0.89091896  1  0.110774  0  0.112744  0.120928  0  0.997217  0
C  C52  1  0.04978701  0.24017151  0.59943091  1  1.577518  0  0.222701  0.599215  0  4.184372  0
C  C53  1  0.54956158  0.75992329  0.90072124  1  1.57912  0  0.222806  0.599781  0  4.184561  0
C  C54  1  0.95022041  0.75959171  0.40049474  1  1.57964  0  0.222354  0.599138  0  4.184747  0
C  C55  1  0.45019435  0.24046334  0.09962013  1  1.578103  0  0.222163  0.598897  0  4.18551  0
C  C56  1  0.16066401  0.24256578  0.57130155  1  -0.042553  0  -0.011906  -0.026892  0  3.982695  0
C  C57  1  0.66048290  0.75745272  0.92880703  1  -0.019534  0  -0.011743  -0.027231  0  3.981301  0
C  C58  1  0.83924164  0.75721534  0.42844430  1  -0.028986  0  -0.01217  -0.027159  0  3.98253  0
C  C59  1  0.33922375  0.24279555  0.07163669  1  -0.028493  0  -0.012343  -0.027262  0  3.981568  0
C  C60  1  0.24130065  0.19939361  0.60222883  1  -0.032655  0  -0.055654  -0.099049  0  3.842459  0
C  C61  1  0.74109642  0.80065173  0.89788443  1  -0.05387  0  -0.055057  -0.098015  0  3.838775  0
C  C62  1  0.75869885  0.80040564  0.39742705  1  -0.030641  0  -0.055226  -0.098962  0  3.840652  0
C  C63  1  0.25870483  0.19964228  0.10267978  1  -0.031433  0  -0.055314  -0.098737  0  3.840243  0
C  C64  1  0.34789782  0.20554186  0.58043347  1  -0.020411  0  0.007282  0.08546  0  3.994571  0
C  C65  1  0.84777951  0.79440883  0.91960306  1  0.021627  0  0.00742  0.085104  0  3.993091  0
C  C66  1  0.65203407  0.79434994  0.41918532  1  -0.020437  0  0.006859  0.085274  0  3.994087  0
C  C67  1  0.15208942  0.20562164  0.08085486  1  -0.023303  0  0.006831  0.084732  0  3.993964  0
C  C68  1  0.36947596  0.25073480  0.52389897  1  -0.033712  0  -0.075893  -0.17076  0  3.907744  0
C  C69  1  0.86944698  0.74917631  0.97610201  1  -0.034951  0  -0.076342  -0.171362  0  3.909065  0
C  C70  1  0.63026901  0.74931059  0.47577707  1  -0.039356  0  -0.075821  -0.169933  0  3.908169  0
C  C71  1  0.13033376  0.25059239  0.02421776  1  -0.040946  0  -0.07572  -0.169856  0  3.907298  0
C  C72  1  0.28880815  0.29236269  0.49089394  1  -0.078625  0  0.008501  0.088597  0  3.992222  0
C  C73  1  0.78881687  0.70756918  0.00913965  1  -0.025195  0  0.008293  0.088144  0  3.992299  0
C  C74  1  0.71080642  0.70760980  0.50881509  1  -0.056954  0  0.008883  0.08789  0  3.992866  0
C  C75  1  0.21085332  0.29227311  0.99116038  1  -0.057535  0  0.008725  0.087532  0  3.993317  0
C  C76  1  0.18426740  0.29035563  0.51686781  1  0.040608  0  -0.053623  -0.09987  0  3.845352  0
C  C77  1  0.68422673  0.70959312  0.98318789  1  -0.013852  0  -0.053362  -0.098906  0  3.84396  0
C  C78  1  0.81540764  0.70946844  0.48286897  1  0.003834  0  -0.05337  -0.098782  0  3.844237  0
C  C79  1  0.31540207  0.29043210  0.01714189  1  0.007659  0  -0.052969  -0.09822  0  3.844778  0
C  C80  1  0.47404598  0.98528379  0.72640613  1  1.539309  0  0.199051  0.539607  0  4.222525  0
C  C81  1  0.97326270  0.01486072  0.77381141  1  1.542188  0  0.199613  0.54126  0  4.219782  0
C  C82  1  0.52640585  0.01486344  0.27351596  1  1.543141  0  0.199714  0.541293  0  4.221447  0
C  C83  1  0.02619832  0.98514058  0.22651111  1  1.538888  0  0.199669  0.541229  0  4.221991  0
C  C84  1  0.72214596  0.20963541  0.66809422  1  1.582952  0  0.225359  0.603574  0  4.168446  0
C  C85  1  0.22214401  0.79060913  0.83173796  1  1.57093  0  0.226034  0.604495  0  4.167237  0
C  C86  1  0.27798869  0.79039501  0.33130955  1  1.571588  0  0.22511  0.602743  0  4.168658  0
C  C87  1  0.77791331  0.20970144  0.16862759  1  1.574663  0  0.225437  0.602802  0  4.169825  0
C  C88  1  0.49620457  0.06039412  0.68955034  1  0.019587  0  -0.011534  -0.026218  0  3.995255  0
C  C89  1  0.99575639  0.93979468  0.81064485  1  0.007839  0  -0.01157  -0.027192  0  3.997108  0
C  C90  1  0.50398409  0.93969869  0.31021023  1  -0.002088  0  -0.011332  -0.027648  0  3.997887  0
C  C91  1  0.00391849  0.06032475  0.18979917  1  -0.00363  0  -0.011624  -0.028175  0  3.99732  0
C  C92  1  0.59640142  0.09766510  0.69451047  1  -0.051156  0  -0.049072  -0.062037  0  3.838163  0
C  C93  1  0.09610280  0.90264244  0.80567247  1  -0.047965  0  -0.048831  -0.060869  0  3.836949  0
C  C94  1  0.40374589  0.90248998  0.30514099  1  -0.069471  0  -0.049072  -0.061607  0  3.834945  0
C  C95  1  0.90366667  0.09758941  0.19482373  1  -0.051962  0  -0.049273  -0.061456  0  3.836365  0
C  C96  1  0.61571271  0.16927929  0.66065226  1  0.004558  0  -0.006576  -0.017242  0  3.951041  0
C  C97  1  0.11557774  0.83089319  0.83933273  1  0.006186  0  -0.007011  -0.018106  0  3.950581  0
C  C98  1  0.38440206  0.83072921  0.33881186  1  0.028639  0  -0.006814  -0.017325  0  3.950131  0
C  C99  1  0.88435554  0.16933487  0.16113486  1  0.027131  0  -0.006587  -0.016679  0  3.951914  0
C  C100  1  0.53551178  0.20339117  0.62249557  1  -0.06173  0  -0.061646  -0.112647  0  3.874945  0
C  C101  1  0.03542712  0.79660318  0.87741336  1  -0.06151  0  -0.061349  -0.112434  0  3.873905  0
C  C102  1  0.46455453  0.79644777  0.37688971  1  -0.073062  0  -0.061288  -0.111952  0  3.875055  0
C  C103  1  0.96454594  0.20356050  0.12307188  1  -0.072409  0  -0.061576  -0.112641  0  3.875231  0
C  C104  1  0.43378459  0.16738395  0.61822410  1  0.064966  0  0.004327  0.071922  0  3.988277  0
C  C105  1  0.93360997  0.83259985  0.88181005  1  0.024674  0  0.004679  0.072535  0  3.986139  0
C  C106  1  0.56624909  0.83248186  0.38132642  1  0.063236  0  0.004377  0.071453  0  3.988694  0
C  C107  1  0.06627802  0.16749393  0.11868904  1  0.064627  0  0.004421  0.071811  0  3.987617  0
C  C108  1  0.41552869  0.09514164  0.65199218  1  -0.083767  0  -0.062638  -0.117592  0  3.882208  0
C  C109  1  0.91517818  0.90490729  0.84815270  1  -0.075109  0  -0.062425  -0.117614  0  3.882885  0
C  C110  1  0.58458447  0.90482589  0.34772674  1  -0.062658  0  -0.062085  -0.116456  0  3.882465  0
C  C111  1  0.08458021  0.09515391  0.15231637  1  -0.061756  0  -0.062114  -0.116576  0  3.882339  0
C  C112  1  0.49263990  0.30413610  0.27547321  1  1.602121  0  0.229372  0.611806  0  4.161542  0
C  C113  1  0.99258667  0.69574500  0.22458219  1  1.61074  0  0.229728  0.612414  0  4.160581  0
C  C114  1  0.50776425  0.69579954  0.72468823  1  1.615381  0  0.228885  0.611792  0  4.159561  0
C  C115  1  0.00746052  0.30391798  0.77547812  1  1.589329  0  0.229277  0.611542  0  4.160708  0
C  C116  1  0.23500270  0.52972634  0.34506894  1  1.549652  0  0.206139  0.548426  0  4.208599  0
C  C117  1  0.73510236  0.47017589  0.15486452  1  1.55112  0  0.205467  0.54746  0  4.208851  0
C  C118  1  0.76530454  0.47022459  0.65422842  1  1.542379  0  0.205669  0.547645  0  4.205105  0
C  C119  1  0.26502676  0.52938086  0.84517588  1  1.550285  0  0.205654  0.547822  0  4.211522  0
C  C120  1  0.41661548  0.34466140  0.32580189  1  -0.008656  0  -0.008909  -0.024591  0  3.971598  0
C  C121  1  0.91668772  0.65520043  0.17420581  1  -0.011165  0  -0.008726  -0.024857  0  3.971606  0
C  C122  1  0.58353265  0.65528464  0.67412610  1  -0.008553  0  -0.008763  -0.023833  0  3.968946  0
C  C123  1  0.08333323  0.34443386  0.82590436  1  -0.003675  0  -0.008975  -0.023235  0  3.967824  0
C  C124  1  0.36853166  0.41974464  0.31385674  1  0.01171  0  -0.053505  -0.073204  0  3.864532  0
C  C125  1  0.86869036  0.58007854  0.18611354  1  0.01499  0  -0.053075  -0.072585  0  3.863869  0
C  C126  1  0.63163242  0.58010812  0.68585251  1  -0.008241  0  -0.053314  -0.073665  0  3.863469  0
C  C127  1  0.13145624  0.41950109  0.81398685  1  -0.003478  0  -0.053222  -0.073355  0  3.863981  0
C  C128  1  0.28984227  0.45135951  0.35852104  1  -0.066068  0  -0.008995  -0.022878  0  3.986904  0
C  C129  1  0.79003158  0.54848403  0.14143559  1  -0.055505  0  -0.009059  -0.02299  0  3.986827  0
C  C130  1  0.71008009  0.54849020  0.64097338  1  -0.012114  0  -0.00929  -0.023212  0  3.986309  0
C  C131  1  0.21002674  0.45112459  0.85871037  1  -0.036439  0  -0.009482  -0.023428  0  3.986348  0
C  C132  1  0.26173465  0.40978294  0.41573862  1  0.017636  0  -0.062379  -0.11637  0  3.876559  0
C  C133  1  0.76191052  0.59011513  0.08424550  1  0.055662  0  -0.062414  -0.116324  0  3.877322  0
C  C134  1  0.73781556  0.59011091  0.58372244  1  -0.060203  0  -0.06238  -0.116619  0  3.876824  0
C  C135  1  0.23790762  0.40958338  0.91599216  1  -0.057188  0  -0.06215  -0.116037  0  3.876046  0
C  C136  1  0.31336041  0.33619023  0.42982833  1  -0.057518  0  0.002967  0.07065  0  3.998075  0
C  C137  1  0.81345268  0.66372140  0.07018927  1  -0.106287  0  0.00338  0.070785  0  3.998186  0
C  C138  1  0.68622792  0.66379266  0.56987004  1  0.061905  0  0.003223  0.071393  0  3.997511  0
C  C139  1  0.18626287  0.33602069  0.93005256  1  0.067069  0  0.003394  0.071635  0  3.997786  0
C  C140  1  0.38993812  0.30393785  0.38357478  1  -0.012559  0  -0.067215  -0.1206  0  3.898634  0
C  C141  1  0.89000226  0.69596328  0.11644741  1  -0.007066  0  -0.067055  -0.120256  0  3.898526  0
C  C142  1  0.60996109  0.69609286  0.61633705  1  -0.063655  0  -0.066901  -0.120671  0  3.897301  0
C  C143  1  0.10983974  0.30373506  0.88373391  1  -0.074029  0  -0.066743  -0.120633  0  3.896512  0
O  O144  1  0.99021266  0.30061968  0.58788073  1  -1.139203  0  -0.300019  -0.515346  0  2.284854  0
O  O145  1  0.49019034  0.69927522  0.91188828  1  -1.139726  0  -0.300198  -0.516382  0  2.285361  0
O  O146  1  0.00991714  0.69930201  0.41232013  1  -1.140115  0  -0.300515  -0.516096  0  2.28441  0
O  O147  1  0.50982500  0.30073507  0.08775966  1  -1.1406  0  -0.300558  -0.515954  0  2.284452  0
O  O148  1  0.02560594  0.17855850  0.63301008  1  -1.187756  0  -0.316542  -0.593811  0  2.35687  0
O  O149  1  0.52518744  0.82185144  0.86753992  1  -1.189219  0  -0.316767  -0.593845  0  2.358208  0
O  O150  1  0.97443572  0.82107971  0.36676227  1  -1.187677  0  -0.316548  -0.59414  0  2.356568  0
O  O151  1  0.47442278  0.17901059  0.13338502  1  -1.187573  0  -0.316334  -0.594112  0  2.357658  0
O  O152  1  0.38794691  0.94519313  0.71538330  1  -1.100844  0  -0.294311  -0.487954  0  2.117587  0
O  O153  1  0.88692971  0.05474632  0.78474856  1  -1.10318  0  -0.293781  -0.488021  0  2.116155  0
O  O154  1  0.61278571  0.05464104  0.28450520  1  -1.104719  0  -0.29499  -0.489306  0  2.117886  0
O  O155  1  0.11252018  0.94524441  0.21552574  1  -1.103128  0  -0.294733  -0.489007  0  2.11887  0
O  O156  1  0.53995097  0.96120496  0.77048050  1  -1.101532  0  -0.300071  -0.514298  0  2.08692  0
O  O157  1  0.03917509  0.03912592  0.72977052  1  -1.101636  0  -0.300728  -0.515091  0  2.085731  0
O  O158  1  0.46046736  0.03930965  0.22959964  1  -1.106603  0  -0.300614  -0.514665  0  2.085491  0
O  O159  1  0.96019531  0.96082532  0.27042318  1  -1.102794  0  -0.300784  -0.514841  0  2.085325  0
O  O160  1  0.74709955  0.26379938  0.62688789  1  -1.144177  0  -0.30748  -0.537628  0  2.293488  0
O  O161  1  0.24685262  0.73583263  0.87246335  1  -1.13929  0  -0.308077  -0.538463  0  2.295212  0
O  O162  1  0.25293487  0.73634852  0.37260842  1  -1.137747  0  -0.307724  -0.537874  0  2.293954  0
O  O163  1  0.75276922  0.26366073  0.12726944  1  -1.139289  0  -0.307849  -0.537799  0  2.295111  0
O  O164  1  0.78042957  0.18775769  0.71645090  1  -1.165769  0  -0.308882  -0.550431  0  2.355409  0
O  O165  1  0.28064493  0.81319504  0.78376356  1  -1.161256  0  -0.308626  -0.55033  0  2.356506  0
O  O166  1  0.21982438  0.81221854  0.28289186  1  -1.161175  0  -0.308265  -0.548888  0  2.354203  0
O  O167  1  0.71980574  0.18798394  0.21711444  1  -1.161104  0  -0.308111  -0.548919  0  2.354244  0
O  O168  1  0.53490227  0.34978701  0.23278520  1  -1.158246  0  -0.304964  -0.543524  0  2.348123  0
O  O169  1  0.03495994  0.65007858  0.26722246  1  -1.159285  0  -0.305242  -0.543589  0  2.348163  0
O  O170  1  0.46478076  0.64988909  0.76691593  1  -1.160486  0  -0.304913  -0.543582  0  2.346013  0
O  O171  1  0.96500770  0.34966506  0.73292909  1  -1.158549  0  -0.304967  -0.543549  0  2.346737  0
O  O172  1  0.50524283  0.22757993  0.28008144  1  -1.166656  0  -0.308715  -0.541321  0  2.345267  0
O  O173  1  0.00498490  0.77234167  0.22006553  1  -1.173767  0  -0.308954  -0.541958  0  2.343554  0
O  O174  1  0.49601444  0.77253838  0.72069947  1  -1.175569  0  -0.308799  -0.54278  0  2.343464  0
O  O175  1  0.99514740  0.22730318  0.77988681  1  -1.154451  0  -0.308413  -0.541538  0  2.34345  0
O  O176  1  0.16437207  0.55774984  0.38802613  1  -1.108807  0  -0.306276  -0.503889  0  2.166079  0
O  O177  1  0.66430208  0.44235816  0.11196831  1  -1.109672  0  -0.306567  -0.504167  0  2.166065  0
O  O178  1  0.83615776  0.44244358  0.61133080  1  -1.111281  0  -0.305372  -0.502808  0  2.159342  0
O  O179  1  0.33553832  0.55746452  0.88814042  1  -1.110082  0  -0.306629  -0.504355  0  2.166191  0
O  O180  1  0.25709162  0.56826453  0.29320553  1  -1.058504  0  -0.273548  -0.459476  0  1.998357  0
O  O181  1  0.75720138  0.43151131  0.20664089  1  -1.061324  0  -0.273682  -0.459441  0  2.000155  0
O  O182  1  0.74344711  0.43137378  0.70600040  1  -1.051775  0  -0.273283  -0.459312  0  2.000934  0
O  O183  1  0.24317276  0.56771841  0.79320028  1  -1.058155  0  -0.274259  -0.460159  0  2.001603  0
O  O184  1  0.37730081  0.94445836  0.87789596  1  -1.191095  0  -0.562435  -0.722488  0  1.978789  0
O  O185  1  0.87698809  0.05649627  0.62226834  1  -1.198509  0  -0.561551  -0.722026  0  1.979033  0
O  O186  1  0.62337487  0.05707068  0.12247640  1  -1.207339  0  -0.561293  -0.721969  0  1.98038  0
O  O187  1  0.12310049  0.94312051  0.37752478  1  -1.204399  0  -0.561746  -0.722417  0  1.980675  0
