# generated using pymatgen
data_SmH19C30N5O7
_symmetry_space_group_name_H-M   'P 1'
_cell_length_a   10.54561527
_cell_length_b   11.15807869
_cell_length_c   13.59200000
_cell_angle_alpha   110.22009532
_cell_angle_beta   101.26301565
_cell_angle_gamma   107.84807435
_symmetry_Int_Tables_number   1
_chemical_formula_structural   SmH19C30N5O7
_chemical_formula_sum   'Sm2 H38 C60 N10 O14'
_cell_volume   1344.86191682
_cell_formula_units_Z   2
loop_
 _symmetry_equiv_pos_site_id
 _symmetry_equiv_pos_as_xyz
  1  'x, y, z'
loop_
 _atom_site_type_symbol
 _atom_site_label
 _atom_site_symmetry_multiplicity
 _atom_site_fract_x
 _atom_site_fract_y
 _atom_site_fract_z
 _atom_site_occupancy
 _atom_site_hle17_bader_spin_density
 _atom_site_hle17_ddec_charge
 _atom_site_hle17_ddec_spin_density
 _atom_site_hle17_ddec_sum_bond_order
 _atom_site_hle17_magmom
 _atom_site_hse06_10hf_bader_spin_density
 _atom_site_hse06_10hf_ddec_charge
 _atom_site_hse06_10hf_ddec_spin_density
 _atom_site_hse06_10hf_ddec_sum_bond_order
 _atom_site_hse06_10hf_magmom
 _atom_site_hse06_bader_spin_density
 _atom_site_hse06_ddec_charge
 _atom_site_hse06_ddec_spin_density
 _atom_site_hse06_ddec_sum_bond_order
 _atom_site_hse06_magmom
 _atom_site_pbe_bader_charge
 _atom_site_pbe_bader_spin_density
 _atom_site_pbe_cm5_charge
 _atom_site_pbe_ddec_charge
 _atom_site_pbe_ddec_spin_density
 _atom_site_pbe_ddec_sum_bond_order
 _atom_site_pbe_magmom
Sm  Sm0  1  0.49959658  0.91734556  0.62161894  1  0  2.241541  0  1.698512  0  0  2.066138  0  2.189722  0  0  2.182737  0  2.015389  0  2.207761  0  1.500112  2.029812  0  2.224511  0
Sm  Sm1  1  0.50040246  0.08265224  0.37838058  1  0  2.241555  0  1.698542  0  0  2.066139  0  2.189789  0  0  2.182751  0  2.015435  0  2.207723  0  1.500123  2.029847  0  2.224523  0
H  H2  1  0.42175644  0.57187903  0.99921226  1  0  0.097189  0  0.970671  0  0  0.105345  0  1.034684  0  0  0.107837  0  1.035873  0  0.075037  0  0.100358  0.103521  0  1.034149  0
H  H3  1  0.57824292  0.42812191  0.00078673  1  0  0.097072  0  0.97055  0  0  0.105215  0  1.034602  0  0  0.107705  0  1.035795  0  0.075047  0  0.100277  0.103393  0  1.034065  0
H  H4  1  0.26949189  0.32753061  0.95991286  1  0  0.057455  0  0.950783  0  0  0.065416  0  1.017074  0  0  0.067579  0  1.0159  0  0.071007  0  0.104329  0.063918  0  1.017876  0
H  H5  1  0.73050790  0.67247137  0.04008503  1  0  0.057455  0  0.950812  0  0  0.065421  0  1.017105  0  0  0.067577  0  1.01593  0  0.070964  0  0.104337  0.063924  0  1.017906  0
H  H6  1  0.96020105  0.44952189  0.38287971  1  0  0.067716  0  0.949311  0  0  0.074778  0  1.017915  0  0  0.077654  0  1.015345  0  0.085205  0  0.106953  0.072738  0  1.019763  0
H  H7  1  0.03979884  0.55047800  0.61711907  1  0  0.067742  0  0.949282  0  0  0.074801  0  1.017887  0  0  0.077676  0  1.015317  0  0.085195  0  0.106961  0.072758  0  1.019737  0
H  H8  1  0.02976794  0.30736197  0.47309563  1  0  0.102633  0  0.963743  0  0  0.112016  0  1.025567  0  0  0.11439  0  1.026477  0  0.078397  0  0.104112  0.110054  0  1.025661  0
H  H9  1  0.97023013  0.69263584  0.52690302  1  0  0.10263  0  0.963721  0  0  0.112019  0  1.025534  0  0  0.114393  0  1.026444  0  0.078413  0  0.104105  0.110053  0  1.025645  0
H  H10  1  0.23423406  0.24430869  0.44272710  1  0  0.119185  0  0.937316  0  0  0.125688  0  1.001432  0  0  0.129085  0  0.999003  0  0.146925  0  0.117869  0.123147  0  1.003298  0
H  H11  1  0.76576498  0.75568911  0.55727243  1  0  0.119186  0  0.937353  0  0  0.125685  0  1.001465  0  0  0.129082  0  0.999036  0  0.147201  0  0.117865  0.123145  0  1.003329  0
H  H12  1  0.06028683  0.67839078  0.29326308  1  0  0.107506  0  0.94113  0  0  0.112202  0  1.008582  0  0  0.116558  0  1.004906  0  0.116884  0  0.106271  0.108754  0  1.011703  0
H  H13  1  0.93971339  0.32161224  0.70673737  1  0  0.10754  0  0.941154  0  0  0.112264  0  1.008575  0  0  0.11662  0  1.004898  0  0.116867  0  0.106316  0.108814  0  1.011696  0
H  H14  1  0.79533731  0.55513576  0.21777777  1  0  0.098319  0  0.959088  0  0  0.110158  0  1.01575  0  0  0.113513  0  1.014898  0  0.045173  0  0.103402  0.107789  0  1.016381  0
H  H15  1  0.20466291  0.44486727  0.78222342  1  0  0.09834  0  0.959034  0  0  0.110183  0  1.015689  0  0  0.113538  0  1.014841  0  0.045133  0  0.10342  0.107816  0  1.016316  0
H  H16  1  0.65460394  0.67877022  0.30249031  1  0  0.073924  0  0.960399  0  0  0.082675  0  1.023177  0  0  0.085354  0  1.021077  0  0.06389  0  0.109048  0.080683  0  1.024919  0
H  H17  1  0.34539682  0.32123176  0.69751140  1  0  0.073897  0  0.960348  0  0  0.082657  0  1.023128  0  0  0.085336  0  1.021026  0  0.063886  0  0.10903  0.080664  0  1.024872  0
H  H18  1  0.84859197  0.07847740  0.77476775  1  0  0.084158  0  0.950944  0  0  0.089787  0  1.017074  0  0  0.0929  0  1.01439  0  0.13108  0  0.120293  0.087488  0  1.019255  0
H  H19  1  0.15140696  0.92152250  0.22523235  1  0  0.084166  0  0.950939  0  0  0.089823  0  1.017047  0  0  0.092937  0  1.01436  0  0.131474  0  0.120309  0.087523  0  1.019228  0
H  H20  1  0.02899421  0.23161170  0.96871677  1  0  0.101979  0  0.986616  0  0  0.107999  0  1.053379  0  0  0.111249  0  1.052398  0  0.105665  0  0.102322  0.105983  0  1.05343  0
H  H21  1  0.97100655  0.76839028  0.03128273  1  0  0.101985  0  0.986601  0  0  0.108003  0  1.053364  0  0  0.111252  0  1.052385  0  0.10568  0  0.102331  0.105987  0  1.053415  0
H  H22  1  0.94533032  0.31802903  0.12738852  1  0  0.10446  0  0.963715  0  0  0.110527  0  1.030885  0  0  0.113491  0  1.029033  0  0.130622  0  0.105563  0.108329  0  1.032267  0
H  H23  1  0.05466904  0.68197191  0.87261047  1  0  0.104459  0  0.963706  0  0  0.11051  0  1.030892  0  0  0.113475  0  1.029036  0  0.130579  0  0.105548  0.108312  0  1.032275  0
H  H24  1  0.73882598  0.31480121  0.19641408  1  0  0.106822  0  0.944892  0  0  0.119096  0  1.00434  0  0  0.12183  0  1.003238  0  0.115915  0  0.109325  0.117166  0  1.004998  0
H  H25  1  0.26117392  0.68519868  0.80358543  1  0  0.106791  0  0.944882  0  0  0.119077  0  1.004322  0  0  0.12181  0  1.003222  0  0.115917  0  0.109309  0.117144  0  1.004982  0
H  H26  1  0.48213764  0.24473099  0.15544081  1  0  0.117774  0  0.962575  0  0  0.124851  0  1.026699  0  0  0.128098  0  1.025606  0  0.128001  0  0.111334  0.122535  0  1.027557  0
H  H27  1  0.51786215  0.75527100  0.84456001  1  0  0.117768  0  0.962593  0  0  0.124846  0  1.026713  0  0  0.128092  0  1.02562  0  0.128018  0  0.111339  0.122529  0  1.027573  0
H  H28  1  0.23588882  0.11484994  0.01609201  1  0  0.110046  0  0.929972  0  0  0.118305  0  0.992338  0  0  0.12205  0  0.98913  0  0.112465  0  0.113325  0.115631  0  0.994582  0
H  H29  1  0.76411150  0.88515100  0.98390787  1  0  0.110039  0  0.929965  0  0  0.11829  0  0.992329  0  0  0.122035  0  0.989117  0  0.112463  0  0.113313  0.115614  0  0.994575  0
H  H30  1  0.07757426  0.96241587  0.81567627  1  0  0.108865  0  0.935  0  0  0.123525  0  0.983747  0  0  0.126211  0  0.984331  0  0.098676  0  0.11192  0.121811  0  0.982997  0
H  H31  1  0.92242510  0.03758507  0.18432346  1  0  0.108837  0  0.935021  0  0  0.123504  0  0.983764  0  0  0.126193  0  0.984348  0  0.09868  0  0.111904  0.121791  0  0.983013  0
H  H32  1  0.18938146  0.89698982  0.66993031  1  0  0.086411  0  0.951664  0  0  0.091013  0  1.021176  0  0  0.093701  0  1.018923  0  0.116062  0  0.121332  0.088823  0  1.023426  0
H  H33  1  0.81061887  0.10301112  0.33006956  1  0  0.086406  0  0.951673  0  0  0.091011  0  1.021188  0  0  0.093699  0  1.018933  0  0.11606  0  0.121329  0.088821  0  1.023437  0
H  H34  1  0.49779557  0.76089982  0.19462230  1  0  0.095309  0  0.989828  0  0  0.102393  0  1.056451  0  0  0.104975  0  1.055355  0  0.112615  0  0.111093  0.100513  0  1.057388  0
H  H35  1  0.50220572  0.23910112  0.80537992  1  0  0.09533  0  0.989823  0  0  0.102421  0  1.056433  0  0  0.105004  0  1.055331  0  0.112618  0  0.111098  0.100521  0  1.057391  0
H  H36  1  0.37116535  0.64712129  0.63555513  1  0  0.417355  0  0.893217  0  0  0.385907  0  0.958395  0  0  0.397801  0  0.941486  0  0.646435  0  0.287629  0.377475  0  0.970498  0
H  H37  1  0.62883455  0.35287861  0.36444438  1  0  0.417276  0  0.893323  0  0  0.385819  0  0.958518  0  0  0.397714  0  0.941608  0  0.646436  0  0.287595  0.377387  0  0.970622  0
H  H38  1  0.26015938  0.64395305  0.53736597  1  0  0.419927  0  0.847488  0  0  0.397631  0  0.912815  0  0  0.4051  0  0.905021  0  0.611054  0  0.308992  0.392236  0  0.918679  0
H  H39  1  0.73983998  0.35604789  0.46263449  1  0  0.419923  0  0.847458  0  0  0.397628  0  0.912779  0  0  0.405095  0  0.905014  0  0.611048  0  0.309008  0.392233  0  0.918642  0
C  C40  1  0.42695231  0.73762461  0.36517282  1  0  0.723631  0  3.858489  0  0  0.675187  0  4.148191  0  0  0.710675  0  4.143467  0  1.603945  0  0.230248  0.650967  0  4.155012  0
C  C41  1  0.57304576  0.26237319  0.63482582  1  0  0.723605  0  3.858496  0  0  0.675176  0  4.148169  0  0  0.710665  0  4.143446  0  1.603702  0  0.230271  0.650955  0  4.154992  0
C  C42  1  0.37948882  0.62204193  0.25077470  1  0  -0.127306  0  3.669408  0  0  -0.107844  0  3.900521  0  0  -0.118519  0  3.918351  0  0.041435  0  -0.002454  -0.101326  0  3.888701  0
C  C43  1  0.62051064  0.37795692  0.74922445  1  0  -0.127255  0  3.669446  0  0  -0.107796  0  3.900514  0  0  -0.118478  0  3.918353  0  0.041421  0  -0.002405  -0.101279  0  3.88869  0
C  C44  1  0.38719393  0.54924875  0.06371324  1  0  -0.138907  0  3.770688  0  0  -0.148434  0  4.018238  0  0  -0.155931  0  4.039629  0  -0.052461  0  -0.093037  -0.143793  0  4.003844  0
C  C45  1  0.61280543  0.45075219  0.93628502  1  0  -0.138739  0  3.770546  0  0  -0.148261  0  4.01811  0  0  -0.155759  0  4.0395  0  -0.052464  0  -0.092983  -0.143622  0  4.003709  0
C  C46  1  0.30214615  0.41367199  0.04219474  1  0  0.122581  0  3.761985  0  0  0.099075  0  4.01902  0  0  0.106122  0  4.035206  0  0.466702  0  0.040602  0.094715  0  4.007922  0
C  C47  1  0.69785321  0.58632895  0.95780426  1  0  0.122518  0  3.761961  0  0  0.099006  0  4.01901  0  0  0.106063  0  4.035188  0  0.466751  0  0.040598  0.094646  0  4.007913  0
C  C48  1  0.29251707  0.48228928  0.22053730  1  0  0.206534  0  3.709091  0  0  0.195352  0  3.960074  0  0  0.204439  0  3.975541  0  0.541728  0  0.141179  0.189627  0  3.94921  0
C  C49  1  0.70748239  0.51770957  0.77946112  1  0  0.206468  0  3.70916  0  0  0.195346  0  3.96009  0  0  0.204436  0  3.975557  0  0.541716  0  0.141195  0.189621  0  3.949226  0
C  C50  1  0.22836704  0.43790154  0.29782743  1  0  0.183226  0  3.740547  0  0  0.171996  0  3.995394  0  0  0.180575  0  4.010332  0  0.546251  0  0.131013  0.166604  0  3.984593  0
C  C51  1  0.77163199  0.56209627  0.70217136  1  0  0.183332  0  3.740438  0  0  0.172008  0  3.995423  0  0  0.180585  0  4.010358  0  0.545813  0  0.131028  0.166618  0  3.984623  0
C  C52  1  0.05014593  0.42293942  0.37379981  1  0  0.102598  0  3.769701  0  0  0.079682  0  4.029737  0  0  0.085958  0  4.045887  0  0.458126  0  0.034077  0.075786  0  4.018546  0
C  C53  1  0.94985257  0.57705942  0.62619846  1  0  0.102583  0  3.769705  0  0  0.079677  0  4.029727  0  0  0.085953  0  4.045874  0  0.457763  0  0.034076  0.075781  0  4.018535  0
C  C54  1  0.08831552  0.34287007  0.42356639  1  0  -0.14221  0  3.768594  0  0  -0.153413  0  4.019695  0  0  -0.160632  0  4.041598  0  -0.053795  0  -0.092327  -0.148976  0  4.005267  0
C  C55  1  0.91168298  0.65712878  0.57643335  1  0  -0.142203  0  3.76862  0  0  -0.153406  0  4.019723  0  0  -0.160625  0  4.041625  0  -0.053778  0  -0.092326  -0.148971  0  4.005289  0
C  C56  1  0.20161060  0.30876159  0.40754762  1  0  -0.001355  0  3.666722  0  0  -0.028293  0  3.911083  0  0  -0.022975  0  3.926614  0  0.002083  0  -0.056978  -0.031401  0  3.900599  0
C  C57  1  0.79838887  0.69123725  0.59245153  1  0  -0.001442  0  3.666746  0  0  -0.028366  0  3.911107  0  0  -0.023048  0  3.926637  0  0.001978  0  -0.056949  -0.031472  0  3.900624  0
C  C58  1  0.27473776  0.35828583  0.34457248  1  0  -0.111098  0  3.670347  0  0  -0.093819  0  3.903153  0  0  -0.103048  0  3.920703  0  -0.027097  0  0.000543  -0.088213  0  3.891612  0
C  C59  1  0.72526085  0.64171093  0.65542669  1  0  -0.110975  0  3.670116  0  0  -0.093708  0  3.90298  0  0  -0.102936  0  3.920532  0  -0.026833  0  0.000469  -0.08811  0  3.891452  0
C  C60  1  0.39875331  0.32418363  0.32895800  1  0  0.697577  0  3.880754  0  0  0.647002  0  4.177893  0  0  0.682082  0  4.169709  0  1.597442  0  0.222874  0.622892  0  4.184846  0
C  C61  1  0.60124573  0.67581417  0.67104373  1  0  0.697616  0  3.880527  0  0  0.647059  0  4.177653  0  0  0.682138  0  4.169467  0  1.597685  0  0.222918  0.622955  0  4.184601  0
C  C62  1  0.21861074  0.93197737  0.45453186  1  0  0.746099  0  3.877826  0  0  0.688579  0  4.189296  0  0  0.726496  0  4.177465  0  1.676457  0  0.238684  0.662977  0  4.199099  0
C  C63  1  0.78139141  0.06802566  0.54546815  1  0  0.745968  0  3.877912  0  0  0.688441  0  4.189411  0  0  0.726362  0  4.177583  0  1.676548  0  0.238602  0.662839  0  4.199212  0
C  C64  1  0.05917957  0.86705723  0.41117939  1  0  -0.111802  0  3.66976  0  0  -0.092763  0  3.90449  0  0  -0.10002  0  3.921652  0  -0.026674  0  -6.8e-05  -0.087994  0  3.892073  0
C  C65  1  0.94082258  0.13294580  0.58882209  1  0  -0.111744  0  3.669675  0  0  -0.092655  0  3.904388  0  0  -0.099935  0  3.921571  0  -0.026722  0  -7.1e-05  -0.087886  0  3.891972  0
C  C66  1  0.99499606  0.73115747  0.32477606  1  0  -0.045959  0  3.726408  0  0  -0.069951  0  3.973889  0  0  -0.067932  0  3.991235  0  -0.142705  0  -0.072698  -0.070811  0  3.961875  0
C  C67  1  0.00500416  0.26884556  0.67522586  1  0  -0.046024  0  3.726403  0  0  -0.070051  0  3.973891  0  0  -0.068029  0  3.991241  0  -0.142729  0  -0.072742  -0.070909  0  3.961872  0
C  C68  1  0.84818125  0.66176145  0.28345820  1  0  -0.128189  0  3.768406  0  0  -0.138251  0  4.016228  0  0  -0.143564  0  4.035999  0  -0.006489  0  -0.091696  -0.134731  0  4.002609  0
C  C69  1  0.15181994  0.33824158  0.71654239  1  0  -0.128236  0  3.768356  0  0  -0.138298  0  4.016198  0  0  -0.14361  0  4.035965  0  -0.006451  0  -0.091722  -0.134777  0  4.002581  0
C  C70  1  0.76959595  0.73117524  0.33029421  1  0  0.12116  0  3.739824  0  0  0.093395  0  4.000941  0  0  0.100116  0  4.015905  0  0.590591  0  0.04352  0.088955  0  3.990622  0
C  C71  1  0.23040384  0.26882674  0.66970662  1  0  0.121231  0  3.739738  0  0  0.093459  0  4.000858  0  0  0.100182  0  4.015823  0  0.590531  0  0.043557  0.089018  0  3.990542  0
C  C72  1  0.97106576  0.92903700  0.45324726  1  0  0.148663  0  3.749023  0  0  0.140647  0  3.99531  0  0  0.146438  0  4.014414  0  0.543209  0  0.119291  0.136872  0  3.98195  0
C  C73  1  0.02893543  0.07096603  0.54675481  1  0  0.148785  0  3.749016  0  0  0.140642  0  3.995401  0  0  0.146465  0  4.014486  0  0.563094  0  0.119358  0.136868  0  3.982041  0
C  C74  1  0.81672203  0.11780808  0.84701450  1  0  0.161449  0  3.691347  0  0  0.134374  0  3.943915  0  0  0.141829  0  3.962176  0  0.504308  0  0.062804  0.129107  0  3.933672  0
C  C75  1  0.18327840  0.88219077  0.15298553  1  0  0.161477  0  3.691331  0  0  0.134374  0  3.9439  0  0  0.141829  0  3.962162  0  0.503922  0  0.06279  0.129108  0  3.933657  0
C  C76  1  0.91645367  0.20288223  0.95470789  1  0  -0.125379  0  3.736697  0  0  -0.135106  0  3.980482  0  0  -0.141997  0  4.001464  0  0.012051  0  -0.08725  -0.130424  0  3.965339  0
C  C77  1  0.08354623  0.79711766  0.04529162  1  0  -0.125397  0  3.736689  0  0  -0.135117  0  3.980474  0  0  -0.142009  0  4.001459  0  0.012013  0  -0.087253  -0.130435  0  3.96533  0
C  C78  1  0.87008492  0.25007549  0.04308466  1  0  -0.041165  0  3.67467  0  0  -0.062745  0  3.916552  0  0  -0.060858  0  3.935055  0  -0.147569  0  -0.062278  -0.063226  0  3.903456  0
C  C79  1  0.12991358  0.74992335  0.95691434  1  0  -0.04118  0  3.674652  0  0  -0.062737  0  3.916532  0  0  -0.060849  0  3.935032  0  -0.147507  0  -0.062277  -0.063219  0  3.903437  0
C  C80  1  0.72344995  0.20970371  0.02360049  1  0  0.020567  0  3.800226  0  0  0.036547  0  4.030508  0  0  0.033975  0  4.055876  0  0.010162  0  -0.004293  0.038063  0  4.013157  0
C  C81  1  0.27655048  0.79029513  0.97639955  1  0  0.020619  0  3.80021  0  0  0.036571  0  4.03053  0  0  0.034  0  4.055899  0  0.010231  0  -0.004272  0.038091  0  4.013173  0
C  C82  1  0.63037545  0.12298952  0.91192143  1  0  0.129623  0  3.76358  0  0  0.127049  0  4.001698  0  0  0.130263  0  4.02588  0  0.464788  0  0.120765  0.124419  0  3.98764  0
C  C83  1  0.36962455  0.87700828  0.08807824  1  0  0.129597  0  3.763613  0  0  0.127037  0  4.001727  0  0  0.130249  0  4.025909  0  0.464742  0  0.120768  0.124406  0  3.987669  0
C  C84  1  0.66648273  0.25178662  0.11073770  1  0  -0.100772  0  3.732452  0  0  -0.1242  0  3.989087  0  0  -0.12753  0  4.011364  0  -0.046968  0  -0.082923  -0.121502  0  3.973505  0
C  C85  1  0.33351814  0.74821328  0.88926269  1  0  -0.100738  0  3.732466  0  0  -0.124169  0  3.989105  0  0  -0.1275  0  4.011382  0  -0.046966  0  -0.082906  -0.121472  0  3.973525  0
C  C86  1  0.52392622  0.21155386  0.08826034  1  0  -0.090332  0  3.704885  0  0  -0.114549  0  3.964414  0  0  -0.116771  0  3.985692  0  -0.069897  0  -0.080408  -0.113073  0  3.949775  0
C  C87  1  0.47607411  0.78844708  0.91174027  1  0  -0.090346  0  3.704907  0  0  -0.114564  0  3.964445  0  0  -0.116786  0  3.985724  0  -0.06993  0  -0.080413  -0.113089  0  3.94981  0
C  C88  1  0.42717118  0.12504036  0.97667495  1  0  0.018861  0  3.777838  0  0  0.034402  0  4.010793  0  0  0.031498  0  4.034946  0  -0.027514  0  -0.003181  0.036533  0  3.993893  0
C  C89  1  0.57283012  0.87496058  0.02332507  1  0  0.018907  0  3.777779  0  0  0.034428  0  4.010744  0  0  0.031524  0  4.034896  0  -0.027491  0  -0.003181  0.036559  0  3.993844  0
C  C90  1  0.47966511  0.07955090  0.88808018  1  0  0.131745  0  3.772746  0  0  0.129405  0  4.009726  0  0  0.13354  0  4.033714  0  0.507665  0  0.12159  0.126704  0  3.995344  0
C  C91  1  0.52033533  0.92044795  0.11191986  1  0  0.131754  0  3.772767  0  0  0.129414  0  4.00974  0  0  0.13355  0  4.033729  0  0.507515  0  0.121591  0.126711  0  3.995364  0
C  C92  1  0.27899841  0.08141254  0.94965220  1  0  -0.042018  0  3.688576  0  0  -0.066521  0  3.940252  0  0  -0.063611  0  3.957557  0  -0.063373  0  -0.060047  -0.067996  0  3.927824  0
C  C93  1  0.72100191  0.91858840  0.05034768  1  0  -0.042031  0  3.688513  0  0  -0.066498  0  3.940154  0  0  -0.063586  0  3.957461  0  -0.063372  0  -0.060007  -0.067973  0  3.927727  0
C  C94  1  0.19231845  0.99896611  0.83983649  1  0  -0.128436  0  3.731064  0  0  -0.139834  0  3.98049  0  0  -0.147449  0  4.001992  0  -0.050542  0  -0.084674  -0.134942  0  3.965201  0
C  C95  1  0.80768188  0.00103483  0.16016413  1  0  -0.128391  0  3.731031  0  0  -0.139803  0  3.980452  0  0  -0.147423  0  4.001957  0  -0.050543  0  -0.084701  -0.13491  0  3.965162  0
C  C96  1  0.25384079  0.96051451  0.75752317  1  0  0.172699  0  3.688543  0  0  0.141703  0  3.949813  0  0  0.150149  0  3.968475  0  0.54221  0  0.069014  0.136075  0  3.939534  0
C  C97  1  0.74615910  0.03948538  0.24247708  1  0  0.172686  0  3.688554  0  0  0.14167  0  3.949847  0  0  0.150117  0  3.968511  0  0.542207  0  0.069011  0.136044  0  3.939567  0
C  C98  1  0.42735979  0.65375149  0.17038835  1  0  -0.012626  0  3.724172  0  0  -0.041879  0  3.972548  0  0  -0.036688  0  3.989266  0  -0.039709  0  -0.06593  -0.044739  0  3.960777  0
C  C99  1  0.57263914  0.34624841  0.82961101  1  0  -0.012671  0  3.724217  0  0  -0.041931  0  3.972577  0  0  -0.036735  0  3.989294  0  -0.039716  0  -0.065937  -0.044772  0  3.960814  0
N  N100  1  0.25590275  0.37977989  0.11824509  1  0  -0.352552  0  3.059683  0  0  -0.321631  0  3.330606  0  0  -0.334099  0  3.344135  0  -1.224563  0  -0.317326  -0.313457  0  3.321244  0
N  N101  1  0.74409714  0.62022001  0.88175295  1  0  -0.352548  0  3.059631  0  0  -0.321638  0  3.330531  0  0  -0.334107  0  3.344057  0  -1.224581  0  -0.317351  -0.313464  0  3.321171  0
N  N102  1  0.11760160  0.46934560  0.31131859  1  0  -0.360148  0  3.076898  0  0  -0.328298  0  3.34754  0  0  -0.339974  0  3.359856  0  -1.211671  0  -0.322408  -0.320329  0  3.338802  0
N  N103  1  0.88239841  0.53065221  0.68868034  1  0  -0.360208  0  3.076889  0  0  -0.32833  0  3.347561  0  0  -0.340005  0  3.359876  0  -1.211324  0  -0.322399  -0.320359  0  3.33882  0
N  N104  1  0.82911812  0.86102493  0.41181184  1  0  -0.307263  0  3.096554  0  0  -0.270315  0  3.361623  0  0  -0.282097  0  3.377424  0  -1.22856  0  -0.298938  -0.261913  0  3.350446  0
N  N105  1  0.17088221  0.13897601  0.58818950  1  0  -0.307313  0  3.096549  0  0  -0.270337  0  3.36166  0  0  -0.282126  0  3.377452  0  -1.228555  0  -0.298964  -0.261937  0  3.350487  0
N  N106  1  0.67791996  0.08013939  0.82563789  1  0  -0.414998  0  3.231658  0  0  -0.367152  0  3.499864  0  0  -0.388033  0  3.518823  0  -1.215512  0  -0.368398  -0.357786  0  3.489038  0
N  N107  1  0.32208005  0.91985841  0.17436252  1  0  -0.415015  0  3.231653  0  0  -0.367163  0  3.499861  0  0  -0.388044  0  3.51882  0  -1.215528  0  -0.368405  -0.3578  0  3.489037  0
N  N108  1  0.39299766  0.99907378  0.78028039  1  0  -0.433478  0  3.223894  0  0  -0.383973  0  3.494523  0  0  -0.40637  0  3.513064  0  -1.253806  0  -0.371039  -0.374318  0  3.483702  0
N  N109  1  0.60700137  0.00092403  0.21971987  1  0  -0.43352  0  3.223941  0  0  -0.384004  0  3.494574  0  0  -0.406404  0  3.513115  0  -1.253621  0  -0.371041  -0.374354  0  3.483758  0
O  O110  1  0.46325393  0.86182248  0.37391282  1  0  -0.792907  0  2.132052  0  0  -0.736532  0  2.40058  0  0  -0.776201  0  2.389027  0  -1.213465  0  -0.405275  -0.718085  0  2.408422  0
O  O111  1  0.53674650  0.13817637  0.62608942  1  0  -0.792915  0  2.132122  0  0  -0.736521  0  2.400574  0  0  -0.776189  0  2.389021  0  -1.2135  0  -0.405303  -0.718069  0  2.408416  0
O  O112  1  0.43143300  0.70912719  0.44795074  1  0  -0.688219  0  1.995921  0  0  -0.636523  0  2.236628  0  0  -0.669155  0  2.226571  0  -1.182049  0  -0.368472  -0.618532  0  2.241912  0
O  O113  1  0.56856421  0.29086852  0.55204791  1  0  -0.688219  0  1.995944  0  0  -0.636523  0  2.236637  0  0  -0.669154  0  2.226577  0  -1.181757  0  -0.368491  -0.618535  0  2.241921  0
O  O114  1  0.50877529  0.41533712  0.33332813  1  0  -0.602175  0  1.892277  0  0  -0.552133  0  2.100041  0  0  -0.576676  0  2.091878  0  -1.166438  0  -0.30762  -0.534583  0  2.10514  0
O  O115  1  0.49122375  0.58466069  0.66667287  1  0  -0.602225  0  1.892238  0  0  -0.552182  0  2.099987  0  0  -0.576727  0  2.091829  0  -1.166518  0  -0.30763  -0.534635  0  2.10508  0
O  O116  1  0.38175492  0.19914536  0.31209762  1  0  -0.768098  0  2.068999  0  0  -0.712065  0  2.330507  0  0  -0.74801  0  2.316994  0  -1.202899  0  -0.431665  -0.692808  0  2.337598  0
O  O117  1  0.61824508  0.80085244  0.68790425  1  0  -0.768123  0  2.068857  0  0  -0.712105  0  2.33037  0  0  -0.748046  0  2.316855  0  -1.203066  0  -0.431666  -0.69284  0  2.337449  0
O  O118  1  0.27446795  0.89296131  0.52262133  1  0  -0.732248  0  2.050408  0  0  -0.68001  0  2.316719  0  0  -0.715043  0  2.302676  0  -1.202912  0  -0.396958  -0.661334  0  2.324466  0
O  O119  1  0.72553378  0.10704067  0.47738126  1  0  -0.732193  0  2.05055  0  0  -0.679961  0  2.316868  0  0  -0.714996  0  2.302824  0  -1.203015  0  -0.396911  -0.66129  0  2.324613  0
O  O120  1  0.28119911  0.00418948  0.41053869  1  0  -0.724759  0  2.063405  0  0  -0.678566  0  2.333597  0  0  -0.712935  0  2.318745  0  -1.200129  0  -0.386472  -0.660713  0  2.342159  0
O  O121  1  0.71880325  0.99580937  0.58946237  1  0  -0.72475  0  2.063355  0  0  -0.678491  0  2.333399  0  0  -0.712857  0  2.318544  0  -1.200085  0  -0.386442  -0.660637  0  2.341964  0
O  O122  1  0.31377367  0.69915001  0.61670222  1  0  -0.881203  0  1.851462  0  0  -0.835073  0  2.042547  0  0  -0.860187  0  2.01264  0  -1.261107  0  -0.616998  -0.821727  0  2.060824  0
O  O123  1  0.68622762  0.30085093  0.38329780  1  0  -0.881124  0  1.851474  0  0  -0.834977  0  2.042546  0  0  -0.860093  0  2.012667  0  -1.261104  0  -0.616979  -0.821647  0  2.060848  0
