# generated using pymatgen
data_HgH12C16N4(ClO)2
_symmetry_space_group_name_H-M   'P 1'
_cell_length_a   3.80480000
_cell_length_b   8.60660193
_cell_length_c   12.91413025
_cell_angle_alpha   94.76581291
_cell_angle_beta   92.85667901
_cell_angle_gamma   99.06488770
_symmetry_Int_Tables_number   1
_chemical_formula_structural   HgH12C16N4(ClO)2
_chemical_formula_sum   'Hg1 H12 C16 N4 Cl2 O2'
_cell_volume   415.31403302
_cell_formula_units_Z   1
loop_
 _symmetry_equiv_pos_site_id
 _symmetry_equiv_pos_as_xyz
  1  'x, y, z'
loop_
 _atom_site_type_symbol
 _atom_site_label
 _atom_site_symmetry_multiplicity
 _atom_site_fract_x
 _atom_site_fract_y
 _atom_site_fract_z
 _atom_site_occupancy
 _atom_site_hle17_bader_spin_density
 _atom_site_hle17_ddec_charge
 _atom_site_hle17_ddec_spin_density
 _atom_site_hle17_ddec_sum_bond_order
 _atom_site_hle17_magmom
 _atom_site_hse06_10hf_bader_spin_density
 _atom_site_hse06_10hf_ddec_charge
 _atom_site_hse06_10hf_ddec_spin_density
 _atom_site_hse06_10hf_ddec_sum_bond_order
 _atom_site_hse06_10hf_magmom
 _atom_site_hse06_bader_spin_density
 _atom_site_hse06_ddec_charge
 _atom_site_hse06_ddec_spin_density
 _atom_site_hse06_ddec_sum_bond_order
 _atom_site_hse06_magmom
 _atom_site_pbe_bader_spin_density
 _atom_site_pbe_cm5_charge
 _atom_site_pbe_ddec_charge
 _atom_site_pbe_ddec_spin_density
 _atom_site_pbe_ddec_sum_bond_order
 _atom_site_pbe_magmom
Hg  Hg0  1  0.50000344  0.50000067  0.50000071  1  0  0.734849  0  2.126576  0  0  0.584009  0  2.627675  0  0  0.632586  0  2.593194  0  0  0.491032  0.550441  0  2.651169  0
H  H1  1  0.89638160  0.62375832  0.02521655  1  0  0.31319  0  0.928152  0  0  0.289273  0  0.997412  0  0  0.299902  0  0.988377  0  0  0.303928  0.281827  0  1.003762  0
H  H2  1  0.10362259  0.37624300  0.97478250  1  0  0.313203  0  0.928168  0  0  0.289289  0  0.997429  0  0  0.299921  0  0.988386  0  0  0.303932  0.28184  0  1.003784  0
H  H3  1  0.65475445  0.33795921  0.27193554  1  0  0.100723  0  0.954345  0  0  0.105935  0  1.022453  0  0  0.109092  0  1.019938  0  0  0.111098  0.103735  0  1.024352  0
H  H4  1  0.34524321  0.66203856  0.72806324  1  0  0.10073  0  0.95438  0  0  0.105898  0  1.022527  0  0  0.109055  0  1.020011  0  0  0.111075  0.103697  0  1.024424  0
H  H5  1  0.77417419  0.89372818  0.03494294  1  0  0.111476  0  0.941362  0  0  0.124585  0  0.997457  0  0  0.127566  0  0.996599  0  0  0.109301  0.122429  0  0.998219  0
H  H6  1  0.22582519  0.10627433  0.96505766  1  0  0.111456  0  0.94137  0  0  0.124589  0  0.997438  0  0  0.127569  0  0.996583  0  0  0.109298  0.122432  0  0.998201  0
H  H7  1  0.58785640  0.11616395  0.14134234  1  0  0.094003  0  0.974118  0  0  0.102001  0  1.03843  0  0  0.105268  0  1.036054  0  0  0.099392  0.099585  0  1.040205  0
H  H8  1  0.41213299  0.88383265  0.85865860  1  0  0.093959  0  0.974136  0  0  0.101953  0  1.038451  0  0  0.10522  0  1.036077  0  0  0.099387  0.099542  0  1.040223  0
H  H9  1  0.37163106  0.07889803  0.31935106  1  0  0.092988  0  0.971248  0  0  0.100713  0  1.038068  0  0  0.103377  0  1.037311  0  0  0.088715  0.098763  0  1.038814  0
H  H10  1  0.62835611  0.92109974  0.68064990  1  0  0.092949  0  0.971331  0  0  0.100688  0  1.038133  0  0  0.103354  0  1.037371  0  0  0.088708  0.098738  0  1.03887  0
H  H11  1  0.35536580  0.81843853  0.39110233  1  0  0.108988  0  0.964651  0  0  0.116268  0  1.031888  0  0  0.119068  0  1.029852  0  0  0.094332  0.114191  0  1.033485  0
H  H12  1  0.64462840  0.18155688  0.60889706  1  0  0.108964  0  0.964678  0  0  0.116235  0  1.031917  0  0  0.119025  0  1.029892  0  0  0.094347  0.114159  0  1.033511  0
C  C13  1  0.65617411  0.45064288  0.23883061  1  0  0.001949  0  3.635911  0  0  -0.029939  0  3.900641  0  0  -0.027893  0  3.910703  0  0  0.056632  -0.031629  0  3.893716  0
C  C14  1  0.34382743  0.54935843  0.76116763  1  0  0.001957  0  3.635801  0  0  -0.029925  0  3.900524  0  0  -0.027881  0  3.910589  0  0  0.056616  -0.031614  0  3.893599  0
C  C15  1  0.78955677  0.46398286  0.13562744  1  0  0.514796  0  3.855291  0  0  0.471578  0  4.145784  0  0  0.498625  0  4.145916  0  0  0.225312  0.453652  0  4.144953  0
C  C16  1  0.21044701  0.53601729  0.86437232  1  0  0.514763  0  3.85542  0  0  0.471625  0  4.145801  0  0  0.498672  0  4.145937  0  0  0.225325  0.453689  0  4.144983  0
C  C17  1  0.67586672  0.73222381  0.15345864  1  0  0.199316  0  3.770497  0  0  0.186975  0  4.018088  0  0  0.194205  0  4.04028  0  0  0.112722  0.182156  0  4.003248  0
C  C18  1  0.32413792  0.26777871  0.84654203  1  0  0.199456  0  3.770101  0  0  0.187039  0  4.017816  0  0  0.194268  0  4.040013  0  0  0.112775  0.182225  0  4.002973  0
C  C19  1  0.68181593  0.87861814  0.11259382  1  0  -0.156545  0  3.72521  0  0  -0.178303  0  3.981811  0  0  -0.183638  0  4.002343  0  0  -0.092715  -0.174773  0  3.967888  0
C  C20  1  0.31818701  0.12137964  0.88740581  1  0  -0.156595  0  3.725266  0  0  -0.178351  0  3.981897  0  0  -0.183689  0  4.002435  0  0  -0.092731  -0.174821  0  3.967977  0
C  C21  1  0.57517387  0.00180225  0.17275739  1  0  -0.036567  0  3.7468  0  0  -0.052221  0  4.000659  0  0  -0.051951  0  4.021478  0  0  -0.08012  -0.05213  0  3.98637  0
C  C22  1  0.42482291  0.99820027  0.82724473  1  0  -0.036555  0  3.747049  0  0  -0.052196  0  4.000897  0  0  -0.051926  0  4.021718  0  0  -0.080162  -0.052108  0  3.986603  0
C  C23  1  0.45844218  0.98157958  0.27332059  1  0  -0.065203  0  3.754815  0  0  -0.081529  0  4.007095  0  0  -0.086589  0  4.031731  0  0  -0.093633  -0.078144  0  3.990315  0
C  C24  1  0.54155469  0.01841584  0.72668038  1  0  -0.065196  0  3.754805  0  0  -0.081539  0  4.007082  0  0  -0.086597  0  4.031715  0  0  -0.093609  -0.078153  0  3.990291  0
C  C25  1  0.44815167  0.83721370  0.31395649  1  0  -0.110943  0  3.703149  0  0  -0.131685  0  3.951719  0  0  -0.132879  0  3.973943  0  0  -0.084438  -0.130609  0  3.936634  0
C  C26  1  0.55184423  0.16278644  0.68604394  1  0  -0.11081  0  3.703157  0  0  -0.131539  0  3.951717  0  0  -0.132726  0  3.973947  0  0  -0.084412  -0.130463  0  3.93663  0
C  C27  1  0.55776613  0.71028266  0.25477580  1  0  0.109412  0  3.811014  0  0  0.111591  0  4.056939  0  0  0.108925  0  4.08369  0  0  0.090114  0.113  0  4.039034  0
C  C28  1  0.44223680  0.28971512  0.74522305  1  0  0.109297  0  3.810964  0  0  0.111505  0  4.056885  0  0  0.108835  0  4.083639  0  0  0.090077  0.112906  0  4.038987  0
N  N29  1  0.55111472  0.56603329  0.29448888  1  0  -0.273083  0  3.20252  0  0  -0.224389  0  3.469681  0  0  -0.235414  0  3.489376  0  0  -0.291  -0.216139  0  3.45584  0
N  N30  1  0.44888514  0.43396329  0.70550909  1  0  -0.273073  0  3.202306  0  0  -0.22437  0  3.469462  0  0  -0.235395  0  3.489159  0  0  -0.290967  -0.216115  0  3.455619  0
N  N31  1  0.78633083  0.60713119  0.09783248  1  0  -0.394135  0  3.35217  0  0  -0.335711  0  3.589043  0  0  -0.356378  0  3.598698  0  0  -0.368621  -0.321966  0  3.582451  0
N  N32  1  0.21367905  0.39287132  0.90216670  1  0  -0.39412  0  3.352177  0  0  -0.335731  0  3.589119  0  0  -0.356383  0  3.598736  0  0  -0.368623  -0.321985  0  3.58253  0
Cl  Cl33  1  0.95812689  0.72032631  0.55188879  1  0  -0.410229  0  1.088078  0  0  -0.346146  0  1.373386  0  0  -0.364637  0  1.355772  0  0  -0.22098  -0.333643  0  1.385538  0
Cl  Cl34  1  0.04186720  0.27967617  0.44811019  1  0  -0.410232  0  1.088028  0  0  -0.34616  0  1.37335  0  0  -0.364647  0  1.355726  0  0  -0.22098  -0.33366  0  1.385514  0
O  O35  1  0.90475395  0.35224272  0.08553702  1  0  -0.567557  0  1.945607  0  0  -0.520982  0  2.165209  0  0  -0.542928  0  2.159102  0  0  -0.305552  -0.505502  0  2.168734  0
O  O36  1  0.09525242  0.64775742  0.91446045  1  0  -0.567583  0  1.94565  0  0  -0.521035  0  2.165225  0  0  -0.542979  0  2.159119  0  0  -0.305574  -0.505551  0  2.168756  0
