# generated using pymatgen
data_CdH8C8(SN4)2
_symmetry_space_group_name_H-M   'P 1'
_cell_length_a   5.78345107
_cell_length_b   6.55631077
_cell_length_c   8.95380782
_cell_angle_alpha   105.40093928
_cell_angle_beta   95.41012891
_cell_angle_gamma   96.90886945
_symmetry_Int_Tables_number   1
_chemical_formula_structural   CdH8C8(SN4)2
_chemical_formula_sum   'Cd1 H8 C8 S2 N8'
_cell_volume   322.10458685
_cell_formula_units_Z   1
loop_
 _symmetry_equiv_pos_site_id
 _symmetry_equiv_pos_as_xyz
  1  'x, y, z'
loop_
 _atom_site_type_symbol
 _atom_site_label
 _atom_site_symmetry_multiplicity
 _atom_site_fract_x
 _atom_site_fract_y
 _atom_site_fract_z
 _atom_site_occupancy
 _atom_site_hle17_bader_spin_density
 _atom_site_hle17_ddec_charge
 _atom_site_hle17_ddec_spin_density
 _atom_site_hle17_ddec_sum_bond_order
 _atom_site_hle17_magmom
 _atom_site_hse06_10hf_bader_spin_density
 _atom_site_hse06_10hf_ddec_charge
 _atom_site_hse06_10hf_ddec_spin_density
 _atom_site_hse06_10hf_ddec_sum_bond_order
 _atom_site_hse06_10hf_magmom
 _atom_site_hse06_bader_spin_density
 _atom_site_hse06_ddec_charge
 _atom_site_hse06_ddec_spin_density
 _atom_site_hse06_ddec_sum_bond_order
 _atom_site_hse06_magmom
 _atom_site_pbe_bader_spin_density
 _atom_site_pbe_cm5_charge
 _atom_site_pbe_ddec_charge
 _atom_site_pbe_ddec_spin_density
 _atom_site_pbe_ddec_sum_bond_order
 _atom_site_pbe_magmom
Cd  Cd0  1  0.00001990  0.99999595  0.99999519  1  0  0.968067  0  2.00506  0  0  0.79957  0  2.464202  0  0  0.843042  0  2.427755  0  0  0.725253  0.769282  0  2.488709  0
H  H1  1  0.55963074  0.98189658  0.67475088  1  0  0.093072  0  0.962941  0  0  0.096495  0  1.036508  0  0  0.098733  0  1.033803  0  0  0.127219  0.094812  0  1.038465  0
H  H2  1  0.44034198  0.01807673  0.32525066  1  0  0.093242  0  0.963428  0  0  0.096627  0  1.037002  0  0  0.098878  0  1.034296  0  0  0.127232  0.094945  0  1.038957  0
H  H3  1  0.25166567  0.31557376  0.78167400  1  0  0.10334  0  0.957818  0  0  0.108258  0  1.032594  0  0  0.110569  0  1.029853  0  0  0.131949  0.106526  0  1.034502  0
H  H4  1  0.74830050  0.68443947  0.21832215  1  0  0.103352  0  0.957547  0  0  0.108276  0  1.03233  0  0  0.110572  0  1.029591  0  0  0.13197  0.106545  0  1.034238  0
H  H5  1  0.06501670  0.30654662  0.38010522  1  0  0.087314  0  0.959555  0  0  0.094354  0  1.039162  0  0  0.09513  0  1.039165  0  0  0.10687  0.09377  0  1.039137  0
H  H6  1  0.93495986  0.69344745  0.61989382  1  0  0.087251  0  0.959442  0  0  0.094328  0  1.039052  0  0  0.095105  0  1.039053  0  0  0.106856  0.093747  0  1.039027  0
H  H7  1  0.25351450  0.47138674  0.54996056  1  0  0.096845  0  0.912958  0  0  0.110879  0  0.977071  0  0  0.111779  0  0.976533  0  0  0.120026  0.110214  0  0.977414  0
H  H8  1  0.74645936  0.52861050  0.45003437  1  0  0.096843  0  0.912841  0  0  0.110869  0  0.977001  0  0  0.111767  0  0.976463  0  0  0.120028  0.110209  0  0.977346  0
C  C9  1  0.72193533  0.08132093  0.67064138  1  0  0.194364  0  3.714103  0  0  0.140263  0  4.007852  0  0  0.151801  0  4.020948  0  0  0.139355  0.132888  0  3.99857  0
C  C10  1  0.27808920  0.91870502  0.32934979  1  0  0.19425  0  3.713023  0  0  0.140194  0  4.006697  0  0  0.151711  0  4.019817  0  0  0.139353  0.132817  0  3.99742  0
C  C11  1  0.07309201  0.24840428  0.72732061  1  0  0.17736  0  3.634333  0  0  0.099485  0  3.897538  0  0  0.114101  0  3.909458  0  0  0.158894  0.09038  0  3.88895  0
C  C12  1  0.92690584  0.75160422  0.27268628  1  0  0.177365  0  3.634822  0  0  0.099438  0  3.898068  0  0  0.114065  0  3.909986  0  0  0.15892  0.090335  0  3.889475  0
C  C13  1  0.07024238  0.40812290  0.49990289  1  0  -0.029849  0  3.608367  0  0  -0.108524  0  3.869832  0  0  -0.105272  0  3.880232  0  0  -0.044833  -0.110245  0  3.862399  0
C  C14  1  0.92973507  0.59188390  0.50008966  1  0  -0.029675  0  3.608368  0  0  -0.108494  0  3.869914  0  0  -0.105242  0  3.880317  0  0  -0.04487  -0.110228  0  3.862487  0
C  C15  1  0.44905332  0.73967776  0.87566832  1  0  0.291006  0  4.025629  0  0  0.273819  0  4.328047  0  0  0.295003  0  4.342318  0  0  0.141431  0.259375  0  4.31812  0
C  C16  1  0.55099590  0.26032267  0.12433023  1  0  0.290902  0  4.025604  0  0  0.273732  0  4.327997  0  0  0.294916  0  4.342276  0  0  0.141242  0.25929  0  4.318073  0
S  S17  1  0.68644618  0.62860272  0.87410207  1  0  -0.328348  0  2.183882  0  0  -0.299223  0  2.516939  0  0  -0.315773  0  2.512226  0  0  -0.140929  -0.287587  0  2.519827  0
S  S18  1  0.31359596  0.37138487  0.12588901  1  0  -0.328338  0  2.183849  0  0  -0.299222  0  2.516906  0  0  -0.315718  0  2.512092  0  0  -0.14089  -0.287584  0  2.519795  0
N  N19  1  0.97290421  0.27926928  0.59488802  1  0  0.048916  0  3.55686  0  0  0.174096  0  3.736336  0  0  0.163363  0  3.760797  0  0  -0.132707  0.179766  0  3.722071  0
N  N20  1  0.02707086  0.72072476  0.40510642  1  0  0.048913  0  3.557506  0  0  0.174197  0  3.736879  0  0  0.163496  0  3.761281  0  0  -0.132657  0.179869  0  3.72262  0
N  N21  1  0.74820928  0.17351225  0.55664215  1  0  -0.275242  0  2.850773  0  0  -0.272474  0  3.119496  0  0  -0.281131  0  3.133701  0  0  -0.223231  -0.266394  0  3.109864  0
N  N22  1  0.25177200  0.82647230  0.44336669  1  0  -0.275335  0  2.850036  0  0  -0.272627  0  3.118719  0  0  -0.281293  0  3.132932  0  0  -0.223284  -0.266544  0  3.109087  0
N  N23  1  0.91819758  0.12280359  0.77809519  1  0  -0.407157  0  3.214529  0  0  -0.333895  0  3.499692  0  0  -0.356696  0  3.516278  0  0  -0.347616  -0.318378  0  3.487617  0
N  N24  1  0.08176811  0.87718890  0.22190599  1  0  -0.407099  0  3.214516  0  0  -0.333837  0  3.499665  0  0  -0.356634  0  3.516243  0  0  -0.347636  -0.318321  0  3.487598  0
N  N25  1  0.27440557  0.81676417  0.87177811  1  0  -0.535722  0  2.872192  0  0  -0.483345  0  3.147889  0  0  -0.503187  0  3.155078  0  0  -0.399049  -0.469797  0  3.142857  0
N  N26  1  0.72566680  0.18325559  0.12824165  1  0  -0.535636  0  2.872046  0  0  -0.483239  0  3.147639  0  0  -0.503088  0  3.154837  0  0  -0.398897  -0.469692  0  3.142613  0
