# generated using pymatgen
data_AgH9C7N3O2
_symmetry_space_group_name_H-M   'P 1'
_cell_length_a   8.15126428
_cell_length_b   9.33500840
_cell_length_c   12.16422551
_cell_angle_alpha   109.35750820
_cell_angle_beta   90.00070445
_cell_angle_gamma   89.99986889
_symmetry_Int_Tables_number   1
_chemical_formula_structural   AgH9C7N3O2
_chemical_formula_sum   'Ag4 H36 C28 N12 O8'
_cell_volume   873.27627971
_cell_formula_units_Z   4
loop_
 _symmetry_equiv_pos_site_id
 _symmetry_equiv_pos_as_xyz
  1  'x, y, z'
loop_
 _atom_site_type_symbol
 _atom_site_label
 _atom_site_symmetry_multiplicity
 _atom_site_fract_x
 _atom_site_fract_y
 _atom_site_fract_z
 _atom_site_occupancy
 _atom_site_hle17_bader_spin_density
 _atom_site_hle17_ddec_charge
 _atom_site_hle17_ddec_spin_density
 _atom_site_hle17_ddec_sum_bond_order
 _atom_site_hle17_magmom
 _atom_site_hse06_10hf_bader_spin_density
 _atom_site_hse06_10hf_ddec_charge
 _atom_site_hse06_10hf_ddec_spin_density
 _atom_site_hse06_10hf_ddec_sum_bond_order
 _atom_site_hse06_10hf_magmom
 _atom_site_hse06_bader_spin_density
 _atom_site_hse06_ddec_charge
 _atom_site_hse06_ddec_spin_density
 _atom_site_hse06_ddec_sum_bond_order
 _atom_site_hse06_magmom
 _atom_site_pbe_bader_spin_density
 _atom_site_pbe_cm5_charge
 _atom_site_pbe_ddec_charge
 _atom_site_pbe_ddec_spin_density
 _atom_site_pbe_ddec_sum_bond_order
 _atom_site_pbe_magmom
Ag  Ag0  1  0.52541250  0.00000007  0.74999836  1  0  0.514815  0  1.519974  0  0  0.381088  0  1.991908  0  0  0.415887  0  1.93488  0  0  0.41075  0.357192  0  2.031454  0
Ag  Ag1  1  0.47458130  0.99999578  0.25000305  1  0  0.514731  0  1.520072  0  0  0.380965  0  1.992023  0  0  0.415779  0  1.934968  0  0  0.410735  0.357071  0  2.031566  0
Ag  Ag2  1  0.82947853  0.00000745  0.25000355  1  0  0.498239  0  1.482826  0  0  0.353412  0  1.936715  0  0  0.388622  0  1.885683  0  0  0.468317  0.328719  0  1.971768  0
Ag  Ag3  1  0.17051773  0.99999867  0.74999811  1  0  0.498249  0  1.482785  0  0  0.353363  0  1.936666  0  0  0.388578  0  1.885635  0  0  0.468272  0.32867  0  1.971718  0
H  H4  1  0.74498966  0.71736263  0.74193484  1  0  0.072604  0  0.940969  0  0  0.086146  0  0.997468  0  0  0.088182  0  0.994806  0  0  0.115906  0.084559  0  0.999516  0
H  H5  1  0.74497936  0.28264594  0.75806666  1  0  0.072617  0  0.941095  0  0  0.086143  0  0.997602  0  0  0.088179  0  0.99494  0  0  0.115886  0.084555  0  0.99965  0
H  H6  1  0.25501519  0.28264691  0.25806690  1  0  0.072612  0  0.941089  0  0  0.086168  0  0.997568  0  0  0.088204  0  0.994905  0  0  0.115896  0.084582  0  0.999617  0
H  H7  1  0.25501813  0.71733971  0.24193123  1  0  0.072535  0  0.941031  0  0  0.086062  0  0.997543  0  0  0.088096  0  0.994885  0  0  0.115856  0.084477  0  0.999591  0
H  H8  1  0.94667238  0.60035008  0.84734049  1  0  0.121786  0  0.952848  0  0  0.136095  0  1.005361  0  0  0.13959  0  1.005304  0  0  0.107647  0.13361  0  1.005536  0
H  H9  1  0.94666105  0.39965312  0.65266454  1  0  0.121782  0  0.953043  0  0  0.136098  0  1.005543  0  0  0.139593  0  1.005485  0  0  0.107648  0.133612  0  1.005718  0
H  H10  1  0.05333737  0.39966397  0.15266409  1  0  0.12191  0  0.953011  0  0  0.136234  0  1.00548  0  0  0.139732  0  1.005418  0  0  0.107663  0.133748  0  1.005656  0
H  H11  1  0.05333152  0.60032914  0.34733164  1  0  0.121856  0  0.953021  0  0  0.136196  0  1.005485  0  0  0.139696  0  1.005423  0  0  0.107644  0.133711  0  1.005661  0
H  H12  1  0.10318044  0.81460095  0.13468620  1  0  0.122602  0  0.962182  0  0  0.138326  0  1.036557  0  0  0.140783  0  1.034397  0  0  0.094641  0.136484  0  1.038294  0
H  H13  1  0.10317115  0.18540119  0.36531972  1  0  0.122578  0  0.962285  0  0  0.13832  0  1.036644  0  0  0.140784  0  1.034463  0  0  0.09464  0.136477  0  1.038385  0
H  H14  1  0.89682440  0.18541761  0.86532121  1  0  0.122505  0  0.962442  0  0  0.138287  0  1.036753  0  0  0.140751  0  1.034576  0  0  0.094613  0.136444  0  1.03849  0
H  H15  1  0.89682511  0.81458565  0.63467520  1  0  0.122474  0  0.962395  0  0  0.138255  0  1.036722  0  0  0.140721  0  1.03454  0  0  0.094578  0.136413  0  1.038459  0
H  H16  1  0.94539848  0.68458413  0.13956423  1  0  0.136671  0  0.964373  0  0  0.154964  0  1.029249  0  0  0.157595  0  1.027945  0  0  0.097439  0.152988  0  1.030343  0
H  H17  1  0.94538752  0.31542430  0.36043957  1  0  0.136747  0  0.964251  0  0  0.154992  0  1.029171  0  0  0.157605  0  1.027883  0  0  0.097467  0.153014  0  1.030268  0
H  H18  1  0.05460637  0.31543110  0.86043819  1  0  0.136782  0  0.9643  0  0  0.154981  0  1.029246  0  0  0.15761  0  1.027943  0  0  0.097462  0.153006  0  1.030338  0
H  H19  1  0.05460752  0.68456704  0.63955900  1  0  0.13677  0  0.964271  0  0  0.154966  0  1.029238  0  0  0.157595  0  1.027933  0  0  0.09745  0.152991  0  1.030329  0
H  H20  1  0.09708739  0.63096745  0.02595121  1  0  0.122969  0  0.958061  0  0  0.145083  0  1.014148  0  0  0.147211  0  1.013501  0  0  0.095221  0.143639  0  1.014184  0
H  H21  1  0.09708204  0.36904042  0.47405289  1  0  0.123024  0  0.957999  0  0  0.145133  0  1.014081  0  0  0.147261  0  1.013432  0  0  0.095211  0.143687  0  1.01412  0
H  H22  1  0.90291746  0.36905346  0.97405271  1  0  0.12302  0  0.958085  0  0  0.145107  0  1.014179  0  0  0.147234  0  1.013533  0  0  0.095207  0.143663  0  1.014215  0
H  H23  1  0.90291421  0.63094526  0.52594338  1  0  0.123043  0  0.957999  0  0  0.145104  0  1.014138  0  0  0.147232  0  1.013493  0  0  0.095213  0.143659  0  1.014177  0
H  H24  1  0.45219995  0.56522676  0.90261181  1  0  0.107229  0  0.920541  0  0  0.127892  0  0.971175  0  0  0.129434  0  0.97148  0  0  0.102125  0.126966  0  0.970845  0
H  H25  1  0.45218138  0.43477319  0.59739241  1  0  0.107124  0  0.920637  0  0  0.127766  0  0.971278  0  0  0.129304  0  0.971591  0  0  0.102095  0.126841  0  0.970946  0
H  H26  1  0.54782084  0.43477034  0.09738417  1  0  0.107056  0  0.920545  0  0  0.127745  0  0.971183  0  0  0.129283  0  0.971496  0  0  0.102054  0.126822  0  0.970852  0
H  H27  1  0.54781120  0.56522141  0.40261525  1  0  0.107088  0  0.920567  0  0  0.127757  0  0.971235  0  0  0.129297  0  0.971543  0  0  0.102068  0.126832  0  0.970904  0
H  H28  1  0.31299914  0.52000296  0.99511969  1  0  0.087955  0  0.952991  0  0  0.106626  0  1.013056  0  0  0.107608  0  1.013547  0  0  0.094832  0.106208  0  1.012128  0
H  H29  1  0.31298120  0.48001040  0.50488446  1  0  0.087909  0  0.952796  0  0  0.106507  0  1.012961  0  0  0.107486  0  1.013452  0  0  0.094824  0.106091  0  1.012033  0
H  H30  1  0.68702288  0.47999976  0.00488025  1  0  0.087941  0  0.952703  0  0  0.106605  0  1.012809  0  0  0.107585  0  1.013298  0  0  0.094863  0.106188  0  1.011884  0
H  H31  1  0.68701015  0.51997855  0.49512006  1  0  0.087843  0  0.952956  0  0  0.106513  0  1.01307  0  0  0.107491  0  1.013561  0  0  0.094809  0.106096  0  1.012143  0
H  H32  1  0.61458720  0.16881336  0.99627105  1  0  0.350799  0  0.912868  0  0  0.328853  0  0.979092  0  0  0.337547  0  0.972136  0  0  0.300928  0.322806  0  0.98376  0
H  H33  1  0.61458546  0.83119278  0.50372381  1  0  0.350787  0  0.912746  0  0  0.328782  0  0.979056  0  0  0.337476  0  0.972104  0  0  0.300886  0.322735  0  0.983722  0
H  H34  1  0.38540660  0.83120076  0.00372943  1  0  0.350759  0  0.912757  0  0  0.328758  0  0.979056  0  0  0.337451  0  0.972106  0  0  0.300918  0.322712  0  0.983718  0
H  H35  1  0.38541080  0.16878957  0.49626747  1  0  0.350822  0  0.912639  0  0  0.328779  0  0.979019  0  0  0.337475  0  0.972065  0  0  0.300919  0.322732  0  0.983684  0
H  H36  1  0.69344802  0.17960828  0.13491448  1  0  0.337724  0  0.940403  0  0  0.315478  0  1.013581  0  0  0.324493  0  1.004884  0  0  0.288462  0.309121  0  1.019589  0
H  H37  1  0.69345785  0.82039849  0.36509011  1  0  0.337762  0  0.940495  0  0  0.315507  0  1.013659  0  0  0.324521  0  1.004962  0  0  0.288483  0.309151  0  1.019667  0
H  H38  1  0.30654578  0.82040343  0.86509277  1  0  0.33776  0  0.940446  0  0  0.315482  0  1.013643  0  0  0.3245  0  1.004956  0  0  0.288445  0.309121  0  1.019661  0
H  H39  1  0.30654331  0.17958831  0.63490727  1  0  0.337705  0  0.940434  0  0  0.315455  0  1.013596  0  0  0.324472  0  1.004907  0  0  0.28848  0.309098  0  1.019605  0
C  C40  1  0.74722074  0.98469013  0.99688892  1  0  0.637965  0  3.804442  0  0  0.591299  0  4.071418  0  0  0.618582  0  4.08037  0  0  0.344183  0.573024  0  4.065113  0
C  C41  1  0.74721507  0.01532752  0.50311500  1  0  0.638049  0  3.804551  0  0  0.5914  0  4.071492  0  0  0.618691  0  4.080435  0  0  0.344272  0.573125  0  4.065188  0
C  C42  1  0.25277797  0.01533300  0.00311805  1  0  0.63807  0  3.804643  0  0  0.59136  0  4.071619  0  0  0.618651  0  4.080565  0  0  0.344218  0.573087  0  4.065315  0
C  C43  1  0.25278364  0.98466050  0.49687777  1  0  0.638048  0  3.80478  0  0  0.591308  0  4.071792  0  0  0.618603  0  4.080734  0  0  0.344131  0.573034  0  4.065488  0
C  C44  1  0.78002670  0.77495795  0.83259567  1  0  0.203114  0  3.768151  0  0  0.168765  0  4.027556  0  0  0.184633  0  4.040155  0  0  0.058333  0.15839  0  4.019132  0
C  C45  1  0.78003206  0.22505176  0.66740971  1  0  0.203127  0  3.768266  0  0  0.168797  0  4.027673  0  0  0.184665  0  4.040275  0  0  0.058451  0.15842  0  4.019251  0
C  C46  1  0.21996711  0.22506293  0.16740988  1  0  0.203256  0  3.768072  0  0  0.168904  0  4.027474  0  0  0.18477  0  4.040079  0  0  0.058566  0.158526  0  4.019056  0
C  C47  1  0.21995806  0.77493618  0.33258797  1  0  0.203494  0  3.768118  0  0  0.169171  0  4.027517  0  0  0.185039  0  4.040118  0  0  0.058652  0.158791  0  4.019101  0
C  C48  1  0.88673347  0.70839132  0.89082905  1  0  -0.288083  0  3.719869  0  0  -0.304538  0  3.970531  0  0  -0.320994  0  3.991685  0  0  -0.114996  -0.294069  0  3.956173  0
C  C49  1  0.88672777  0.29161749  0.60917450  1  0  -0.288082  0  3.720304  0  0  -0.304567  0  3.970937  0  0  -0.321017  0  3.992082  0  0  -0.114941  -0.294099  0  3.956579  0
C  C50  1  0.11326524  0.29162391  0.10917337  1  0  -0.28836  0  3.720201  0  0  -0.304766  0  3.970855  0  0  -0.321225  0  3.992014  0  0  -0.115034  -0.294297  0  3.956501  0
C  C51  1  0.11326972  0.70836934  0.39082124  1  0  -0.288281  0  3.720317  0  0  -0.304775  0  3.970943  0  0  -0.321235  0  3.992097  0  0  -0.115005  -0.294305  0  3.956589  0
C  C52  1  0.91445347  0.78671412  0.00861029  1  0  0.392711  0  3.727264  0  0  0.388225  0  3.97204  0  0  0.405434  0  3.989433  0  0  0.132213  0.376814  0  3.959676  0
C  C53  1  0.91445255  0.21329427  0.49139244  1  0  0.392685  0  3.727126  0  0  0.388241  0  3.971853  0  0  0.405452  0  3.98924  0  0  0.132165  0.376832  0  3.959488  0
C  C54  1  0.08554892  0.21329774  0.99138960  1  0  0.392925  0  3.726883  0  0  0.388264  0  3.971882  0  0  0.405471  0  3.989275  0  0  0.132184  0.376857  0  3.959519  0
C  C55  1  0.08554493  0.78669372  0.50860197  1  0  0.392734  0  3.727013  0  0  0.388249  0  3.971757  0  0  0.405459  0  3.989148  0  0  0.132154  0.376839  0  3.959394  0
C  C56  1  0.02197304  0.72466846  0.08095454  1  0  -0.407351  0  3.710977  0  0  -0.491262  0  3.95229  0  0  -0.49628  0  3.957204  0  0  -0.248001  -0.487398  0  3.9483  0
C  C57  1  0.02196817  0.27534042  0.41904839  1  0  -0.407423  0  3.710934  0  0  -0.491319  0  3.952214  0  0  -0.496319  0  3.957147  0  0  -0.247979  -0.487457  0  3.948228  0
C  C58  1  0.97803181  0.27535128  0.91905072  1  0  -0.407494  0  3.711005  0  0  -0.491308  0  3.95235  0  0  -0.496321  0  3.957258  0  0  -0.247957  -0.487445  0  3.94836  0
C  C59  1  0.97802932  0.72464871  0.58094632  1  0  -0.407346  0  3.710894  0  0  -0.491197  0  3.952177  0  0  -0.496209  0  3.957085  0  0  -0.247906  -0.487333  0  3.948187  0
C  C60  1  0.41764334  0.32868448  0.86709853  1  0  0.686976  0  3.863428  0  0  0.636633  0  4.164161  0  0  0.669562  0  4.160312  0  0  0.199259  0.614135  0  4.166102  0
C  C61  1  0.41764073  0.67132913  0.63290326  1  0  0.686841  0  3.863614  0  0  0.636457  0  4.164386  0  0  0.66938  0  4.16054  0  0  0.199161  0.613961  0  4.166325  0
C  C62  1  0.58237132  0.67131829  0.13289895  1  0  0.686643  0  3.863806  0  0  0.636259  0  4.164599  0  0  0.669187  0  4.160761  0  0  0.199114  0.613762  0  4.166538  0
C  C63  1  0.58235062  0.32866436  0.36710246  1  0  0.686419  0  3.864122  0  0  0.636012  0  4.164975  0  0  0.668933  0  4.161137  0  0  0.198859  0.613517  0  4.166915  0
C  C64  1  0.43379111  0.48907582  0.95383524  1  0  -0.236012  0  3.70053  0  0  -0.27737  0  3.954511  0  0  -0.282381  0  3.963991  0  0  -0.170029  -0.27389  0  3.947532  0
C  C65  1  0.43378243  0.51092188  0.54616495  1  0  -0.235688  0  3.700119  0  0  -0.276933  0  3.954088  0  0  -0.281935  0  3.963566  0  0  -0.169935  -0.273455  0  3.947105  0
C  C66  1  0.56622232  0.51092472  0.04615919  1  0  -0.235568  0  3.700042  0  0  -0.276955  0  3.954093  0  0  -0.281963  0  3.963575  0  0  -0.169955  -0.273482  0  3.947118  0
C  C67  1  0.56621137  0.48906707  0.45383958  1  0  -0.235537  0  3.700291  0  0  -0.276958  0  3.954396  0  0  -0.281965  0  3.96388  0  0  -0.169886  -0.273482  0  3.947414  0
N  N68  1  0.68491364  0.12317852  0.04648295  1  0  -0.692106  0  3.098609  0  0  -0.651954  0  3.337339  0  0  -0.67568  0  3.332389  0  0  -0.567165  -0.635545  0  3.340152  0
N  N69  1  0.68491758  0.87683182  0.45351264  1  0  -0.692324  0  3.09883  0  0  -0.65208  0  3.33757  0  0  -0.675816  0  3.332625  0  0  -0.567244  -0.635672  0  3.340387  0
N  N70  1  0.31507893  0.87684013  0.95351955  1  0  -0.692248  0  3.098814  0  0  -0.652006  0  3.337638  0  0  -0.675732  0  3.332662  0  0  -0.567204  -0.6356  0  3.340466  0
N  N71  1  0.31507990  0.12314712  0.54647773  1  0  -0.692193  0  3.098797  0  0  -0.651901  0  3.337551  0  0  -0.675644  0  3.332614  0  0  -0.567189  -0.635492  0  3.340359  0
N  N72  1  0.71394887  0.91164992  0.88225465  1  0  -0.456592  0  3.095434  0  0  -0.39636  0  3.380355  0  0  -0.419353  0  3.388421  0  0  -0.338445  -0.381296  0  3.375258  0
N  N73  1  0.71394634  0.08836090  0.61774473  1  0  -0.456494  0  3.095142  0  0  -0.396311  0  3.380105  0  0  -0.419308  0  3.388171  0  0  -0.338521  -0.381247  0  3.375007  0
N  N74  1  0.28604861  0.08836983  0.11774979  1  0  -0.456594  0  3.095004  0  0  -0.396393  0  3.380008  0  0  -0.419392  0  3.388074  0  0  -0.338553  -0.381329  0  3.374914  0
N  N75  1  0.28605483  0.91162033  0.38224543  1  0  -0.456692  0  3.095167  0  0  -0.396493  0  3.380183  0  0  -0.419493  0  3.388245  0  0  -0.338586  -0.381431  0  3.375092  0
N  N76  1  0.84158901  0.92181849  0.06240224  1  0  -0.503887  0  3.177625  0  0  -0.412052  0  3.445411  0  0  -0.441726  0  3.45748  0  0  -0.362289  -0.392162  0  3.436865  0
N  N77  1  0.84158379  0.07818859  0.43760200  1  0  -0.503839  0  3.177539  0  0  -0.412005  0  3.445248  0  0  -0.441683  0  3.457314  0  0  -0.362324  -0.392117  0  3.436703  0
N  N78  1  0.15841583  0.07819558  0.93760151  1  0  -0.503903  0  3.177435  0  0  -0.411948  0  3.445208  0  0  -0.441626  0  3.457278  0  0  -0.362297  -0.392059  0  3.436661  0
N  N79  1  0.15841369  0.92179938  0.56239404  1  0  -0.50401  0  3.177474  0  0  -0.412083  0  3.445199  0  0  -0.441757  0  3.457246  0  0  -0.362268  -0.392192  0  3.436652  0
O  O80  1  0.31430161  0.30584496  0.78602973  1  0  -0.658162  0  1.969861  0  0  -0.600918  0  2.203273  0  0  -0.626213  0  2.192922  0  0  -0.334815  -0.583167  0  2.209581  0
O  O81  1  0.31430778  0.69416616  0.71397220  1  0  -0.658259  0  1.969871  0  0  -0.600975  0  2.203303  0  0  -0.626276  0  2.192955  0  0  -0.334863  -0.583224  0  2.209613  0
O  O82  1  0.68571673  0.69415783  0.21396694  1  0  -0.658048  0  1.970122  0  0  -0.600795  0  2.203562  0  0  -0.626088  0  2.193216  0  0  -0.334762  -0.583038  0  2.209854  0
O  O83  1  0.68567744  0.30583081  0.28603033  1  0  -0.658073  0  1.969952  0  0  -0.600803  0  2.2034  0  0  -0.626097  0  2.193048  0  0  -0.33474  -0.583053  0  2.209709  0
O  O84  1  0.51167444  0.22645060  0.88316423  1  0  -0.645563  0  2.115718  0  0  -0.557269  0  2.377997  0  0  -0.590378  0  2.369236  0  0  -0.335007  -0.534258  0  2.383349  0
O  O85  1  0.51168229  0.77354603  0.61684043  1  0  -0.645432  0  2.115977  0  0  -0.557146  0  2.378332  0  0  -0.590247  0  2.369567  0  0  -0.334908  -0.534135  0  2.383683  0
O  O86  1  0.48831445  0.77354516  0.11684210  1  0  -0.64539  0  2.115602  0  0  -0.557078  0  2.377918  0  0  -0.590183  0  2.369159  0  0  -0.334925  -0.534066  0  2.383265  0
O  O87  1  0.48831396  0.22644637  0.38316254  1  0  -0.645212  0  2.116315  0  0  -0.556817  0  2.378548  0  0  -0.58992  0  2.369793  0  0  -0.334743  -0.533806  0  2.383895  0
