# generated using pymatgen
data_ZnH8C10(SeN3)2
_symmetry_space_group_name_H-M   'P 1'
_cell_length_a   8.94671719
_cell_length_b   9.24035673
_cell_length_c   9.44633480
_cell_angle_alpha   119.26470329
_cell_angle_beta   89.99951652
_cell_angle_gamma   90.00028736
_symmetry_Int_Tables_number   1
_chemical_formula_structural   ZnH8C10(SeN3)2
_chemical_formula_sum   'Zn2 H16 C20 Se4 N12'
_cell_volume   681.26612697
_cell_formula_units_Z   2
loop_
 _symmetry_equiv_pos_site_id
 _symmetry_equiv_pos_as_xyz
  1  'x, y, z'
loop_
 _atom_site_type_symbol
 _atom_site_label
 _atom_site_symmetry_multiplicity
 _atom_site_fract_x
 _atom_site_fract_y
 _atom_site_fract_z
 _atom_site_occupancy
 _atom_site_hle17_bader_spin_density
 _atom_site_hle17_ddec_charge
 _atom_site_hle17_ddec_spin_density
 _atom_site_hle17_ddec_sum_bond_order
 _atom_site_hle17_magmom
 _atom_site_hse06_10hf_bader_spin_density
 _atom_site_hse06_10hf_ddec_charge
 _atom_site_hse06_10hf_ddec_spin_density
 _atom_site_hse06_10hf_ddec_sum_bond_order
 _atom_site_hse06_10hf_magmom
 _atom_site_hse06_bader_spin_density
 _atom_site_hse06_ddec_charge
 _atom_site_hse06_ddec_spin_density
 _atom_site_hse06_ddec_sum_bond_order
 _atom_site_hse06_magmom
 _atom_site_pbe_bader_spin_density
 _atom_site_pbe_cm5_charge
 _atom_site_pbe_ddec_charge
 _atom_site_pbe_ddec_spin_density
 _atom_site_pbe_ddec_sum_bond_order
 _atom_site_pbe_magmom
Zn  Zn0  1  0.50000035  0.49999887  0.00000194  1  0  0.928427  0  2.0013  0  0  0.732175  0  2.452492  0  0  0.776774  0  2.410545  0  0  0.707821  0.701732  0  2.48063  0
Zn  Zn1  1  0.00000116  0.00000035  0.99999867  1  0  0.928468  0  2.001241  0  0  0.732242  0  2.452416  0  0  0.77685  0  2.410464  0  0  0.70783  0.701799  0  2.480557  0
H  H2  1  0.25002898  0.20870106  0.91747120  1  0  0.071869  0  0.944013  0  0  0.077048  0  1.012388  0  0  0.078024  0  1.010815  0  0  0.126964  0.076206  0  1.013558  0
H  H3  1  0.75002187  0.29129841  0.08252964  1  0  0.071812  0  0.944019  0  0  0.076998  0  1.012375  0  0  0.077971  0  1.010804  0  0  0.126966  0.076155  0  1.013545  0
H  H4  1  0.74997512  0.79129951  0.08253148  1  0  0.071812  0  0.944067  0  0  0.077003  0  1.012423  0  0  0.077977  0  1.010852  0  0  0.126955  0.076161  0  1.013592  0
H  H5  1  0.24997440  0.70870092  0.91747139  1  0  0.071807  0  0.943999  0  0  0.076997  0  1.012361  0  0  0.077972  0  1.01079  0  0  0.126955  0.076155  0  1.01353  0
H  H6  1  0.44875446  0.55494065  0.34795575  1  0  0.072368  0  0.983394  0  0  0.076509  0  1.057212  0  0  0.079286  0  1.053386  0  0  0.108118  0.074415  0  1.059994  0
H  H7  1  0.94875429  0.94505999  0.65204350  1  0  0.072374  0  0.983472  0  0  0.076517  0  1.057302  0  0  0.079296  0  1.053474  0  0  0.108121  0.074433  0  1.060058  0
H  H8  1  0.05098106  0.29218192  0.34764420  1  0  0.072808  0  0.983284  0  0  0.076783  0  1.057183  0  0  0.079571  0  1.053347  0  0  0.108178  0.074679  0  1.059974  0
H  H9  1  0.55097964  0.20781487  0.65235589  1  0  0.072713  0  0.983295  0  0  0.076688  0  1.057192  0  0  0.079475  0  1.053357  0  0  0.108157  0.074588  0  1.059974  0
H  H10  1  0.55124293  0.44506240  0.65204706  1  0  0.072398  0  0.983327  0  0  0.07651  0  1.057161  0  0  0.079287  0  1.053336  0  0  0.108152  0.074414  0  1.059947  0
H  H11  1  0.05124421  0.05494058  0.34795918  1  0  0.072432  0  0.983387  0  0  0.076553  0  1.057226  0  0  0.07933  0  1.053402  0  0  0.108146  0.07447  0  1.059977  0
H  H12  1  0.94901634  0.70781493  0.65235246  1  0  0.0728  0  0.983282  0  0  0.076747  0  1.057195  0  0  0.079535  0  1.05336  0  0  0.108187  0.074645  0  1.059982  0
H  H13  1  0.44902222  0.79218322  0.34764454  1  0  0.072793  0  0.983252  0  0  0.076793  0  1.057111  0  0  0.079582  0  1.053275  0  0  0.108193  0.074681  0  1.059926  0
H  H14  1  0.24986391  0.50336907  0.50782845  1  0  0.118682  0  0.955183  0  0  0.123003  0  1.020377  0  0  0.125937  0  1.020721  0  0  0.105931  0.120878  0  1.020375  0
H  H15  1  0.74986207  0.99663261  0.49217079  1  0  0.118703  0  0.955127  0  0  0.123029  0  1.020318  0  0  0.125963  0  1.020661  0  0  0.105931  0.120903  0  1.020319  0
H  H16  1  0.75013237  0.49663150  0.49217212  1  0  0.118702  0  0.955164  0  0  0.123027  0  1.020353  0  0  0.125959  0  1.0207  0  0  0.105938  0.120901  0  1.020353  0
H  H17  1  0.25013755  0.00336673  0.50782813  1  0  0.118684  0  0.955141  0  0  0.123004  0  1.020351  0  0  0.125938  0  1.020694  0  0  0.105928  0.120879  0  1.02035  0
C  C18  1  0.23498440  0.37783315  0.75552826  1  0  0.230898  0  3.883932  0  0  0.21963  0  4.190452  0  0  0.245442  0  4.199736  0  0  0.098999  0.202107  0  4.183347  0
C  C19  1  0.73497832  0.12217127  0.24447613  1  0  0.230951  0  3.883779  0  0  0.219682  0  4.19032  0  0  0.245497  0  4.199606  0  0  0.099024  0.202157  0  4.183213  0
C  C20  1  0.26502801  0.87784173  0.75551980  1  0  0.230829  0  3.883717  0  0  0.219564  0  4.190254  0  0  0.245382  0  4.199549  0  0  0.098999  0.202038  0  4.183143  0
C  C21  1  0.76502306  0.62216742  0.24447443  1  0  0.230957  0  3.883762  0  0  0.219689  0  4.190307  0  0  0.245507  0  4.199593  0  0  0.099031  0.202166  0  4.183195  0
C  C22  1  0.24998605  0.27464817  0.04959478  1  0  0.319245  0  3.650967  0  0  0.263063  0  3.922216  0  0  0.279147  0  3.934611  0  0  0.187389  0.252562  0  3.9138  0
C  C23  1  0.74998097  0.22534882  0.95040487  1  0  0.319297  0  3.651014  0  0  0.263156  0  3.922251  0  0  0.279241  0  3.934648  0  0  0.187422  0.252654  0  3.913839  0
C  C24  1  0.75001917  0.72534992  0.95040566  1  0  0.319305  0  3.651043  0  0  0.263147  0  3.922311  0  0  0.279231  0  3.934708  0  0  0.187441  0.252645  0  3.913896  0
C  C25  1  0.25001642  0.77464927  0.04959556  1  0  0.31938  0  3.650956  0  0  0.263198  0  3.922223  0  0  0.279283  0  3.934619  0  0  0.187468  0.252696  0  3.913808  0
C  C26  1  0.35789212  0.46755927  0.28794779  1  0  0.176799  0  3.691925  0  0  0.139531  0  3.944135  0  0  0.151611  0  3.958083  0  0  0.060382  0.131717  0  3.934833  0
C  C27  1  0.85789596  0.03243783  0.71205105  1  0  0.176862  0  3.691805  0  0  0.139572  0  3.944041  0  0  0.151655  0  3.957985  0  0  0.060418  0.131757  0  3.93475  0
C  C28  1  0.14192760  0.31967925  0.28778363  1  0  0.175748  0  3.693014  0  0  0.138533  0  3.94532  0  0  0.150604  0  3.959277  0  0  0.060124  0.130725  0  3.936012  0
C  C29  1  0.64192886  0.18031143  0.71221281  1  0  0.17586  0  3.693053  0  0  0.138663  0  3.945343  0  0  0.150732  0  3.959306  0  0  0.060153  0.130857  0  3.93603  0
C  C30  1  0.64210639  0.53244254  0.71205443  1  0  0.176778  0  3.691847  0  0  0.139553  0  3.944048  0  0  0.151635  0  3.957995  0  0  0.06035  0.131735  0  3.934749  0
C  C31  1  0.14210478  0.96756150  0.28794998  1  0  0.176704  0  3.691913  0  0  0.139469  0  3.94409  0  0  0.151549  0  3.958039  0  0  0.060358  0.131655  0  3.934801  0
C  C32  1  0.85807203  0.68031884  0.71221469  1  0  0.175769  0  3.692927  0  0  0.138612  0  3.945226  0  0  0.150682  0  3.959185  0  0  0.060155  0.130804  0  3.935917  0
C  C33  1  0.35807188  0.81968046  0.28778360  1  0  0.175768  0  3.692973  0  0  0.138554  0  3.945283  0  0  0.150621  0  3.959243  0  0  0.060124  0.130744  0  3.935966  0
C  C34  1  0.24990679  0.43746121  0.37577389  1  0  -0.165207  0  3.714591  0  0  -0.167912  0  3.958068  0  0  -0.179403  0  3.977878  0  0  -0.084054  -0.16093  0  3.945373  0
C  C35  1  0.74990486  0.06253701  0.62422635  1  0  -0.165329  0  3.714596  0  0  -0.168013  0  3.958045  0  0  -0.179506  0  3.977853  0  0  -0.0841  -0.161035  0  3.945356  0
C  C36  1  0.75009060  0.56254184  0.62422787  1  0  -0.165265  0  3.714588  0  0  -0.167985  0  3.958048  0  0  -0.179477  0  3.977858  0  0  -0.084097  -0.161004  0  3.945355  0
C  C37  1  0.25009476  0.93746107  0.37577408  1  0  -0.165234  0  3.714575  0  0  -0.167959  0  3.958057  0  0  -0.179449  0  3.977868  0  0  -0.084086  -0.160978  0  3.945365  0
Se  Se38  1  0.04730236  0.34388439  0.68716476  1  0  -0.286568  0  1.850665  0  0  -0.276937  0  2.1582  0  0  -0.29922  0  2.156146  0  0  -0.109835  -0.260681  0  2.158902  0
Se  Se39  1  0.54730257  0.15612232  0.31284012  1  0  -0.286434  0  1.850897  0  0  -0.276805  0  2.15843  0  0  -0.299087  0  2.156378  0  0  -0.109756  -0.260553  0  2.159143  0
Se  Se40  1  0.45269818  0.84387578  0.68715079  1  0  -0.286351  0  1.851053  0  0  -0.276723  0  2.158591  0  0  -0.299003  0  2.156541  0  0  -0.109721  -0.260479  0  2.159321  0
Se  Se41  1  0.95269615  0.65611867  0.31283594  1  0  -0.286451  0  1.85096  0  0  -0.276824  0  2.158493  0  0  -0.299108  0  2.156441  0  0  -0.109767  -0.260568  0  2.159192  0
N  N42  1  0.36025925  0.40177941  0.80360121  1  0  -0.542746  0  3.031957  0  0  -0.476527  0  3.322916  0  0  -0.497445  0  3.32373  0  0  -0.399469  -0.46209  0  3.321944  0
N  N43  1  0.86026465  0.09822514  0.19640117  1  0  -0.542946  0  3.031577  0  0  -0.476735  0  3.322575  0  0  -0.497659  0  3.323387  0  0  -0.399575  -0.462301  0  3.321608  0
N  N44  1  0.13973498  0.90177667  0.80359999  1  0  -0.542889  0  3.031419  0  0  -0.476674  0  3.322412  0  0  -0.497604  0  3.32323  0  0  -0.399566  -0.462236  0  3.32144  0
N  N45  1  0.63973479  0.59822117  0.19639618  1  0  -0.542908  0  3.031533  0  0  -0.476703  0  3.322549  0  0  -0.497626  0  3.32336  0  0  -0.399555  -0.462263  0  3.321578  0
N  N46  1  0.35376934  0.39251493  0.12468629  1  0  -0.354569  0  3.184291  0  0  -0.280052  0  3.452948  0  0  -0.301605  0  3.468439  0  0  -0.308446  -0.26588  0  3.442431  0
N  N47  1  0.85376431  0.10748588  0.87531648  1  0  -0.35458  0  3.184307  0  0  -0.280107  0  3.453028  0  0  -0.301663  0  3.468521  0  0  -0.308477  -0.265939  0  3.442514  0
N  N48  1  0.14613410  0.23171620  0.12453464  1  0  -0.353552  0  3.186612  0  0  -0.278754  0  3.455023  0  0  -0.300327  0  3.470542  0  0  -0.308202  -0.264564  0  3.444479  0
N  N49  1  0.64612880  0.26828068  0.87546473  1  0  -0.353517  0  3.186477  0  0  -0.278773  0  3.454949  0  0  -0.300348  0  3.470469  0  0  -0.308199  -0.264578  0  3.444392  0
N  N50  1  0.64623252  0.60748564  0.87531533  1  0  -0.354615  0  3.184329  0  0  -0.280125  0  3.453003  0  0  -0.30168  0  3.468497  0  0  -0.308479  -0.265954  0  3.442487  0
N  N51  1  0.14623308  0.89251469  0.12468621  1  0  -0.354555  0  3.184335  0  0  -0.280073  0  3.453035  0  0  -0.301629  0  3.468529  0  0  -0.308459  -0.265905  0  3.442522  0
N  N52  1  0.85386888  0.76828313  0.87546639  1  0  -0.353503  0  3.186528  0  0  -0.278759  0  3.454973  0  0  -0.300333  0  3.470495  0  0  -0.308221  -0.264565  0  3.444414  0
N  N53  1  0.35386860  0.73171493  0.12453451  1  0  -0.353584  0  3.186553  0  0  -0.278801  0  3.455002  0  0  -0.300374  0  3.470523  0  0  -0.308244  -0.264608  0  3.444456  0
