# generated using pymatgen
data_MnH10C15O7
_symmetry_space_group_name_H-M   'P 1'
_cell_length_a   6.96307147
_cell_length_b   7.17385730
_cell_length_c   13.85784111
_cell_angle_alpha   105.03764711
_cell_angle_beta   99.16848854
_cell_angle_gamma   89.99982402
_symmetry_Int_Tables_number   1
_chemical_formula_structural   MnH10C15O7
_chemical_formula_sum   'Mn2 H20 C30 O14'
_cell_volume   659.36138642
_cell_formula_units_Z   2
loop_
 _symmetry_equiv_pos_site_id
 _symmetry_equiv_pos_as_xyz
  1  'x, y, z'
loop_
 _atom_site_type_symbol
 _atom_site_label
 _atom_site_symmetry_multiplicity
 _atom_site_fract_x
 _atom_site_fract_y
 _atom_site_fract_z
 _atom_site_occupancy
 _atom_site_hle17_ddec_charge
 _atom_site_hle17_ddec_spin_density
 _atom_site_hle17_ddec_sum_bond_order
 _atom_site_hle17_magmom
 _atom_site_hse06_10hf_ddec_charge
 _atom_site_hse06_10hf_ddec_spin_density
 _atom_site_hse06_10hf_ddec_sum_bond_order
 _atom_site_hse06_10hf_magmom
 _atom_site_hse06_ddec_charge
 _atom_site_hse06_ddec_spin_density
 _atom_site_hse06_ddec_sum_bond_order
 _atom_site_hse06_magmom
 _atom_site_pbe_cm5_charge
 _atom_site_pbe_ddec_charge
 _atom_site_pbe_ddec_spin_density
 _atom_site_pbe_ddec_sum_bond_order
 _atom_site_pbe_magmom
Mn  Mn0  1  0.00000324  0.99999433  0.49999854  1  1.27247  -4.789042  1.684569  -4.688  1.125572  -4.70412  2.172093  -4.545  1.178256  -4.75509  2.10026  -4.61  0.601369  1.085635  -4.64544  2.225136  -4.474
Mn  Mn1  1  0.50000327  0.49999871  0.49999787  1  1.273504  4.790137  1.680139  4.689  1.124206  4.706643  2.167927  4.547  1.177514  4.75655  2.096122  4.611  0.600263  1.083329  4.650038  2.221033  4.479
H  H2  1  0.80445545  0.17840781  0.79111685  1  0.115747  0.000112  0.924594  0.0  0.125209  0.000195  0.985444  0.0  0.129107  0.000188  0.982319  0.0  0.113836  0.122292  0.000205  0.987784  0.0
H  H3  1  0.69625555  0.38711594  0.20870737  1  0.115716  -0.000114  0.92392  0.0  0.125509  -0.0002  0.984622  0.0  0.129436  -0.000191  0.981426  0.0  0.11377  0.122546  -0.000208  0.98705  0.0
H  H4  1  0.19555179  0.82159972  0.20889041  1  0.115771  0.000116  0.924466  0.0  0.1252  0.000195  0.985365  0.0  0.129097  0.000188  0.982243  0.0  0.113842  0.122283  0.000205  0.987707  0.0
H  H5  1  0.30375431  0.61288437  0.79129838  1  0.11569  -0.000123  0.923948  0.0  0.125491  -0.0002  0.984638  0.0  0.129405  -0.00019  0.98146  0.0  0.113763  0.122528  -0.000208  0.987061  0.0
H  H6  1  0.77949642  0.73245240  0.72270196  1  0.101708  -0.000329  0.956922  0.0  0.111733  -0.00032  1.017502  0.0  0.115173  -0.000334  1.014648  0.0  0.109039  0.109028  -0.0003  1.019814  0.0
H  H7  1  0.72044248  0.00981381  0.27749292  1  0.101888  0.000336  0.954606  0.0  0.112001  0.000311  1.015276  0.0  0.115455  0.000327  1.012405  0.0  0.109009  0.109275  0.000293  1.017562  0.0
H  H8  1  0.22048063  0.26753334  0.27729224  1  0.101693  -0.000328  0.956823  0.0  0.111725  -0.00032  1.017404  0.0  0.115165  -0.000334  1.014552  0.0  0.109032  0.109019  -0.0003  1.019717  0.0
H  H9  1  0.27954259  0.99019074  0.72250440  1  0.101939  0.000332  0.954659  0.0  0.112047  0.000311  1.015308  0.0  0.115513  0.000327  1.012436  0.0  0.109017  0.109323  0.000293  1.017593  0.0
H  H10  1  0.75564387  0.89911475  0.90130733  1  0.119794  0.0  0.981081  0.0  0.124927  -3.3e-05  1.045083  0.0  0.129638  -2.3e-05  1.041764  0.0  0.10645  0.121443  -4.5e-05  1.047734  0.0
H  H11  1  0.74454711  0.99805748  0.09899210  1  0.120524  1.5e-05  0.979645  0.0  0.125761  3.4e-05  1.043477  0.0  0.130489  2.4e-05  1.040172  0.0  0.106927  0.122281  4.4e-05  1.046087  0.0
H  H12  1  0.24433776  0.10087967  0.09868404  1  0.11984  -2e-06  0.980994  0.0  0.124986  -3.3e-05  1.044987  0.0  0.129701  -2.3e-05  1.04166  0.0  0.106464  0.121502  -4.5e-05  1.04764  0.0
H  H13  1  0.25544092  0.00194852  0.90100563  1  0.120459  1.5e-05  0.979638  0.0  0.125717  3.4e-05  1.043456  0.0  0.130446  2.4e-05  1.040152  0.0  0.106892  0.122236  4.4e-05  1.046067  0.0
H  H14  1  0.05929289  0.31531572  0.41153257  1  0.428498  -0.000978  0.857206  -0.001  0.401016  -0.00167  0.920854  -0.002  0.410772  -0.001384  0.906706  -0.002  0.30329  0.394156  -0.001924  0.930752  -0.003
H  H15  1  0.43971575  0.90366947  0.58805374  1  0.428873  0.000991  0.857134  0.001  0.401327  0.001682  0.920591  0.002  0.411088  0.001396  0.906438  0.002  0.303523  0.394444  0.001933  0.930513  0.003
H  H16  1  0.94070783  0.68467878  0.58846597  1  0.428478  -0.000976  0.857209  -0.001  0.400999  -0.00167  0.920873  -0.002  0.410754  -0.001385  0.906728  -0.002  0.303308  0.394139  -0.001924  0.930771  -0.003
H  H17  1  0.56028359  0.09632647  0.41194562  1  0.428898  0.000989  0.857148  0.001  0.401388  0.001681  0.920491  0.002  0.411145  0.001396  0.906344  0.002  0.303566  0.394506  0.001932  0.930411  0.003
H  H18  1  0.88429595  0.32800607  0.47079664  1  0.410919  -0.000674  0.900464  0.0  0.377268  -0.001262  0.971847  -0.001  0.388808  -0.001092  0.955055  -0.001  0.294107  0.369081  -0.001399  0.983715  -0.001
H  H19  1  0.61561601  0.85722919  0.52946875  1  0.410915  0.000682  0.899806  0.0  0.377796  0.001281  0.970709  0.001  0.389343  0.001109  0.953897  0.001  0.293764  0.369565  0.001417  0.98265  0.001
H  H20  1  0.11570491  0.67199132  0.52920302  1  0.410901  -0.000672  0.900473  0.0  0.377249  -0.001263  0.971866  -0.001  0.388792  -0.001093  0.95507  -0.001  0.294093  0.369058  -0.001399  0.98374  -0.001
H  H21  1  0.38438501  0.14277253  0.47053151  1  0.410959  0.000682  0.899751  0.0  0.377848  0.001281  0.970633  0.001  0.389395  0.001109  0.953822  0.001  0.293773  0.369617  0.001418  0.982576  0.001
C  C22  1  0.79281776  0.33452846  0.81540858  1  -0.035988  0.000991  3.679733  0.001  -0.074577  0.000763  3.936604  0.0  -0.070829  0.000598  3.9551  0.0  -0.06199  -0.076765  0.001282  3.924052  0.001
C  C23  1  0.70796082  0.51902699  0.18453927  1  -0.036329  -0.00111  3.680484  -0.001  -0.075382  -0.000944  3.938222  -0.001  -0.071588  -0.000701  3.956628  0.0  -0.062047  -0.077615  -0.001536  3.925753  -0.001
C  C24  1  0.20718786  0.66547761  0.18459476  1  -0.036051  0.000943  3.679667  0.001  -0.074631  0.000764  3.936573  0.0  -0.070883  0.000599  3.955068  0.0  -0.062025  -0.076821  0.001282  3.924024  0.001
C  C25  1  0.29205339  0.48097623  0.81546359  1  -0.036344  -0.001104  3.680408  -0.001  -0.075393  -0.000946  3.938155  -0.001  -0.07159  -0.0007  3.95657  0.0  -0.062063  -0.077624  -0.001536  3.925681  -0.001
C  C26  1  0.79910631  0.44704840  0.74638572  1  -0.092198  -0.001815  3.757679  -0.002  -0.070647  -0.001383  4.004399  -0.001  -0.082116  -0.001206  4.029073  -0.001  -0.018521  -0.063353  -0.001905  3.988388  -0.002
C  C27  1  0.70140081  0.70057547  0.25365489  1  -0.091507  0.002055  3.756226  0.002  -0.070071  0.001607  4.003103  0.001  -0.081487  0.001391  4.02768  0.001  -0.018342  -0.062838  0.002083  3.987206  0.002
C  C28  1  0.20089452  0.55294899  0.25361322  1  -0.092008  -0.001793  3.757603  -0.001  -0.070437  -0.001384  4.004305  -0.001  -0.081907  -0.001209  4.028984  -0.001  -0.018412  -0.063143  -0.001905  3.988293  -0.002
C  C29  1  0.29860177  0.29943060  0.74634390  1  -0.091572  0.002064  3.756485  0.002  -0.070147  0.001608  4.003342  0.001  -0.081563  0.001389  4.027915  0.001  -0.018344  -0.062913  0.002082  3.987447  0.002
C  C30  1  0.78185917  0.64814492  0.77785978  1  -0.020574  0.000412  3.664285  0.001  -0.049694  -2.2e-05  3.917532  0.0  -0.046295  -0.000142  3.935612  0.0  -0.063412  -0.051958  0.000439  3.905664  0.001
C  C31  1  0.71843514  0.87031804  0.22229316  1  -0.02223  -0.000435  3.661363  -0.001  -0.051212  3e-05  3.914501  0.0  -0.047877  0.000154  3.932644  0.0  -0.064044  -0.053387  -0.000491  3.902602  -0.001
C  C32  1  0.21813112  0.35184520  0.22213525  1  -0.020574  0.000401  3.664312  0.001  -0.049705  -2.3e-05  3.917575  0.0  -0.04631  -0.000143  3.935661  0.0  -0.063377  -0.051967  0.000438  3.905705  0.001
C  C33  1  0.28156026  0.12969089  0.77770478  1  -0.02229  -0.000426  3.661691  -0.001  -0.051248  2.7e-05  3.914787  0.0  -0.047923  0.000156  3.932938  0.0  -0.064054  -0.053426  -0.000491  3.902885  -0.001
C  C34  1  0.76503239  0.74261938  0.87778800  1  -0.092176  -0.000827  3.669913  -0.001  -0.110458  -0.000558  3.920793  -0.001  -0.115709  -0.000479  3.939413  0.0  -0.078482  -0.106901  -0.000918  3.908306  -0.001
C  C35  1  0.73530202  0.86499370  0.12241611  1  -0.092658  0.00064  3.669263  0.001  -0.110938  0.000266  3.92008  0.0  -0.116219  0.000298  3.938726  0.0  -0.079045  -0.107394  0.000416  3.907607  0.0
C  C36  1  0.23495389  0.25737795  0.12220988  1  -0.092237  -0.000815  3.670037  -0.001  -0.110551  -0.000559  3.92086  -0.001  -0.115805  -0.000478  3.939482  0.0  -0.078492  -0.106989  -0.000918  3.908379  -0.001
C  C37  1  0.26469189  0.13501377  0.87758225  1  -0.092598  0.000639  3.669389  0.001  -0.110897  0.000267  3.920202  0.0  -0.116182  0.000297  3.938857  0.0  -0.07902  -0.107349  0.000416  3.907722  0.0
C  C38  1  0.76010127  0.63110035  0.94600619  1  0.055644  0.000727  3.743098  0.001  0.059807  0.0005  3.980009  0.0  0.062658  0.000311  4.00241  0.0  0.006825  0.057906  0.001071  3.964748  0.001
C  C39  1  0.74057131  0.68518918  0.05411007  1  0.055811  -0.000591  3.742339  -0.001  0.060123  -0.000385  3.979451  0.0  0.062947  -0.000204  4.001854  0.0  0.007436  0.058209  -0.001047  3.964231  -0.001
C  C40  1  0.23989274  0.36890568  0.05399702  1  0.055665  0.000713  3.7433  0.001  0.059922  0.000502  3.980098  0.0  0.062774  0.00031  4.002498  0.0  0.006796  0.05801  0.00107  3.964859  0.001
C  C41  1  0.25942670  0.31480820  0.94589155  1  0.055732  -0.000595  3.742375  -0.001  0.060022  -0.000385  3.979476  0.0  0.062848  -0.000204  4.001879  0.0  0.007418  0.05811  -0.001047  3.964255  -0.001
C  C42  1  0.77051826  0.42789176  0.91355723  1  -0.105114  -0.000437  3.78424  0.0  -0.092086  -0.000146  4.027749  0.0  -0.10185  -0.000147  4.052648  0.0  -0.023673  -0.085542  -0.000421  4.010887  0.0
C  C43  1  0.73039091  0.51436206  0.08645824  1  -0.103886  0.000604  3.785198  0.001  -0.091484  0.000342  4.029666  0.0  -0.101226  0.000309  4.054589  0.0  -0.023135  -0.084923  0.000662  4.012768  0.001
C  C44  1  0.22948113  0.57210418  0.08644358  1  -0.105154  -0.000411  3.784328  0.0  -0.092152  -0.000148  4.027838  0.0  -0.101924  -0.000148  4.052733  0.0  -0.023664  -0.085608  -0.000421  4.010986  0.0
C  C45  1  0.26962043  0.48564115  0.91354513  1  -0.103707  0.000611  3.784942  0.001  -0.091302  0.000343  4.029414  0.0  -0.101055  0.000307  4.054333  0.0  -0.023085  -0.084739  0.000662  4.012506  0.001
C  C46  1  0.75041726  0.34581282  0.99998639  1  0.400317  -2.1e-05  3.762498  0.0  0.373132  -1.4e-05  4.035535  0.0  0.396334  -1.5e-05  4.038132  0.0  0.163879  0.357269  -1e-05  4.033761  0.0
C  C47  1  0.24959872  0.65419763  0.00001830  1  0.400142  -2e-06  3.763139  0.0  0.372909  -1.6e-05  4.03627  0.0  0.396138  -1.2e-05  4.038834  0.0  0.163786  0.357053  -1e-05  4.034486  0.0
C  C48  1  0.82174107  0.35224886  0.64013147  1  0.672825  0.001966  3.84413  0.001  0.614075  0.003389  4.141282  0.002  0.651432  0.001784  4.132751  0.001  0.227276  0.587447  0.005616  4.146793  0.004
C  C49  1  0.67798198  0.71196239  0.35974593  1  0.673654  -0.002416  3.841733  -0.002  0.615188  -0.004015  4.138464  -0.003  0.652575  -0.002169  4.12978  -0.001  0.227264  0.588474  -0.006529  4.144177  -0.005
C  C50  1  0.17825678  0.64774563  0.35986830  1  0.672957  0.001966  3.843896  0.001  0.614139  0.003385  4.141122  0.002  0.651502  0.001782  4.132584  0.001  0.227204  0.587509  0.005614  4.146627  0.004
C  C51  1  0.32201786  0.28804511  0.64025647  1  0.673649  -0.002425  3.841689  -0.002  0.615235  -0.004014  4.138369  -0.003  0.652624  -0.002169  4.129682  -0.001  0.227232  0.588522  -0.006527  4.144085  -0.005
O  O52  1  0.75019167  0.17428675  0.99996941  1  -0.439749  -4e-06  1.987308  0.0  -0.387929  -1.1e-05  2.191763  0.0  -0.406353  -1.5e-05  2.188163  0.0  -0.237006  -0.375438  3e-06  2.194288  0.0
O  O53  1  0.24985016  0.82571369  0.00003797  1  -0.439579  -1.6e-05  1.988032  0.0  -0.387756  -9e-06  2.192524  0.0  -0.40617  -1.6e-05  2.188863  0.0  -0.23692  -0.375272  3e-06  2.195051  0.0
O  O54  1  0.79419123  0.45396158  0.57416142  1  -0.717155  0.024803  2.111797  0.009  -0.634505  0.028747  2.359537  0.009  -0.665652  0.02744  2.344711  0.009  -0.311463  -0.611758  0.029716  2.369573  0.01
O  O55  1  0.70698759  0.87939411  0.42605435  1  -0.717577  -0.024994  2.111478  -0.009  -0.636305  -0.028933  2.360521  -0.009  -0.667364  -0.027632  2.345522  -0.009  -0.311723  -0.613606  -0.02988  2.370741  -0.01
O  O56  1  0.20580224  0.54603145  0.42583928  1  -0.717341  0.024802  2.111715  0.009  -0.634684  0.028744  2.359473  0.009  -0.66584  0.027438  2.344654  0.009  -0.3115  -0.611921  0.029711  2.369497  0.01
O  O57  1  0.29301786  0.12061052  0.57394518  1  -0.717548  -0.024988  2.111401  -0.009  -0.636311  -0.028936  2.360457  -0.009  -0.667381  -0.027634  2.345469  -0.009  -0.31169  -0.613614  -0.029882  2.370684  -0.01
O  O58  1  0.86637592  0.17678854  0.61757900  1  -0.629643  -0.026572  2.037209  -0.013  -0.565322  -0.028423  2.30233  -0.011  -0.594714  -0.026958  2.289196  -0.009  -0.298817  -0.543712  -0.029803  2.310921  -0.012
O  O59  1  0.63104659  0.55932256  0.38181838  1  -0.630487  0.026469  2.03933  0.013  -0.564797  0.028039  2.303099  0.01  -0.594273  0.026686  2.290065  0.009  -0.298816  -0.543223  0.029261  2.311812  0.011
O  O60  1  0.13362209  0.82321173  0.38241940  1  -0.629723  -0.02658  2.037195  -0.013  -0.565287  -0.028425  2.302282  -0.011  -0.594674  -0.026958  2.28914  -0.009  -0.298735  -0.543687  -0.029804  2.310892  -0.012
O  O61  1  0.36895303  0.44068205  0.61818000  1  -0.630512  0.026465  2.039301  0.013  -0.564848  0.02804  2.303057  0.01  -0.594321  0.026686  2.290018  0.009  -0.298841  -0.543274  0.029262  2.311773  0.011
O  O62  1  0.95498229  0.23463746  0.42296363  1  -0.829621  -0.029372  1.862831  -0.018  -0.77244  -0.037889  2.067826  -0.023  -0.795029  -0.034325  2.032187  -0.02  -0.568892  -0.755069  -0.041213  2.092482  -0.026
O  O63  1  0.54434478  0.81175978  0.57705858  1  -0.828909  0.029342  1.863572  0.018  -0.771921  0.037769  2.068057  0.023  -0.794568  0.034278  2.032388  0.02  -0.567815  -0.75442  0.040897  2.092849  0.025
O  O64  1  0.04502150  0.76535994  0.57703696  1  -0.82958  -0.02938  1.862867  -0.018  -0.772406  -0.037891  2.067896  -0.023  -0.794999  -0.034326  2.03226  -0.02  -0.568897  -0.755036  -0.041216  2.092562  -0.026
O  O65  1  0.45565155  0.18823470  0.42293892  1  -0.828964  0.029343  1.863535  0.018  -0.772006  0.037768  2.067999  0.023  -0.794648  0.034277  2.032333  0.02  -0.567872  -0.754508  0.040896  2.092795  0.025
