# generated using pymatgen
data_ZnH8C5N2O7
_symmetry_space_group_name_H-M   'P 1'
_cell_length_a   7.11583596
_cell_length_b   7.05920545
_cell_length_c   11.57265599
_cell_angle_alpha   109.66088294
_cell_angle_beta   91.39085680
_cell_angle_gamma   112.98352362
_symmetry_Int_Tables_number   1
_chemical_formula_structural   ZnH8C5N2O7
_chemical_formula_sum   'Zn2 H16 C10 N4 O14'
_cell_volume   495.78364630
_cell_formula_units_Z   2
loop_
 _symmetry_equiv_pos_site_id
 _symmetry_equiv_pos_as_xyz
  1  'x, y, z'
loop_
 _atom_site_type_symbol
 _atom_site_label
 _atom_site_symmetry_multiplicity
 _atom_site_fract_x
 _atom_site_fract_y
 _atom_site_fract_z
 _atom_site_occupancy
 _atom_site_hle17_bader_spin_density
 _atom_site_hle17_ddec_charge
 _atom_site_hle17_ddec_spin_density
 _atom_site_hle17_ddec_sum_bond_order
 _atom_site_hle17_magmom
 _atom_site_hse06_10hf_bader_spin_density
 _atom_site_hse06_10hf_ddec_charge
 _atom_site_hse06_10hf_ddec_spin_density
 _atom_site_hse06_10hf_ddec_sum_bond_order
 _atom_site_hse06_10hf_magmom
 _atom_site_hse06_bader_spin_density
 _atom_site_hse06_ddec_charge
 _atom_site_hse06_ddec_spin_density
 _atom_site_hse06_ddec_sum_bond_order
 _atom_site_hse06_magmom
 _atom_site_pbe_bader_spin_density
 _atom_site_pbe_cm5_charge
 _atom_site_pbe_ddec_charge
 _atom_site_pbe_ddec_spin_density
 _atom_site_pbe_ddec_sum_bond_order
 _atom_site_pbe_magmom
Zn  Zn0  1  0.99999743  0.99999940  0.00000079  1  0  1.053357  0  1.841534  0  0  0.879613  0  2.296563  0  0  0.924846  0  2.243428  0  0  0.684661  0.847888  0  2.332966  0
Zn  Zn1  1  0.50000241  0.49998677  0.49999474  1  0  1.203704  0  1.641361  0  0  1.058395  0  2.075237  0  0  1.104246  0  2.015847  0  0  0.659324  1.025483  0  2.116754  0
H  H2  1  0.27034548  0.73837520  0.56472298  1  0  0.433888  0  0.810149  0  0  0.417426  0  0.861645  0  0  0.425985  0  0.85203  0  0  0.324673  0.411166  0  0.86883  0
H  H3  1  0.72966308  0.26161140  0.43526710  1  0  0.433971  0  0.810025  0  0  0.417453  0  0.861612  0  0  0.426011  0  0.851997  0  0  0.324649  0.41119  0  0.868803  0
H  H4  1  0.37689819  0.74039528  0.69075970  1  0  0.430585  0  0.874176  0  0  0.393183  0  0.947121  0  0  0.405734  0  0.928949  0  0  0.288021  0.384151  0  0.960197  0
H  H5  1  0.62310080  0.25958831  0.30923238  1  0  0.430574  0  0.874159  0  0  0.393161  0  0.947141  0  0  0.40571  0  0.92897  0  0  0.287988  0.384127  0  0.960217  0
H  H6  1  0.22610488  0.17862088  0.30995695  1  0  0.423573  0  0.854155  0  0  0.397893  0  0.919377  0  0  0.408199  0  0.904319  0  0  0.296507  0.390347  0  0.93042  0
H  H7  1  0.77389770  0.82137601  0.69002365  1  0  0.423623  0  0.854215  0  0  0.39791  0  0.919369  0  0  0.408227  0  0.904295  0  0  0.296506  0.390359  0  0.930417  0
H  H8  1  0.17756922  0.38346152  0.35541115  1  0  0.402021  0  0.913308  0  0  0.369447  0  0.980699  0  0  0.380835  0  0.964066  0  0  0.283965  0.361347  0  0.992514  0
H  H9  1  0.82243075  0.61653127  0.64459036  1  0  0.402047  0  0.913276  0  0  0.369442  0  0.980716  0  0  0.380831  0  0.964082  0  0  0.283967  0.361343  0  0.992529  0
H  H10  1  0.16614348  0.71465659  0.88606732  1  0  0.417142  0  0.892009  0  0  0.38431  0  0.958356  0  0  0.395436  0  0.942333  0  0  0.286426  0.376469  0  0.969618  0
H  H11  1  0.83385562  0.28534811  0.11393888  1  0  0.417147  0  0.891994  0  0  0.384316  0  0.958343  0  0  0.39544  0  0.942321  0  0  0.286411  0.376473  0  0.969606  0
H  H12  1  0.92412552  0.58469586  0.83761283  1  0  0.41642  0  0.8927  0  0  0.38557  0  0.956492  0  0  0.396424  0  0.940805  0  0  0.284877  0.377888  0  0.967564  0
H  H13  1  0.07587140  0.41530698  0.16239129  1  0  0.416337  0  0.892811  0  0  0.38549  0  0.956605  0  0  0.396344  0  0.940919  0  0  0.284843  0.377812  0  0.967674  0
H  H14  1  0.16950251  0.16576819  0.74608828  1  0  0.32013  0  0.821577  0  0  0.306653  0  0.868739  0  0  0.314243  0  0.862706  0  0  0.361928  0.301045  0  0.873559  0
H  H15  1  0.83049035  0.83423144  0.25391610  1  0  0.32009  0  0.821659  0  0  0.306639  0  0.868798  0  0  0.31423  0  0.862764  0  0  0.361892  0.301028  0  0.873622  0
H  H16  1  0.75943007  0.35497659  0.94557337  1  0  0.157234  0  0.948923  0  0  0.165393  0  1.009607  0  0  0.169604  0  1.006478  0  0  0.120218  0.162365  0  1.011903  0
H  H17  1  0.24056831  0.64504771  0.05443368  1  0  0.157298  0  0.948843  0  0  0.165448  0  1.009538  0  0  0.169662  0  1.006428  0  0  0.120224  0.162416  0  1.011838  0
C  C18  1  0.56896334  0.34455385  0.70280425  1  0  0.634799  0  3.953185  0  0  0.580468  0  4.257516  0  0  0.614732  0  4.249047  0  0  0.212621  0.557222  0  4.262461  0
C  C19  1  0.43103559  0.65545054  0.29719929  1  0  0.634668  0  3.953378  0  0  0.580309  0  4.257762  0  0  0.614555  0  4.249293  0  0  0.212603  0.557049  0  4.262718  0
C  C20  1  0.49196441  0.27666952  0.80715157  1  0  0.057652  0  3.692304  0  0  0.043722  0  3.964218  0  0  0.044633  0  3.979483  0  0  0.096667  0.042995  0  3.954085  0
C  C21  1  0.50803159  0.72334161  0.19285400  1  0  0.057749  0  3.692159  0  0  0.043858  0  3.96406  0  0  0.044836  0  3.97924  0  0  0.096733  0.043137  0  3.953915  0
C  C22  1  0.59377355  0.29435471  0.91704971  1  0  -0.162602  0  3.638305  0  0  -0.204144  0  3.905456  0  0  -0.20749  0  3.923736  0  0  -0.087686  -0.201848  0  3.893225  0
C  C23  1  0.40622441  0.70566139  0.08295676  1  0  -0.162666  0  3.6383  0  0  -0.204238  0  3.905453  0  0  -0.207625  0  3.923731  0  0  -0.087695  -0.201939  0  3.893209  0
C  C24  1  0.43501304  0.21847545  0.98241632  1  0  0.016574  0  3.783686  0  0  0.013877  0  4.050251  0  0  0.012226  0  4.069973  0  0  0.082857  0.014953  0  4.036717  0
C  C25  1  0.56498576  0.78153568  0.01758927  1  0  0.016542  0  3.783638  0  0  0.013875  0  4.050197  0  0  0.012221  0  4.069923  0  0  0.082821  0.014954  0  4.036644  0
C  C26  1  0.44012386  0.19548453  0.10533230  1  0  0.638778  0  3.915919  0  0  0.580699  0  4.21999  0  0  0.613873  0  4.214033  0  0  0.217186  0.558302  0  4.223019  0
C  C27  1  0.55987501  0.80451976  0.89467036  1  0  0.63873  0  3.915778  0  0  0.580612  0  4.219898  0  0  0.613803  0  4.213919  0  0  0.217147  0.55823  0  4.222916  0
N  N28  1  0.24781195  0.15742474  0.91631263  1  0  -0.217954  0  3.142168  0  0  -0.176591  0  3.4249  0  0  -0.185422  0  3.438386  0  0  -0.223945  -0.170331  0  3.415712  0
N  N29  1  0.75218489  0.84258142  0.08369207  1  0  -0.217893  0  3.142092  0  0  -0.176539  0  3.424844  0  0  -0.185371  0  3.438335  0  0  -0.223912  -0.170279  0  3.415649  0
N  N30  1  0.28530011  0.19406910  0.81186657  1  0  -0.116835  0  3.447256  0  0  -0.068168  0  3.687852  0  0  -0.076476  0  3.702291  0  0  -0.24536  -0.062693  0  3.678488  0
N  N31  1  0.71469673  0.80593706  0.18813813  1  0  -0.116856  0  3.447103  0  0  -0.068211  0  3.687679  0  0  -0.076539  0  3.702101  0  0  -0.245349  -0.062736  0  3.678313  0
O  O32  1  0.76336067  0.41391583  0.70202877  1  0  -0.626491  0  1.972851  0  0  -0.562899  0  2.172665  0  0  -0.587311  0  2.160196  0  0  -0.317825  -0.545836  0  2.180846  0
O  O33  1  0.23663980  0.58609229  0.29797890  1  0  -0.62636  0  1.972861  0  0  -0.5628  0  2.172691  0  0  -0.587212  0  2.16023  0  0  -0.317764  -0.545736  0  2.180873  0
O  O34  1  0.43250152  0.33521552  0.62566271  1  0  -0.62233  0  2.017347  0  0  -0.567322  0  2.269802  0  0  -0.593992  0  2.256422  0  0  -0.312107  -0.548516  0  2.278591  0
O  O35  1  0.56749750  0.66477511  0.37433408  1  0  -0.622359  0  2.017414  0  0  -0.567305  0  2.269834  0  0  -0.593977  0  2.256467  0  0  -0.312181  -0.548495  0  2.278625  0
O  O36  1  0.61562401  0.25908840  0.16978905  1  0  -0.604102  0  2.043679  0  0  -0.53793  0  2.256993  0  0  -0.564014  0  2.248468  0  0  -0.293411  -0.519705  0  2.262473  0
O  O37  1  0.38437622  0.74091580  0.83021274  1  0  -0.604038  0  2.043591  0  0  -0.53784  0  2.256886  0  0  -0.563927  0  2.248355  0  0  -0.293377  -0.519638  0  2.262376  0
O  O38  1  0.26577697  0.11322313  0.13876421  1  0  -0.628891  0  2.030801  0  0  -0.557877  0  2.277797  0  0  -0.585243  0  2.26606  0  0  -0.306332  -0.538614  0  2.285281  0
O  O39  1  0.73422284  0.88677288  0.86123700  1  0  -0.628903  0  2.030767  0  0  -0.557885  0  2.277811  0  0  -0.585263  0  2.266077  0  0  -0.306313  -0.53862  0  2.285278  0
O  O40  1  0.39237942  0.73733750  0.60365459  1  0  -0.837322  0  1.879816  0  0  -0.780403  0  2.080707  0  0  -0.80166  0  2.048464  0  0  -0.571406  -0.765399  0  2.103584  0
O  O41  1  0.60761603  0.26262640  0.39633573  1  0  -0.837379  0  1.879686  0  0  -0.780401  0  2.080619  0  0  -0.801659  0  2.04838  0  0  -0.571347  -0.765399  0  2.1035  0
O  O42  1  0.19440080  0.27165640  0.38490372  1  0  -0.818428  0  1.831621  0  0  -0.765501  0  2.010535  0  0  -0.785976  0  1.975877  0  0  -0.584895  -0.750886  0  2.035234  0
O  O43  1  0.80560634  0.72832668  0.61508400  1  0  -0.81849  0  1.831651  0  0  -0.765533  0  2.01059  0  0  -0.78602  0  1.975904  0  0  -0.58488  -0.750909  0  2.035303  0
O  O44  1  0.03014853  0.69652772  0.91363978  1  0  -0.842398  0  1.931673  0  0  -0.78682  0  2.143467  0  0  -0.808891  0  2.10949  0  0  -0.58499  -0.771112  0  2.167032  0
O  O45  1  0.96984921  0.30347357  0.08636493  1  0  -0.842333  0  1.931749  0  0  -0.786752  0  2.143511  0  0  -0.80882  0  2.109534  0  0  -0.584941  -0.771048  0  2.167074  0
