# generated using pymatgen
data_AgH11C8BrN
_symmetry_space_group_name_H-M   'P 1'
_cell_length_a   4.24287992
_cell_length_b   13.59013541
_cell_length_c   15.55653784
_cell_angle_alpha   89.99964053
_cell_angle_beta   90.00016807
_cell_angle_gamma   90.52069729
_symmetry_Int_Tables_number   1
_chemical_formula_structural   AgH11C8BrN
_chemical_formula_sum   'Ag4 H44 C32 Br4 N4'
_cell_volume   896.97335008
_cell_formula_units_Z   4
loop_
 _symmetry_equiv_pos_site_id
 _symmetry_equiv_pos_as_xyz
  1  'x, y, z'
loop_
 _atom_site_type_symbol
 _atom_site_label
 _atom_site_symmetry_multiplicity
 _atom_site_fract_x
 _atom_site_fract_y
 _atom_site_fract_z
 _atom_site_occupancy
 _atom_site_hle17_bader_spin_density
 _atom_site_hle17_ddec_charge
 _atom_site_hle17_ddec_spin_density
 _atom_site_hle17_ddec_sum_bond_order
 _atom_site_hle17_magmom
 _atom_site_hse06_10hf_bader_spin_density
 _atom_site_hse06_10hf_ddec_charge
 _atom_site_hse06_10hf_ddec_spin_density
 _atom_site_hse06_10hf_ddec_sum_bond_order
 _atom_site_hse06_10hf_magmom
 _atom_site_hse06_bader_spin_density
 _atom_site_hse06_ddec_charge
 _atom_site_hse06_ddec_spin_density
 _atom_site_hse06_ddec_sum_bond_order
 _atom_site_hse06_magmom
 _atom_site_pbe_bader_spin_density
 _atom_site_pbe_cm5_charge
 _atom_site_pbe_ddec_charge
 _atom_site_pbe_ddec_spin_density
 _atom_site_pbe_ddec_sum_bond_order
 _atom_site_pbe_magmom
Ag  Ag0  1  0.81853015  0.57562713  0.56127145  1  0  0.426036  0  1.648572  0  0  0.311767  0  2.119951  0  0  0.339931  0  2.073137  0  0  0.294651  0.29214  0  2.152302  0
Ag  Ag1  1  0.18147315  0.92437207  0.06126824  1  0  0.425995  0  1.648546  0  0  0.311725  0  2.119957  0  0  0.339883  0  2.073148  0  0  0.294641  0.292093  0  2.152303  0
Ag  Ag2  1  0.18147166  0.42437093  0.43873149  1  0  0.426005  0  1.64856  0  0  0.311735  0  2.11993  0  0  0.339904  0  2.073114  0  0  0.294627  0.292111  0  2.152282  0
Ag  Ag3  1  0.81852404  0.07562820  0.93872891  1  0  0.426006  0  1.648597  0  0  0.311741  0  2.119969  0  0  0.339906  0  2.073159  0  0  0.294637  0.292112  0  2.152316  0
H  H4  1  0.32460539  0.67426794  0.47095397  1  0  0.111379  0  1.000673  0  0  0.12305  0  1.086201  0  0  0.125821  0  1.082825  0  0  0.075161  0.120959  0  1.088675  0
H  H5  1  0.67539062  0.82573276  0.97094798  1  0  0.111382  0  1.000694  0  0  0.123048  0  1.086229  0  0  0.125824  0  1.082845  0  0  0.075159  0.120958  0  1.088699  0
H  H6  1  0.67538464  0.32573013  0.52904833  1  0  0.111414  0  1.000637  0  0  0.123073  0  1.086188  0  0  0.125846  0  1.082801  0  0  0.075175  0.120981  0  1.088663  0
H  H7  1  0.32461122  0.17426603  0.02904982  1  0  0.111359  0  1.000672  0  0  0.123018  0  1.086231  0  0  0.125794  0  1.08284  0  0  0.075152  0.120926  0  1.088705  0
H  H8  1  0.00412740  0.72211804  0.41342677  1  0  0.125404  0  0.948905  0  0  0.146746  0  1.008353  0  0  0.148459  0  1.007936  0  0  0.088128  0.145462  0  1.008734  0
H  H9  1  0.99587033  0.77788233  0.91342387  1  0  0.125387  0  0.948883  0  0  0.146708  0  1.008361  0  0  0.148421  0  1.007947  0  0  0.088108  0.145422  0  1.008744  0
H  H10  1  0.99586964  0.27787855  0.58657167  1  0  0.125385  0  0.948892  0  0  0.146703  0  1.008374  0  0  0.148413  0  1.00796  0  0  0.08811  0.145418  0  1.008754  0
H  H11  1  0.00412686  0.22211794  0.08657393  1  0  0.125351  0  0.948907  0  0  0.14668  0  1.008384  0  0  0.148393  0  1.007967  0  0  0.088114  0.145394  0  1.008768  0
H  H12  1  0.36649460  0.79026543  0.41975462  1  0  0.109291  0  0.959316  0  0  0.132459  0  1.017785  0  0  0.13385  0  1.017831  0  0  0.089245  0.131455  0  1.017748  0
H  H13  1  0.63350559  0.70973564  0.91975051  1  0  0.109275  0  0.959333  0  0  0.132481  0  1.017761  0  0  0.133866  0  1.017824  0  0  0.089252  0.131484  0  1.017713  0
H  H14  1  0.63350247  0.20973190  0.58024704  1  0  0.109234  0  0.95936  0  0  0.132445  0  1.017789  0  0  0.133834  0  1.017838  0  0  0.089237  0.131443  0  1.017749  0
H  H15  1  0.36649631  0.29026463  0.08024793  1  0  0.109266  0  0.959326  0  0  0.132456  0  1.017778  0  0  0.133842  0  1.017834  0  0  0.089251  0.13146  0  1.017731  0
H  H16  1  0.33514993  0.92846446  0.51185248  1  0  0.099843  0  0.96449  0  0  0.112571  0  1.026937  0  0  0.115416  0  1.026881  0  0  0.098782  0.110522  0  1.027197  0
H  H17  1  0.66484109  0.57153584  0.01185352  1  0  0.099894  0  0.964576  0  0  0.112587  0  1.02705  0  0  0.115432  0  1.026995  0  0  0.098797  0.110539  0  1.027309  0
H  H18  1  0.66484007  0.07153287  0.48814339  1  0  0.099881  0  0.964455  0  0  0.112564  0  1.026935  0  0  0.11541  0  1.026879  0  0  0.098777  0.110517  0  1.027192  0
H  H19  1  0.33514670  0.42846518  0.98814749  1  0  0.099858  0  0.964553  0  0  0.112597  0  1.026966  0  0  0.115442  0  1.026909  0  0  0.098787  0.110549  0  1.027227  0
H  H20  1  0.42032302  0.04969716  0.63422855  1  0  0.106347  0  0.95649  0  0  0.129826  0  1.016298  0  0  0.131107  0  1.016198  0  0  0.090493  0.128892  0  1.01638  0
H  H21  1  0.57967872  0.45029972  0.13423388  1  0  0.106356  0  0.95636  0  0  0.129848  0  1.016165  0  0  0.13113  0  1.016064  0  0  0.090505  0.128913  0  1.016249  0
H  H22  1  0.57968103  0.95029796  0.36576539  1  0  0.106366  0  0.956331  0  0  0.129846  0  1.016141  0  0  0.131132  0  1.016034  0  0  0.090497  0.128911  0  1.016224  0
H  H23  1  0.42031843  0.54969981  0.86576906  1  0  0.106373  0  0.956473  0  0  0.129858  0  1.016273  0  0  0.131142  0  1.016168  0  0  0.090495  0.128923  0  1.016355  0
H  H24  1  0.16386420  0.04647479  0.72471517  1  0  0.118846  0  0.978431  0  0  0.136665  0  1.044038  0  0  0.138753  0  1.042921  0  0  0.084086  0.135066  0  1.044936  0
H  H25  1  0.83614816  0.45352732  0.22471876  1  0  0.118833  0  0.97841  0  0  0.13666  0  1.044011  0  0  0.138749  0  1.042896  0  0  0.084076  0.135061  0  1.044912  0
H  H26  1  0.83614706  0.95352400  0.27528134  1  0  0.118852  0  0.978416  0  0  0.136664  0  1.044035  0  0  0.138755  0  1.042923  0  0  0.084067  0.135065  0  1.044934  0
H  H27  1  0.16385858  0.54647589  0.77528418  1  0  0.118843  0  0.978402  0  0  0.136683  0  1.043994  0  0  0.138771  0  1.04288  0  0  0.08406  0.135077  0  1.044904  0
H  H28  1  0.02735436  0.08969845  0.62309728  1  0  0.106388  0  0.972236  0  0  0.130015  0  1.035077  0  0  0.130639  0  1.035936  0  0  0.090924  0.129559  0  1.034454  0
H  H29  1  0.97265460  0.41030512  0.12310056  1  0  0.106381  0  0.972132  0  0  0.129953  0  1.035039  0  0  0.130576  0  1.035899  0  0  0.090897  0.129504  0  1.034411  0
H  H30  1  0.97265712  0.91030548  0.37689988  1  0  0.106379  0  0.972177  0  0  0.129955  0  1.035074  0  0  0.130577  0  1.035936  0  0  0.090896  0.129507  0  1.034442  0
H  H31  1  0.02735222  0.58970029  0.87690045  1  0  0.106398  0  0.972253  0  0  0.130027  0  1.035099  0  0  0.130648  0  1.035962  0  0  0.090907  0.129574  0  1.034472  0
H  H32  1  0.79564984  0.90693594  0.74584695  1  0  0.118139  0  0.961118  0  0  0.126203  0  1.02676  0  0  0.12941  0  1.026356  0  0  0.095461  0.123788  0  1.027402  0
H  H33  1  0.20434380  0.59306638  0.24584750  1  0  0.118114  0  0.961012  0  0  0.126199  0  1.026636  0  0  0.129412  0  1.02623  0  0  0.095436  0.123782  0  1.027285  0
H  H34  1  0.20434042  0.09306802  0.25414956  1  0  0.118096  0  0.96109  0  0  0.126183  0  1.026705  0  0  0.129392  0  1.026302  0  0  0.095443  0.123766  0  1.027349  0
H  H35  1  0.79565115  0.40693684  0.75415287  1  0  0.118122  0  0.961076  0  0  0.126192  0  1.026719  0  0  0.129398  0  1.026315  0  0  0.095451  0.123777  0  1.027361  0
H  H36  1  0.41739925  0.67752845  0.68270934  1  0  0.116787  0  0.977129  0  0  0.131227  0  1.051721  0  0  0.133034  0  1.050886  0  0  0.085842  0.129859  0  1.052383  0
H  H37  1  0.58261009  0.82247135  0.18270637  1  0  0.116804  0  0.977076  0  0  0.131237  0  1.051681  0  0  0.133046  0  1.050844  0  0  0.085853  0.12987  0  1.052339  0
H  H38  1  0.58260969  0.32247107  0.31729488  1  0  0.116807  0  0.977061  0  0  0.13124  0  1.051665  0  0  0.133049  0  1.05083  0  0  0.085854  0.129873  0  1.052327  0
H  H39  1  0.41739652  0.17752891  0.81729336  1  0  0.116759  0  0.977157  0  0  0.131195  0  1.051766  0  0  0.133003  0  1.05093  0  0  0.085819  0.129827  0  1.052425  0
H  H40  1  0.73981329  0.66336212  0.75294879  1  0  0.113049  0  0.953698  0  0  0.136304  0  1.016194  0  0  0.137286  0  1.016156  0  0  0.092752  0.135554  0  1.016275  0
H  H41  1  0.26018967  0.83663572  0.25294419  1  0  0.112975  0  0.953835  0  0  0.136261  0  1.016298  0  0  0.137243  0  1.016259  0  0  0.092713  0.135512  0  1.016378  0
H  H42  1  0.26019562  0.33663667  0.24705479  1  0  0.112931  0  0.953835  0  0  0.136208  0  1.016304  0  0  0.13719  0  1.016266  0  0  0.092685  0.135461  0  1.016386  0
H  H43  1  0.73981700  0.16336602  0.74705617  1  0  0.112983  0  0.953793  0  0  0.136273  0  1.016263  0  0  0.137254  0  1.016224  0  0  0.092717  0.135522  0  1.016345  0
H  H44  1  0.47774236  0.76370140  0.76866142  1  0  0.122611  0  0.944496  0  0  0.143595  0  1.002278  0  0  0.145333  0  1.002254  0  0  0.091073  0.142322  0  1.002331  0
H  H45  1  0.52225838  0.73629559  0.26865630  1  0  0.122651  0  0.94455  0  0  0.143674  0  1.002296  0  0  0.145416  0  1.002266  0  0  0.091096  0.1424  0  1.002351  0
H  H46  1  0.52226888  0.23629665  0.23134345  1  0  0.122656  0  0.944496  0  0  0.143663  0  1.002257  0  0  0.145404  0  1.002228  0  0  0.091092  0.14239  0  1.002312  0
H  H47  1  0.47773878  0.26370395  0.73134214  1  0  0.122668  0  0.944494  0  0  0.143686  0  1.002246  0  0  0.145429  0  1.002212  0  0  0.0911  0.142412  0  1.0023  0
C  C48  1  0.08920437  0.79223140  0.53540684  1  0  0.321028  0  3.745625  0  0  0.327858  0  3.987886  0  0  0.338035  0  4.008592  0  0  0.112746  0.321066  0  3.973716  0
C  C49  1  0.91079167  0.70777021  0.03540283  1  0  0.320824  0  3.745609  0  0  0.327682  0  3.987846  0  0  0.33786  0  4.008558  0  0  0.112712  0.320892  0  3.973673  0
C  C50  1  0.91079031  0.20776520  0.46459353  1  0  0.320861  0  3.745811  0  0  0.327744  0  3.987986  0  0  0.337921  0  4.008688  0  0  0.11273  0.320957  0  3.973812  0
C  C51  1  0.08920561  0.29223227  0.96459561  1  0  0.32093  0  3.745762  0  0  0.327806  0  3.987955  0  0  0.337983  0  4.00866  0  0  0.112731  0.321011  0  3.973784  0
C  C52  1  0.20204735  0.74302103  0.45548885  1  0  -0.384395  0  3.727341  0  0  -0.467231  0  3.963835  0  0  -0.470598  0  3.970436  0  0  -0.252487  -0.464582  0  3.959246  0
C  C53  1  0.79794850  0.75697979  0.95548591  1  0  -0.384322  0  3.72732  0  0  -0.467196  0  3.96386  0  0  -0.47055  0  3.970424  0  0  -0.252471  -0.464553  0  3.959262  0
C  C54  1  0.79794501  0.25697631  0.54451023  1  0  -0.38431  0  3.727378  0  0  -0.467177  0  3.963861  0  0  -0.470547  0  3.97048  0  0  -0.252461  -0.464528  0  3.959271  0
C  C55  1  0.20205102  0.24301975  0.04451125  1  0  -0.384224  0  3.727329  0  0  -0.467087  0  3.963823  0  0  -0.47045  0  3.970423  0  0  -0.25245  -0.464443  0  3.959231  0
C  C56  1  0.17809469  0.88856796  0.55538021  1  0  -0.25331  0  3.698062  0  0  -0.278911  0  3.941023  0  0  -0.289584  0  3.963337  0  0  -0.100671  -0.272004  0  3.926116  0
C  C57  1  0.82189202  0.61143056  0.05538051  1  0  -0.253287  0  3.698221  0  0  -0.27884  0  3.941186  0  0  -0.289515  0  3.963497  0  0  -0.10069  -0.27194  0  3.926282  0
C  C58  1  0.82189062  0.11143011  0.44461695  1  0  -0.253189  0  3.698159  0  0  -0.278729  0  3.941098  0  0  -0.2894  0  3.963409  0  0  -0.100637  -0.271821  0  3.926192  0
C  C59  1  0.17809571  0.38856898  0.94462050  1  0  -0.25333  0  3.698276  0  0  -0.278919  0  3.94124  0  0  -0.289593  0  3.963555  0  0  -0.100689  -0.272013  0  3.926339  0
C  C60  1  0.07689901  0.93254686  0.63168108  1  0  0.212205  0  3.768003  0  0  0.23412  0  4.007512  0  0  0.241519  0  4.028481  0  0  0.005872  0.229349  0  3.993087  0
C  C61  1  0.92309339  0.56745553  0.13168107  1  0  0.212151  0  3.768122  0  0  0.233992  0  4.007714  0  0  0.241391  0  4.028681  0  0  0.005854  0.229227  0  3.993282  0
C  C62  1  0.92309582  0.06745342  0.36831671  1  0  0.212047  0  3.767987  0  0  0.23388  0  4.007598  0  0  0.241279  0  4.028566  0  0  0.005821  0.229098  0  3.993195  0
C  C63  1  0.07690397  0.43254915  0.86832187  1  0  0.212228  0  3.767785  0  0  0.234046  0  4.007446  0  0  0.241443  0  4.028415  0  0  0.005845  0.229267  0  3.993034  0
C  C64  1  0.17705033  0.03508915  0.65503004  1  0  -0.348383  0  3.704372  0  0  -0.42724  0  3.931178  0  0  -0.429962  0  3.93879  0  0  -0.241795  -0.425059  0  3.925759  0
C  C65  1  0.82294707  0.46491127  0.15503291  1  0  -0.348341  0  3.704093  0  0  -0.427149  0  3.930926  0  0  -0.429875  0  3.938537  0  0  -0.241756  -0.424971  0  3.925505  0
C  C66  1  0.82294913  0.96490891  0.34496454  1  0  -0.348319  0  3.704015  0  0  -0.427115  0  3.930857  0  0  -0.429845  0  3.938474  0  0  -0.241712  -0.424935  0  3.925438  0
C  C67  1  0.17705027  0.53509268  0.84496875  1  0  -0.348349  0  3.70424  0  0  -0.427207  0  3.931045  0  0  -0.429934  0  3.93866  0  0  -0.241693  -0.425022  0  3.925628  0
C  C68  1  0.88058984  0.87673267  0.68521339  1  0  -0.239755  0  3.657972  0  0  -0.262993  0  3.896138  0  0  -0.27346  0  3.91732  0  0  -0.096727  -0.256264  0  3.882091  0
C  C69  1  0.11939841  0.62326935  0.18521050  1  0  -0.239751  0  3.657942  0  0  -0.262996  0  3.896044  0  0  -0.27347  0  3.917232  0  0  -0.096692  -0.25627  0  3.882002  0
C  C70  1  0.11939795  0.12326835  0.31478569  1  0  -0.239657  0  3.657827  0  0  -0.262868  0  3.895979  0  0  -0.27334  0  3.917164  0  0  -0.096696  -0.256136  0  3.881938  0
C  C71  1  0.88058946  0.37673388  0.81479051  1  0  -0.239866  0  3.657879  0  0  -0.263089  0  3.896061  0  0  -0.273554  0  3.917242  0  0  -0.096751  -0.256359  0  3.882019  0
C  C72  1  0.79679608  0.78053705  0.66234028  1  0  0.322947  0  3.736481  0  0  0.32977  0  3.978396  0  0  0.340477  0  3.998491  0  0  0.117663  0.322665  0  3.964601  0
C  C73  1  0.20320837  0.71946364  0.16233629  1  0  0.322912  0  3.736664  0  0  0.329835  0  3.978442  0  0  0.340541  0  3.998538  0  0  0.117615  0.322731  0  3.964647  0
C  C74  1  0.20320818  0.21946322  0.33766201  1  0  0.322986  0  3.736426  0  0  0.329803  0  3.978357  0  0  0.340512  0  3.998447  0  0  0.117673  0.322701  0  3.964565  0
C  C75  1  0.79678894  0.28053957  0.83766472  1  0  0.323106  0  3.73671  0  0  0.32998  0  3.978546  0  0  0.340688  0  3.998642  0  0  0.1177  0.322875  0  3.964746  0
C  C76  1  0.59480657  0.71847486  0.72003380  1  0  -0.375702  0  3.700532  0  0  -0.456274  0  3.933252  0  0  -0.459593  0  3.940551  0  0  -0.245043  -0.453697  0  3.928161  0
C  C77  1  0.40520320  0.78152541  0.22002898  1  0  -0.375712  0  3.700673  0  0  -0.456381  0  3.933316  0  0  -0.459703  0  3.940608  0  0  -0.245039  -0.453803  0  3.928222  0
C  C78  1  0.40520470  0.28152393  0.27997107  1  0  -0.37566  0  3.700642  0  0  -0.456282  0  3.933352  0  0  -0.459604  0  3.940646  0  0  -0.244993  -0.453705  0  3.928262  0
C  C79  1  0.59480350  0.21847706  0.77997139  1  0  -0.37573  0  3.70079  0  0  -0.456397  0  3.93344  0  0  -0.459719  0  3.940738  0  0  -0.24506  -0.45382  0  3.928347  0
Br  Br80  1  0.31832761  0.46756463  0.61522571  1  0  -0.525902  0  1.342139  0  0  -0.433026  0  1.735221  0  0  -0.457288  0  1.701461  0  0  -0.237453  -0.415472  0  1.758537  0
Br  Br81  1  0.68168578  0.03243384  0.11522248  1  0  -0.525895  0  1.342143  0  0  -0.433018  0  1.73525  0  0  -0.457282  0  1.701495  0  0  -0.237446  -0.415469  0  1.758565  0
Br  Br82  1  0.68167423  0.53243417  0.38477659  1  0  -0.525881  0  1.342131  0  0  -0.433009  0  1.735227  0  0  -0.457278  0  1.701475  0  0  -0.237443  -0.415457  0  1.758546  0
Br  Br83  1  0.31832788  0.96756567  0.88477532  1  0  -0.525885  0  1.342156  0  0  -0.432997  0  1.735222  0  0  -0.457267  0  1.701473  0  0  -0.237448  -0.415449  0  1.758537  0
N  N84  1  0.90150308  0.73895039  0.58874501  1  0  -0.402861  0  3.174688  0  0  -0.326501  0  3.431738  0  0  -0.348579  0  3.447767  0  0  -0.338694  -0.311574  0  3.420599  0
N  N85  1  0.09849576  0.76104789  0.08874135  1  0  -0.402644  0  3.17461  0  0  -0.326339  0  3.431635  0  0  -0.34842  0  3.447667  0  0  -0.338623  -0.311411  0  3.420488  0
N  N86  1  0.09849390  0.26104473  0.41125664  1  0  -0.402877  0  3.174636  0  0  -0.326533  0  3.431664  0  0  -0.348611  0  3.44769  0  0  -0.338743  -0.311616  0  3.420534  0
N  N87  1  0.90150617  0.23895312  0.91125773  1  0  -0.402847  0  3.174716  0  0  -0.326512  0  3.431724  0  0  -0.348592  0  3.447754  0  0  -0.338678  -0.311578  0  3.420573  0
