# generated using pymatgen
data_Zn2H12C12(NO3)3
_symmetry_space_group_name_H-M   'P 1'
_cell_length_a   7.01279302
_cell_length_b   8.62521823
_cell_length_c   13.30941973
_cell_angle_alpha   97.33251707
_cell_angle_beta   98.54817343
_cell_angle_gamma   92.68413815
_symmetry_Int_Tables_number   1
_chemical_formula_structural   Zn2H12C12(NO3)3
_chemical_formula_sum   'Zn4 H24 C24 N6 O18'
_cell_volume   787.81277929
_cell_formula_units_Z   2
loop_
 _symmetry_equiv_pos_site_id
 _symmetry_equiv_pos_as_xyz
  1  'x, y, z'
loop_
 _atom_site_type_symbol
 _atom_site_label
 _atom_site_symmetry_multiplicity
 _atom_site_fract_x
 _atom_site_fract_y
 _atom_site_fract_z
 _atom_site_occupancy
 _atom_site_hle17_bader_spin_density
 _atom_site_hle17_ddec_charge
 _atom_site_hle17_ddec_spin_density
 _atom_site_hle17_ddec_sum_bond_order
 _atom_site_hle17_magmom
 _atom_site_hse06_10hf_bader_spin_density
 _atom_site_hse06_10hf_ddec_charge
 _atom_site_hse06_10hf_ddec_spin_density
 _atom_site_hse06_10hf_ddec_sum_bond_order
 _atom_site_hse06_10hf_magmom
 _atom_site_hse06_bader_spin_density
 _atom_site_hse06_ddec_charge
 _atom_site_hse06_ddec_spin_density
 _atom_site_hse06_ddec_sum_bond_order
 _atom_site_hse06_magmom
 _atom_site_pbe_bader_spin_density
 _atom_site_pbe_cm5_charge
 _atom_site_pbe_ddec_charge
 _atom_site_pbe_ddec_spin_density
 _atom_site_pbe_ddec_sum_bond_order
 _atom_site_pbe_magmom
Zn  Zn0  1  0.57499104  0.86460704  0.92693138  1  0  1.128059  0  1.781027  0  0  0.965893  0  2.221409  0  0  1.012003  0  2.164893  0  0  0.656967  0.933547  0  2.260151  0
Zn  Zn1  1  0.42501681  0.13539028  0.07306719  1  0  1.128061  0  1.781137  0  0  0.965888  0  2.221538  0  0  1.012013  0  2.165003  0  0  0.656931  0.933535  0  2.260281  0
Zn  Zn2  1  0.73856939  0.26194275  0.93487786  1  0  1.179543  0  1.70826  0  0  1.001517  0  2.170917  0  0  1.050143  0  2.110196  0  0  0.696761  0.967067  0  2.213051  0
Zn  Zn3  1  0.26143698  0.73805455  0.06512284  1  0  1.179505  0  1.708188  0  0  1.001496  0  2.170865  0  0  1.050117  0  2.110143  0  0  0.696731  0.967044  0  2.213004  0
H  H4  1  0.77519452  0.06859368  0.07275369  1  0  0.428256  0  0.869591  0  0  0.397871  0  0.932894  0  0  0.407909  0  0.918411  0  0  0.287431  0.390643  0  0.943327  0
H  H5  1  0.22481182  0.93140360  0.92724851  1  0  0.428266  0  0.869582  0  0  0.397882  0  0.932885  0  0  0.407918  0  0.918406  0  0  0.287446  0.390655  0  0.943317  0
H  H6  1  0.90763107  0.84696853  0.83704691  1  0  0.425256  0  0.881621  0  0  0.391699  0  0.9491  0  0  0.403828  0  0.931579  0  0  0.281664  0.383147  0  0.96142  0
H  H7  1  0.09238009  0.15301935  0.16295109  1  0  0.425284  0  0.881604  0  0  0.391722  0  0.949091  0  0  0.403855  0  0.931561  0  0  0.281688  0.383168  0  0.961416  0
H  H8  1  0.90184336  0.77527510  0.94235577  1  0  0.402801  0  0.921339  0  0  0.372129  0  0.98531  0  0  0.383655  0  0.968538  0  0  0.286656  0.363995  0  0.99714  0
H  H9  1  0.09816384  0.22471635  0.05764298  1  0  0.40275  0  0.921408  0  0  0.372023  0  0.985477  0  0  0.383554  0  0.968698  0  0  0.286589  0.363888  0  0.997309  0
H  H10  1  0.36930383  0.81945511  0.67351792  1  0  0.11457  0  0.916769  0  0  0.126054  0  0.975178  0  0  0.128246  0  0.972139  0  0  0.153045  0.124331  0  0.977536  0
H  H11  1  0.63070725  0.18054565  0.32648273  1  0  0.114579  0  0.916775  0  0  0.126021  0  0.975246  0  0  0.12822  0  0.972199  0  0  0.153063  0.1243  0  0.977602  0
H  H12  1  0.63112155  0.52315633  0.84322639  1  0  0.433789  0  0.862602  0  0  0.401908  0  0.927658  0  0  0.412174  0  0.912725  0  0  0.295592  0.394639  0  0.938225  0
H  H13  1  0.36887136  0.47683651  0.15677279  1  0  0.433938  0  0.862414  0  0  0.401984  0  0.927609  0  0  0.412252  0  0.912671  0  0  0.295609  0.394714  0  0.938169  0
H  H14  1  0.85453092  0.52356202  0.86851958  1  0  0.443927  0  0.816345  0  0  0.413871  0  0.890894  0  0  0.423676  0  0.87949  0  0  0.310315  0.406817  0  0.899092  0
H  H15  1  0.14546329  0.47644257  0.13147850  1  0  0.443916  0  0.816324  0  0  0.41386  0  0.890871  0  0  0.423667  0  0.879463  0  0  0.31033  0.406805  0  0.899071  0
H  H16  1  0.63087444  0.27406467  0.67894345  1  0  0.122801  0  0.905128  0  0  0.135575  0  0.958878  0  0  0.137606  0  0.957167  0  0  0.154152  0.133985  0  0.96026  0
H  H17  1  0.36912560  0.72594094  0.32105822  1  0  0.122847  0  0.905051  0  0  0.135604  0  0.958806  0  0  0.137639  0  0.957096  0  0  0.154164  0.134014  0  0.960189  0
H  H18  1  0.23522145  0.59069112  0.65227851  1  0  0.088626  0  0.959643  0  0  0.100111  0  1.020384  0  0  0.103556  0  1.017553  0  0  0.100464  0.09762  0  1.022494  0
H  H19  1  0.76473996  0.40931748  0.34772096  1  0  0.088604  0  0.959571  0  0  0.100065  0  1.020344  0  0  0.103515  0  1.017511  0  0  0.10044  0.097574  0  1.022454  0
H  H20  1  0.37882349  0.14543052  0.50859236  1  0  0.104479  0  0.912046  0  0  0.11978  0  0.968423  0  0  0.120482  0  0.968401  0  0  0.123765  0.119162  0  0.968605  0
H  H21  1  0.62118438  0.85458083  0.49141047  1  0  0.104488  0  0.912147  0  0  0.119773  0  0.968464  0  0  0.120471  0  0.968437  0  0  0.123765  0.11917  0  0.968647  0
H  H22  1  0.28779869  0.95276877  0.50717301  1  0  0.096587  0  0.932206  0  0  0.109349  0  0.996071  0  0  0.110257  0  0.995362  0  0  0.120539  0.108551  0  0.996759  0
H  H23  1  0.71220883  0.04723909  0.49282798  1  0  0.096661  0  0.932255  0  0  0.109348  0  0.996136  0  0  0.110252  0  0.995418  0  0  0.120553  0.108562  0  0.996833  0
H  H24  1  0.10171910  0.38494824  0.50415223  1  0  0.098099  0  0.950749  0  0  0.109087  0  1.007984  0  0  0.112387  0  1.006379  0  0  0.101314  0.106713  0  1.009265  0
H  H25  1  0.89825624  0.61505546  0.49584646  1  0  0.098089  0  0.950775  0  0  0.109041  0  1.008028  0  0  0.112341  0  1.00642  0  0  0.101291  0.106666  0  1.00931  0
H  H26  1  0.99923151  0.87914621  0.46172017  1  0  0.092551  0  0.990538  0  0  0.099939  0  1.059794  0  0  0.103827  0  1.056325  0  0  0.097865  0.097109  0  1.062406  0
H  H27  1  0.00077617  0.12084990  0.53828053  1  0  0.092515  0  0.990548  0  0  0.099899  0  1.059815  0  0  0.103786  0  1.056344  0  0  0.097855  0.097068  0  1.062427  0
C  C28  1  0.28469462  0.56523304  0.85290396  1  0  0.685833  0  3.849013  0  0  0.630867  0  4.142067  0  0  0.665699  0  4.133629  0  0  0.225336  0.607165  0  4.147178  0
C  C29  1  0.71529892  0.43476565  0.14709580  1  0  0.685648  0  3.849088  0  0  0.630614  0  4.14215  0  0  0.665444  0  4.133716  0  0  0.225181  0.606909  0  4.147264  0
C  C30  1  0.44983139  0.93112581  0.69936627  1  0  0.200524  0  3.587912  0  0  0.130478  0  3.86193  0  0  0.143677  0  3.873202  0  0  0.182621  0.121781  0  3.854356  0
C  C31  1  0.55018102  0.06887377  0.30063363  1  0  0.200582  0  3.587807  0  0  0.130557  0  3.861893  0  0  0.143755  0  3.873169  0  0  0.18265  0.121854  0  3.854314  0
C  C32  1  0.82506812  0.74477094  0.10577916  1  0  0.714812  0  3.841731  0  0  0.654058  0  4.142251  0  0  0.690843  0  4.130356  0  0  0.229163  0.628818  0  4.149877  0
C  C33  1  0.17492832  0.25522772  0.89422008  1  0  0.714896  0  3.841655  0  0  0.654029  0  4.142318  0  0  0.690845  0  4.130386  0  0  0.229134  0.62879  0  4.149941  0
C  C34  1  0.20436226  0.43910524  0.76596585  1  0  -0.075237  0  3.718035  0  0  -0.061208  0  3.954481  0  0  -0.067282  0  3.974765  0  0  -0.012803  -0.057412  0  3.941008  0
C  C35  1  0.79561907  0.56090069  0.23403428  1  0  -0.075284  0  3.718046  0  0  -0.061058  0  3.95424  0  0  -0.06713  0  3.974524  0  0  -0.01281  -0.057265  0  3.940773  0
C  C36  1  0.58237581  0.16460156  0.70182081  1  0  0.188467  0  3.600269  0  0  0.119122  0  3.874717  0  0  0.131215  0  3.889458  0  0  0.177095  0.111212  0  3.864682  0
C  C37  1  0.41763056  0.83540870  0.29817879  1  0  0.188317  0  3.60037  0  0  0.119024  0  3.874801  0  0  0.13111  0  3.88955  0  0  0.17711  0.111115  0  3.864764  0
C  C38  1  0.85476790  0.71145002  0.21508413  1  0  -0.062204  0  3.671071  0  0  -0.057399  0  3.908614  0  0  -0.058983  0  3.926414  0  0  -0.002009  -0.056296  0  3.896762  0
C  C39  1  0.14522184  0.28855344  0.78491498  1  0  -0.062144  0  3.670879  0  0  -0.057256  0  3.908518  0  0  -0.058845  0  3.926306  0  0  -0.002008  -0.056153  0  3.896662  0
C  C40  1  0.18869366  0.47355699  0.66518171  1  0  -0.069082  0  3.758282  0  0  -0.094671  0  4.008888  0  0  -0.093455  0  4.026998  0  0  -0.088531  -0.095308  0  3.996662  0
C  C41  1  0.81128288  0.52644435  0.33481611  1  0  -0.069003  0  3.758066  0  0  -0.094649  0  4.008584  0  0  -0.093443  0  4.026701  0  0  -0.088483  -0.095285  0  3.99636  0
C  C42  1  0.41928905  0.03076969  0.52835327  1  0  -0.017284  0  3.608747  0  0  -0.082337  0  3.867963  0  0  -0.078152  0  3.87819  0  0  -0.04317  -0.085016  0  3.861076  0
C  C43  1  0.58071857  0.96923932  0.47164933  1  0  -0.017547  0  3.609031  0  0  -0.082347  0  3.868023  0  0  -0.078124  0  3.878217  0  0  -0.043118  -0.085103  0  3.861199  0
C  C44  1  0.93030775  0.82694612  0.29789619  1  0  -0.086477  0  3.723049  0  0  -0.077474  0  3.970974  0  0  -0.083211  0  3.991934  0  0  -0.024208  -0.073961  0  3.957021  0
C  C45  1  0.06968449  0.17305379  0.70210281  1  0  -0.086482  0  3.723011  0  0  -0.07751  0  3.970965  0  0  -0.083247  0  3.991925  0  0  -0.024199  -0.073996  0  3.95701  0
C  C46  1  0.11282424  0.36005640  0.58300421  1  0  -0.090314  0  3.802168  0  0  -0.102305  0  4.055595  0  0  -0.105166  0  4.075806  0  0  -0.101377  -0.100508  0  4.041895  0
C  C47  1  0.88715555  0.63994841  0.41699419  1  0  -0.090254  0  3.802143  0  0  -0.102175  0  4.055521  0  0  -0.105037  0  4.075741  0  0  -0.101393  -0.100379  0  4.041821  0
C  C48  1  0.94625867  0.78825006  0.39778477  1  0  -0.083452  0  3.772128  0  0  -0.110313  0  4.031064  0  0  -0.109435  0  4.049388  0  0  -0.094992  -0.110678  0  4.018673  0
C  C49  1  0.05373369  0.21175102  0.60221434  1  0  -0.083386  0  3.771999  0  0  -0.110203  0  4.030931  0  0  -0.109323  0  4.049256  0  0  -0.095028  -0.11057  0  4.018542  0
C  C50  1  0.99218814  0.99404202  0.28456597  1  0  0.621042  0  3.985847  0  0  0.570337  0  4.297381  0  0  0.602961  0  4.290471  0  0  0.183337  0.548375  0  4.301113  0
C  C51  1  0.00782133  0.00595756  0.71543669  1  0  0.621081  0  3.985861  0  0  0.570401  0  4.297376  0  0  0.603026  0  4.290463  0  0  0.183406  0.548437  0  4.301111  0
N  N52  1  0.52888063  0.98182307  0.79440310  1  0  -0.212194  0  3.152022  0  0  -0.155574  0  3.439018  0  0  -0.168881  0  3.453654  0  0  -0.214032  -0.146833  0  3.429371  0
N  N53  1  0.47113320  0.01817646  0.20559842  1  0  -0.212379  0  3.152163  0  0  -0.155792  0  3.439195  0  0  -0.16912  0  3.453854  0  0  -0.214085  -0.147034  0  3.429535  0
N  N54  1  0.61266838  0.12871966  0.79603079  1  0  -0.241392  0  3.183995  0  0  -0.182984  0  3.481032  0  0  -0.198688  0  3.496211  0  0  -0.219654  -0.172439  0  3.470937  0
N  N55  1  0.38734268  0.87128107  0.20397136  1  0  -0.241344  0  3.184181  0  0  -0.182943  0  3.481234  0  0  -0.198643  0  3.496422  0  0  -0.219707  -0.172405  0  3.47114  0
N  N56  1  0.47896646  0.04306896  0.63872160  1  0  -0.087893  0  3.552563  0  0  0.006525  0  3.781593  0  0  -0.01078  0  3.807354  0  0  -0.225299  0.017951  0  3.763985  0
N  N57  1  0.52104186  0.95693300  0.36127967  1  0  -0.08764  0  3.552402  0  0  0.006731  0  3.781353  0  0  -0.010579  0  3.807106  0  0  -0.225281  0.018174  0  3.763764  0
O  O58  1  0.43586326  0.64538507  0.84142408  1  0  -0.656751  0  2.06445  0  0  -0.585311  0  2.311528  0  0  -0.612487  0  2.298259  0  0  -0.309009  -0.56629  0  2.320039  0
O  O59  1  0.56413144  0.35461018  0.15857021  1  0  -0.65663  0  2.064738  0  0  -0.585127  0  2.311817  0  0  -0.612302  0  2.298541  0  0  -0.30885  -0.566104  0  2.320326  0
O  O60  1  0.67852034  0.08313101  0.01365336  1  0  -0.987814  0  1.920983  0  0  -0.885752  0  2.210551  0  0  -0.919401  0  2.173348  0  0  -0.568969  -0.861822  0  2.235828  0
O  O61  1  0.32148721  0.91686393  0.98634723  1  0  -0.987809  0  1.920915  0  0  -0.885748  0  2.210476  0  0  -0.919391  0  2.173271  0  0  -0.568989  -0.861818  0  2.235752  0
O  O62  1  0.82388706  0.78130611  0.87359166  1  0  -0.855199  0  1.938844  0  0  -0.789213  0  2.147312  0  0  -0.812882  0  2.111184  0  0  -0.589245  -0.772371  0  2.172254  0
O  O63  1  0.17612146  0.21868414  0.12640709  1  0  -0.855145  0  1.938922  0  0  -0.789131  0  2.147397  0  0  -0.812805  0  2.111264  0  0  -0.589184  -0.772285  0  2.172339  0
O  O64  1  0.65238205  0.75015219  0.06242062  1  0  -0.635886  0  2.035922  0  0  -0.572692  0  2.302122  0  0  -0.599851  0  2.287594  0  0  -0.303887  -0.553689  0  2.31173  0
O  O65  1  0.34761829  0.24984179  0.93757402  1  0  -0.635941  0  2.035852  0  0  -0.572754  0  2.302168  0  0  -0.599921  0  2.287624  0  0  -0.303853  -0.55375  0  2.311773  0
O  O66  1  0.19586137  0.58133837  0.92964814  1  0  -0.626691  0  2.058779  0  0  -0.553963  0  2.314327  0  0  -0.581696  0  2.301039  0  0  -0.302018  -0.534679  0  2.323013  0
O  O67  1  0.80414223  0.41866014  0.07035319  1  0  -0.626685  0  2.058655  0  0  -0.55394  0  2.314194  0  0  -0.581674  0  2.30091  0  0  -0.302029  -0.534652  0  2.32288  0
O  O68  1  0.73868566  0.45180216  0.84781668  1  0  -0.829526  0  1.89731  0  0  -0.768914  0  2.115817  0  0  -0.790676  0  2.084959  0  0  -0.56624  -0.753401  0  2.137182  0
O  O69  1  0.26131363  0.54819644  0.15218354  1  0  -0.829629  0  1.897071  0  0  -0.76899  0  2.115587  0  0  -0.790755  0  2.084729  0  0  -0.566262  -0.75347  0  2.136964  0
O  O70  1  0.02841243  0.24046003  0.93958963  1  0  -0.654889  0  2.169437  0  0  -0.576213  0  2.434048  0  0  -0.605521  0  2.417525  0  0  -0.31193  -0.555814  0  2.445047  0
O  O71  1  0.97158815  0.75953735  0.06041210  1  0  -0.65482  0  2.169382  0  0  -0.576295  0  2.434034  0  0  -0.605558  0  2.417479  0  0  -0.311928  -0.55589  0  2.445029  0
O  O72  1  0.93351243  0.03845659  0.19767059  1  0  -0.654995  0  2.025318  0  0  -0.594973  0  2.251722  0  0  -0.620514  0  2.242409  0  0  -0.330253  -0.576973  0  2.257555  0
O  O73  1  0.06649469  0.96154773  0.80233155  1  0  -0.654947  0  2.025459  0  0  -0.594942  0  2.251871  0  0  -0.62048  0  2.24256  0  0  -0.330211  -0.576944  0  2.257703  0
O  O74  1  0.09595605  0.07584869  0.35982295  1  0  -0.642782  0  1.89527  0  0  -0.60492  0  2.126943  0  0  -0.627175  0  2.118843  0  0  -0.35643  -0.589173  0  2.131822  0
O  O75  1  0.90406000  0.92414492  0.64017898  1  0  -0.642918  0  1.89514  0  0  -0.605055  0  2.126797  0  0  -0.627311  0  2.118694  0  0  -0.356547  -0.589304  0  2.131665  0
