# generated using pymatgen
data_CdH14(C3N2)6
_symmetry_space_group_name_H-M   'P 1'
_cell_length_a   9.26941764
_cell_length_b   9.56038199
_cell_length_c   10.73977804
_cell_angle_alpha   90.00006713
_cell_angle_beta   89.99999005
_cell_angle_gamma   101.03786669
_symmetry_Int_Tables_number   1
_chemical_formula_structural   CdH14(C3N2)6
_chemical_formula_sum   'Cd2 H28 C36 N24'
_cell_volume   934.14369563
_cell_formula_units_Z   2
loop_
 _symmetry_equiv_pos_site_id
 _symmetry_equiv_pos_as_xyz
  1  'x, y, z'
loop_
 _atom_site_type_symbol
 _atom_site_label
 _atom_site_symmetry_multiplicity
 _atom_site_fract_x
 _atom_site_fract_y
 _atom_site_fract_z
 _atom_site_occupancy
 _atom_site_hle17_bader_spin_density
 _atom_site_hle17_ddec_charge
 _atom_site_hle17_ddec_spin_density
 _atom_site_hle17_ddec_sum_bond_order
 _atom_site_hle17_magmom
 _atom_site_hse06_10hf_bader_spin_density
 _atom_site_hse06_10hf_ddec_charge
 _atom_site_hse06_10hf_ddec_spin_density
 _atom_site_hse06_10hf_ddec_sum_bond_order
 _atom_site_hse06_10hf_magmom
 _atom_site_hse06_bader_spin_density
 _atom_site_hse06_ddec_charge
 _atom_site_hse06_ddec_spin_density
 _atom_site_hse06_ddec_sum_bond_order
 _atom_site_hse06_magmom
 _atom_site_pbe_bader_spin_density
 _atom_site_pbe_cm5_charge
 _atom_site_pbe_ddec_charge
 _atom_site_pbe_ddec_spin_density
 _atom_site_pbe_ddec_sum_bond_order
 _atom_site_pbe_magmom
Cd  Cd0  1  0.00000000  0.00000000  0.00000000  1  0  1.169957  0  1.777713  0  0  0.98451  0  2.254419  0  0  1.031318  0  2.208045  0  0  0.833099  0.950339  0  2.286448  0
Cd  Cd1  1  0.50000056  0.50000037  0.50000031  1  0  1.16997  0  1.777716  0  0  0.984531  0  2.254416  0  0  1.031337  0  2.208043  0  0  0.833089  0.950359  0  2.286445  0
H  H2  1  0.44178711  0.70939643  0.01513566  1  0  0.307974  0  0.903551  0  0  0.289569  0  0.963173  0  0  0.296565  0  0.958668  0  0  0.315672  0.284428  0  0.966859  0
H  H3  1  0.05821339  0.79060328  0.51513489  1  0  0.307942  0  0.903562  0  0  0.289534  0  0.963199  0  0  0.296533  0  0.958692  0  0  0.315663  0.284395  0  0.966885  0
H  H4  1  0.55821381  0.29060324  0.98486404  1  0  0.307985  0  0.90354  0  0  0.289577  0  0.963168  0  0  0.296573  0  0.958663  0  0  0.315682  0.284436  0  0.966853  0
H  H5  1  0.94178644  0.20939639  0.48486388  1  0  0.307959  0  0.903567  0  0  0.28956  0  0.963185  0  0  0.296556  0  0.958682  0  0  0.315676  0.28442  0  0.966871  0
H  H6  1  0.05255004  0.71409357  0.10247642  1  0  0.338685  0  0.908487  0  0  0.320352  0  0.974713  0  0  0.326079  0  0.970977  0  0  0.307637  0.316423  0  0.977281  0
H  H7  1  0.44744939  0.78590626  0.60247652  1  0  0.338692  0  0.90848  0  0  0.320356  0  0.974723  0  0  0.326082  0  0.970989  0  0  0.307623  0.316428  0  0.977292  0
H  H8  1  0.94744980  0.28590611  0.89752328  1  0  0.338705  0  0.908451  0  0  0.320368  0  0.974699  0  0  0.326096  0  0.970963  0  0  0.30763  0.316439  0  0.977267  0
H  H9  1  0.55255045  0.21409341  0.39752318  1  0  0.33869  0  0.908472  0  0  0.320353  0  0.974722  0  0  0.32608  0  0.970985  0  0  0.307633  0.316425  0  0.97729  0
H  H10  1  0.19353934  0.62383431  0.13466883  1  0  0.332825  0  0.904069  0  0  0.318573  0  0.960858  0  0  0.324073  0  0.95799  0  0  0.306316  0.314797  0  0.962733  0
H  H11  1  0.30646008  0.87616556  0.63466904  1  0  0.332819  0  0.904061  0  0  0.318567  0  0.960849  0  0  0.324066  0  0.957981  0  0  0.30632  0.314792  0  0.962723  0
H  H12  1  0.80646070  0.37616642  0.86533087  1  0  0.332811  0  0.904083  0  0  0.318558  0  0.960872  0  0  0.324059  0  0.958003  0  0  0.306312  0.314782  0  0.962746  0
H  H13  1  0.69353954  0.12383305  0.36533065  1  0  0.332802  0  0.904077  0  0  0.318551  0  0.960864  0  0  0.324051  0  0.957996  0  0  0.306316  0.314776  0  0.962739  0
H  H14  1  0.65772027  0.86575539  0.84691921  1  0  0.102245  0  0.966554  0  0  0.112809  0  1.029164  0  0  0.114873  0  1.0292  0  0  0.098669  0.111362  0  1.029064  0
H  H15  1  0.84228012  0.63424445  0.34691898  1  0  0.102285  0  0.966529  0  0  0.112848  0  1.029139  0  0  0.114912  0  1.029175  0  0  0.098693  0.111402  0  1.029039  0
H  H16  1  0.34227957  0.13424428  0.15308049  1  0  0.102239  0  0.966569  0  0  0.112804  0  1.029179  0  0  0.114867  0  1.029214  0  0  0.098673  0.111358  0  1.029079  0
H  H17  1  0.15771971  0.36575522  0.65308165  1  0  0.102286  0  0.966531  0  0  0.112848  0  1.029141  0  0  0.114911  0  1.029176  0  0  0.0987  0.111401  0  1.029041  0
H  H18  1  0.47949894  0.19150625  0.65419608  1  0  0.09  0  1.001764  0  0  0.096724  0  1.072633  0  0  0.099101  0  1.072368  0  0  0.088995  0.095092  0  1.072755  0
H  H19  1  0.02050142  0.30849325  0.15419608  1  0  0.089997  0  1.001763  0  0  0.096721  0  1.072633  0  0  0.099098  0  1.072369  0  0  0.08899  0.095088  0  1.072755  0
H  H20  1  0.52050111  0.80849448  0.34580362  1  0  0.09001  0  1.001766  0  0  0.096733  0  1.072635  0  0  0.09911  0  1.072371  0  0  0.088992  0.0951  0  1.072759  0
H  H21  1  0.97949841  0.69150642  0.84580361  1  0  0.090009  0  1.00177  0  0  0.096733  0  1.072638  0  0  0.09911  0  1.072374  0  0  0.088987  0.0951  0  1.072759  0
H  H22  1  0.68637893  0.07041421  0.69776580  1  0  0.083339  0  0.98031  0  0  0.09307  0  1.044672  0  0  0.09537  0  1.044395  0  0  0.089991  0.091018  0  1.045916  0
H  H23  1  0.81362151  0.42958611  0.19776589  1  0  0.083325  0  0.980332  0  0  0.093057  0  1.044691  0  0  0.095358  0  1.044414  0  0  0.08999  0.091005  0  1.045935  0
H  H24  1  0.31362112  0.92958653  0.30223390  1  0  0.083333  0  0.980317  0  0  0.093064  0  1.044681  0  0  0.095364  0  1.044404  0  0  0.08999  0.091013  0  1.045926  0
H  H25  1  0.18637961  0.57041463  0.80223474  1  0  0.08332  0  0.980321  0  0  0.093049  0  1.044684  0  0  0.09535  0  1.044407  0  0  0.089979  0.090996  0  1.045928  0
H  H26  1  0.23899402  0.11937108  0.76288732  1  0  0.101882  0  0.97369  0  0  0.11245  0  1.034694  0  0  0.11478  0  1.034211  0  0  0.09697  0.110803  0  1.035514  0
H  H27  1  0.26100634  0.38062857  0.26288736  1  0  0.101866  0  0.973701  0  0  0.112438  0  1.034702  0  0  0.114768  0  1.034219  0  0  0.096967  0.110792  0  1.035521  0
H  H28  1  0.76100668  0.88062752  0.23711238  1  0  0.101872  0  0.973698  0  0  0.112443  0  1.034701  0  0  0.114772  0  1.034219  0  0  0.096964  0.110796  0  1.035521  0
H  H29  1  0.73899349  0.61937110  0.73711234  1  0  0.101894  0  0.973703  0  0  0.112467  0  1.034704  0  0  0.114797  0  1.034221  0  0  0.096971  0.11082  0  1.035522  0
C  C30  1  0.24176466  0.79070728  0.00944100  1  0  0.646277  0  3.832645  0  0  0.590807  0  4.11486  0  0  0.61811  0  4.12072  0  0  0.344532  0.572137  0  4.110489  0
C  C31  1  0.25823498  0.70929349  0.50944105  1  0  0.646226  0  3.832687  0  0  0.590756  0  4.11491  0  0  0.61806  0  4.120771  0  0  0.344525  0.572086  0  4.110541  0
C  C32  1  0.75823518  0.20929239  0.99055963  1  0  0.646239  0  3.83262  0  0  0.590745  0  4.11488  0  0  0.618049  0  4.12074  0  0  0.344549  0.572076  0  4.110505  0
C  C33  1  0.74176486  0.29070619  0.49055958  1  0  0.646263  0  3.832632  0  0  0.590803  0  4.114838  0  0  0.618108  0  4.120697  0  0  0.34456  0.572128  0  4.110475  0
C  C34  1  0.31510913  0.95575107  0.87012833  1  0  0.153892  0  3.857116  0  0  0.151489  0  4.101613  0  0  0.156952  0  4.124437  0  0  0.079005  0.147427  0  4.086981  0
C  C35  1  0.18489052  0.54425017  0.37012710  1  0  0.153915  0  3.857049  0  0  0.151533  0  4.101536  0  0  0.156995  0  4.124361  0  0  0.079029  0.14747  0  4.086906  0
C  C36  1  0.68489220  0.04425073  0.12987416  1  0  0.153898  0  3.857102  0  0  0.151496  0  4.101614  0  0  0.156963  0  4.124435  0  0  0.079036  0.147432  0  4.086987  0
C  C37  1  0.81510952  0.45575056  0.62987167  1  0  0.153873  0  3.857078  0  0  0.151508  0  4.10154  0  0  0.156965  0  4.124373  0  0  0.078997  0.147452  0  4.086899  0
C  C38  1  0.56711907  0.92055099  0.82883973  1  0  -0.159836  0  3.762134  0  0  -0.1787  0  4.016332  0  0  -0.18069  0  4.036126  0  0  -0.106006  -0.176632  0  4.002028  0
C  C39  1  0.93288045  0.57944989  0.32884036  1  0  -0.159901  0  3.762087  0  0  -0.178758  0  4.016303  0  0  -0.180747  0  4.036095  0  0  -0.106029  -0.176691  0  4.002  0
C  C40  1  0.43287969  0.07944869  0.17115904  1  0  -0.159809  0  3.762147  0  0  -0.178667  0  4.016347  0  0  -0.180656  0  4.036139  0  0  -0.105996  -0.1766  0  4.002047  0
C  C41  1  0.06711938  0.42054978  0.67116027  1  0  -0.159887  0  3.76212  0  0  -0.178744  0  4.016332  0  0  -0.180731  0  4.036122  0  0  -0.106025  -0.176677  0  4.002027  0
C  C42  1  0.43301671  0.88287891  0.88974973  1  0  0.158883  0  3.806977  0  0  0.149988  0  4.055081  0  0  0.154168  0  4.076174  0  0  0.087377  0.147026  0  4.040667  0
C  C43  1  0.06698294  0.61712237  0.38975046  1  0  0.158854  0  3.806972  0  0  0.149928  0  4.055118  0  0  0.154113  0  4.07621  0  0  0.087352  0.146966  0  4.040705  0
C  C44  1  0.56698441  0.11712183  0.11025090  1  0  0.15891  0  3.806945  0  0  0.149997  0  4.055075  0  0  0.154178  0  4.076166  0  0  0.087385  0.147037  0  4.040664  0
C  C45  1  0.93301710  0.38287837  0.61025017  1  0  0.158956  0  3.806893  0  0  0.150033  0  4.055027  0  0  0.154217  0  4.076121  0  0  0.087395  0.147067  0  4.040611  0
C  C46  1  0.46537495  0.10504259  0.72161829  1  0  -0.09614  0  3.809965  0  0  -0.115895  0  4.070009  0  0  -0.116948  0  4.090652  0  0  -0.117647  -0.11452  0  4.055853  0
C  C47  1  0.03462649  0.39495701  0.22161838  1  0  -0.096127  0  3.809893  0  0  -0.115887  0  4.069944  0  0  -0.116939  0  4.090587  0  0  -0.117617  -0.114512  0  4.055785  0
C  C48  1  0.53462488  0.89495708  0.27838141  1  0  -0.096183  0  3.809978  0  0  -0.115938  0  4.070018  0  0  -0.116991  0  4.090662  0  0  -0.117645  -0.114563  0  4.055865  0
C  C49  1  0.96537334  0.60504266  0.77838225  1  0  -0.096184  0  3.80989  0  0  -0.115942  0  4.069934  0  0  -0.116995  0  4.090578  0  0  -0.117633  -0.114568  0  4.055776  0
C  C50  1  0.58195829  0.03467596  0.74500234  1  0  -0.087542  0  3.805634  0  0  -0.104582  0  4.065075  0  0  -0.106402  0  4.086356  0  0  -0.115399  -0.103176  0  4.050851  0
C  C51  1  0.91804194  0.46532335  0.24500151  1  0  -0.087513  0  3.805512  0  0  -0.104543  0  4.064943  0  0  -0.106364  0  4.086226  0  0  -0.115403  -0.103136  0  4.050717  0
C  C52  1  0.41804155  0.96532371  0.25499736  1  0  -0.08755  0  3.805645  0  0  -0.104586  0  4.065074  0  0  -0.106406  0  4.086357  0  0  -0.115412  -0.103181  0  4.050856  0
C  C53  1  0.08195768  0.53467525  0.75499819  1  0  -0.087533  0  3.805525  0  0  -0.104566  0  4.064957  0  0  -0.106386  0  4.086238  0  0  -0.115419  -0.10316  0  4.050731  0
C  C54  1  0.33000697  0.06581149  0.78256739  1  0  -0.188879  0  3.793088  0  0  -0.203082  0  4.0393  0  0  -0.206299  0  4.058692  0  0  -0.115722  -0.201521  0  4.027428  0
C  C55  1  0.16999340  0.43418819  0.28256751  1  0  -0.188886  0  3.793136  0  0  -0.203099  0  4.039353  0  0  -0.206315  0  4.058744  0  0  -0.115751  -0.201539  0  4.02748  0
C  C56  1  0.66999286  0.93418818  0.21743231  1  0  -0.188873  0  3.793141  0  0  -0.203078  0  4.039357  0  0  -0.206296  0  4.058748  0  0  -0.115738  -0.201515  0  4.027483  0
C  C57  1  0.83000644  0.56581148  0.71743219  1  0  -0.18887  0  3.793133  0  0  -0.20309  0  4.039337  0  0  -0.206305  0  4.058732  0  0  -0.11573  -0.201532  0  4.027459  0
C  C58  1  0.91534197  0.94833741  0.68745784  1  0  0.50903  0  3.956017  0  0  0.468881  0  4.247133  0  0  0.494169  0  4.257247  0  0  0.307111  0.450884  0  4.241638  0
C  C59  1  0.58465754  0.55166328  0.18745756  1  0  0.508989  0  3.95603  0  0  0.468851  0  4.247161  0  0  0.494142  0  4.257271  0  0  0.307104  0.450855  0  4.241665  0
C  C60  1  0.08465658  0.05166120  0.31254093  1  0  0.508893  0  3.955982  0  0  0.468759  0  4.247125  0  0  0.494041  0  4.257235  0  0  0.307022  0.450762  0  4.241634  0
C  C61  1  0.41534250  0.44833745  0.81254214  1  0  0.50901  0  3.956082  0  0  0.468855  0  4.247198  0  0  0.494142  0  4.257311  0  0  0.307099  0.450858  0  4.241702  0
C  C62  1  0.75976871  0.80783203  0.55203784  1  0  0.515478  0  3.964491  0  0  0.47442  0  4.25102  0  0  0.499621  0  4.261911  0  0  0.312269  0.457042  0  4.244057  0
C  C63  1  0.74023080  0.69216848  0.05203863  1  0  0.515436  0  3.964488  0  0  0.474396  0  4.251029  0  0  0.4996  0  4.261917  0  0  0.312258  0.457017  0  4.244062  0
C  C64  1  0.24023005  0.19216764  0.44796092  1  0  0.515468  0  3.964497  0  0  0.474447  0  4.251034  0  0  0.499645  0  4.261919  0  0  0.312295  0.457068  0  4.244072  0
C  C65  1  0.25976925  0.30783225  0.94796200  1  0  0.515449  0  3.964516  0  0  0.474387  0  4.251045  0  0  0.499587  0  4.261932  0  0  0.312255  0.457009  0  4.244079  0
N  N66  1  0.19816157  0.89756520  0.94737292  1  0  -0.582867  0  3.099178  0  0  -0.511027  0  3.375614  0  0  -0.537674  0  3.387883  0  0  -0.374295  -0.492204  0  3.366749  0
N  N67  1  0.30183788  0.60243508  0.44737267  1  0  -0.582833  0  3.099166  0  0  -0.510995  0  3.375603  0  0  -0.537643  0  3.387873  0  0  -0.374272  -0.492172  0  3.366739  0
N  N68  1  0.80183934  0.10243447  0.05262771  1  0  -0.58282  0  3.099175  0  0  -0.510968  0  3.375614  0  0  -0.53762  0  3.387887  0  0  -0.374301  -0.492145  0  3.366749  0
N  N69  1  0.69816196  0.39756459  0.55262703  1  0  -0.582839  0  3.099182  0  0  -0.51101  0  3.375603  0  0  -0.537657  0  3.387875  0  0  -0.374282  -0.492188  0  3.366739  0
N  N70  1  0.38148303  0.77738864  0.97658108  1  0  -0.43893  0  3.310073  0  0  -0.376206  0  3.53995  0  0  -0.39497  0  3.549068  0  0  -0.387389  -0.363174  0  3.534515  0
N  N71  1  0.11851642  0.72261169  0.47658098  1  0  -0.438888  0  3.310119  0  0  -0.376163  0  3.540012  0  0  -0.394935  0  3.549141  0  0  -0.387394  -0.36313  0  3.534579  0
N  N72  1  0.61851681  0.22261103  0.02341862  1  0  -0.438944  0  3.310109  0  0  -0.376206  0  3.540004  0  0  -0.394968  0  3.54912  0  0  -0.387398  -0.363175  0  3.534571  0
N  N73  1  0.88148341  0.27738798  0.52341872  1  0  -0.438933  0  3.310138  0  0  -0.376219  0  3.540035  0  0  -0.394989  0  3.54916  0  0  -0.387403  -0.363186  0  3.534604  0
N  N74  1  0.15970483  0.70680874  0.09249110  1  0  -0.696262  0  3.137367  0  0  -0.657605  0  3.367826  0  0  -0.677794  0  3.366993  0  0  -0.57367  -0.643501  0  3.368072  0
N  N75  1  0.34029459  0.79319107  0.59249122  1  0  -0.696237  0  3.137363  0  0  -0.657585  0  3.367813  0  0  -0.677773  0  3.366981  0  0  -0.573651  -0.643481  0  3.368061  0
N  N76  1  0.84029392  0.29319093  0.90750860  1  0  -0.696277  0  3.137292  0  0  -0.657616  0  3.367747  0  0  -0.677806  0  3.366914  0  0  -0.573685  -0.643511  0  3.36799  0
N  N77  1  0.65970524  0.20680860  0.40750848  1  0  -0.696249  0  3.137287  0  0  -0.657603  0  3.367735  0  0  -0.677792  0  3.366903  0  0  -0.573694  -0.643498  0  3.367984  0
N  N78  1  0.95349427  0.00914287  0.78074605  1  0  -0.58595  0  2.748648  0  0  -0.540896  0  3.026978  0  0  -0.561526  0  3.031586  0  0  -0.373202  -0.526067  0  3.024399  0
N  N79  1  0.54650489  0.49085649  0.28074624  1  0  -0.585942  0  2.748631  0  0  -0.540886  0  3.026963  0  0  -0.561515  0  3.03157  0  0  -0.373205  -0.526058  0  3.024385  0
N  N80  1  0.04650578  0.99085786  0.21925458  1  0  -0.585839  0  2.748678  0  0  -0.54078  0  3.027  0  0  -0.561408  0  3.03161  0  0  -0.37313  -0.525951  0  3.024423  0
N  N81  1  0.45349494  0.50914318  0.71925439  1  0  -0.585946  0  2.748654  0  0  -0.540892  0  3.026986  0  0  -0.561523  0  3.031594  0  0  -0.373202  -0.526065  0  3.024407  0
N  N82  1  0.88501391  0.88795908  0.57949561  1  0  -0.479662  0  3.289399  0  0  -0.425704  0  3.553826  0  0  -0.448599  0  3.557784  0  0  -0.312253  -0.409783  0  3.552007  0
N  N83  1  0.61498538  0.61204040  0.07949633  1  0  -0.479605  0  3.289398  0  0  -0.425688  0  3.55386  0  0  -0.448589  0  3.557817  0  0  -0.312248  -0.409768  0  3.552039  0
N  N84  1  0.11498613  0.11204165  0.42050502  1  0  -0.47959  0  3.289331  0  0  -0.4257  0  3.553814  0  0  -0.448583  0  3.557757  0  0  -0.312242  -0.409778  0  3.551997  0
N  N85  1  0.38501338  0.38795927  0.92050337  1  0  -0.479663  0  3.289458  0  0  -0.425697  0  3.553883  0  0  -0.448589  0  3.557837  0  0  -0.312259  -0.409776  0  3.552062  0
N  N86  1  0.65085877  0.73354574  0.51670282  1  0  -0.609425  0  2.794188  0  0  -0.557678  0  3.070986  0  0  -0.578605  0  3.074943  0  0  -0.375492  -0.543018  0  3.068168  0
N  N87  1  0.84914181  0.76645472  0.01670366  1  0  -0.609404  0  2.794162  0  0  -0.557663  0  3.070954  0  0  -0.578595  0  3.074917  0  0  -0.375497  -0.543005  0  3.068135  0
N  N88  1  0.34914235  0.26645499  0.48329688  1  0  -0.609441  0  2.79409  0  0  -0.557703  0  3.070879  0  0  -0.578635  0  3.074845  0  0  -0.375527  -0.54304  0  3.06806  0
N  N89  1  0.15085932  0.23354602  0.98329604  1  0  -0.609397  0  2.794184  0  0  -0.557648  0  3.070974  0  0  -0.578578  0  3.074938  0  0  -0.375481  -0.542988  0  3.068155  0
