# generated using pymatgen
data_ZnH8(CN2)6
_symmetry_space_group_name_H-M   'P 1'
_cell_length_a   7.73899361
_cell_length_b   8.67763144
_cell_length_c   9.11520202
_cell_angle_alpha   95.15240262
_cell_angle_beta   105.18776172
_cell_angle_gamma   101.02971378
_symmetry_Int_Tables_number   1
_chemical_formula_structural   ZnH8(CN2)6
_chemical_formula_sum   'Zn2 H16 C12 N24'
_cell_volume   573.48724580
_cell_formula_units_Z   2
loop_
 _symmetry_equiv_pos_site_id
 _symmetry_equiv_pos_as_xyz
  1  'x, y, z'
loop_
 _atom_site_type_symbol
 _atom_site_label
 _atom_site_symmetry_multiplicity
 _atom_site_fract_x
 _atom_site_fract_y
 _atom_site_fract_z
 _atom_site_occupancy
 _atom_site_hle17_bader_spin_density
 _atom_site_hle17_ddec_charge
 _atom_site_hle17_ddec_spin_density
 _atom_site_hle17_ddec_sum_bond_order
 _atom_site_hle17_magmom
 _atom_site_hse06_10hf_bader_spin_density
 _atom_site_hse06_10hf_ddec_charge
 _atom_site_hse06_10hf_ddec_spin_density
 _atom_site_hse06_10hf_ddec_sum_bond_order
 _atom_site_hse06_10hf_magmom
 _atom_site_hse06_bader_spin_density
 _atom_site_hse06_ddec_charge
 _atom_site_hse06_ddec_spin_density
 _atom_site_hse06_ddec_sum_bond_order
 _atom_site_hse06_magmom
 _atom_site_pbe_bader_spin_density
 _atom_site_pbe_cm5_charge
 _atom_site_pbe_ddec_charge
 _atom_site_pbe_ddec_spin_density
 _atom_site_pbe_ddec_sum_bond_order
 _atom_site_pbe_magmom
Zn  Zn0  1  0.13112195  0.68326374  0.95477637  1  0  0.958991  0  2.039412  0  0  0.773625  0  2.53346  0  0  0.811302  0  2.490451  0  0  0.731163  0.747231  0  2.563585  0
Zn  Zn1  1  0.86887403  0.31673465  0.04522421  1  0  0.959028  0  2.039375  0  0  0.773668  0  2.533426  0  0  0.811346  0  2.490417  0  0  0.731188  0.747273  0  2.563552  0
H  H2  1  0.42485264  0.00570476  0.10536874  1  0  0.101706  0  0.960652  0  0  0.105767  0  1.032464  0  0  0.107566  0  1.030398  0  0  0.134415  0.104266  0  1.034091  0
H  H3  1  0.57514333  0.99429363  0.89462964  1  0  0.101697  0  0.96068  0  0  0.105755  0  1.0325  0  0  0.10755  0  1.030435  0  0  0.134414  0.104255  0  1.034124  0
H  H4  1  0.34515504  0.58136398  0.29369467  1  0  0.11043  0  0.956812  0  0  0.111772  0  1.034307  0  0  0.114872  0  1.029557  0  0  0.139424  0.108734  0  1.038335  0
H  H5  1  0.65485061  0.41863559  0.70630483  1  0  0.110331  0  0.956877  0  0  0.111734  0  1.034325  0  0  0.114836  0  1.029571  0  0  0.139377  0.108696  0  1.038352  0
H  H6  1  0.70199516  0.23075980  0.33007467  1  0  0.10232  0  0.94985  0  0  0.105073  0  1.022019  0  0  0.107836  0  1.018849  0  0  0.135509  0.103057  0  1.024341  0
H  H7  1  0.29800915  0.76923977  0.66992563  1  0  0.102342  0  0.949814  0  0  0.105077  0  1.022019  0  0  0.107843  0  1.01885  0  0  0.135496  0.103061  0  1.02434  0
H  H8  1  0.91679693  0.68297462  0.23145779  1  0  0.116509  0  0.99072  0  0  0.118862  0  1.065506  0  0  0.121786  0  1.061749  0  0  0.139681  0.116612  0  1.068081  0
H  H9  1  0.08320266  0.31702733  0.76854498  1  0  0.116525  0  0.990656  0  0  0.11888  0  1.06545  0  0  0.121804  0  1.061693  0  0  0.139706  0.116631  0  1.068025  0
H  H10  1  0.57265287  0.68820900  0.56410363  1  0  0.088812  0  0.947184  0  0  0.097403  0  1.021769  0  0  0.098211  0  1.020641  0  0  0.11559  0.096609  0  1.022041  0
H  H11  1  0.42734608  0.31179058  0.43589441  1  0  0.088811  0  0.947159  0  0  0.097415  0  1.021756  0  0  0.098223  0  1.020627  0  0  0.115594  0.096621  0  1.022028  0
H  H12  1  0.67799798  0.89522132  0.60433782  1  0  0.105228  0  0.940058  0  0  0.114421  0  1.010652  0  0  0.115155  0  1.009873  0  0  0.120617  0.113661  0  1.010746  0
H  H13  1  0.32199965  0.10477826  0.39566213  1  0  0.105201  0  0.940094  0  0  0.114397  0  1.0107  0  0  0.115129  0  1.009923  0  0  0.120615  0.113637  0  1.010789  0
H  H14  1  0.90720836  0.84786015  0.46394520  1  0  0.102812  0  0.928176  0  0  0.113579  0  0.996744  0  0  0.114765  0  0.995695  0  0  0.122653  0.112788  0  0.996921  0
H  H15  1  0.09279359  0.15214061  0.53605579  1  0  0.102805  0  0.928204  0  0  0.113599  0  0.996739  0  0  0.114785  0  0.995688  0  0  0.122649  0.112795  0  0.996932  0
H  H16  1  0.91854013  0.74717864  0.62760800  1  0  0.094574  0  0.942617  0  0  0.107296  0  1.008408  0  0  0.107277  0  1.009367  0  0  0.119786  0.106916  0  1.008077  0
H  H17  1  0.08146184  0.25282212  0.37239628  1  0  0.09461  0  0.942664  0  0  0.107322  0  1.008455  0  0  0.107302  0  1.009413  0  0  0.119796  0.106943  0  1.008122  0
C  C18  1  0.44404419  0.91775557  0.18200202  1  0  0.214833  0  3.679432  0  0  0.158226  0  3.970987  0  0  0.170376  0  3.980446  0  0  0.154351  0.15073  0  3.962276  0
C  C19  1  0.55595344  0.08224401  0.81799793  1  0  0.214862  0  3.67952  0  0  0.158256  0  3.971053  0  0  0.170413  0  3.980511  0  0  0.154365  0.15076  0  3.962341  0
C  C20  1  0.39954166  0.69953483  0.27355626  1  0  0.183568  0  3.619824  0  0  0.103044  0  3.882881  0  0  0.128418  0  3.896901  0  0  0.165402  0.093355  0  3.876118  0
C  C21  1  0.60046203  0.30046237  0.72644260  1  0  0.183722  0  3.619822  0  0  0.103114  0  3.882881  0  0  0.128496  0  3.896903  0  0  0.165461  0.093425  0  3.876118  0
C  C22  1  0.74684525  0.35857460  0.33727945  1  0  0.208249  0  3.700431  0  0  0.153811  0  3.992367  0  0  0.165851  0  4.003555  0  0  0.148886  0.145871  0  3.984308  0
C  C23  1  0.25315804  0.64142616  0.66272183  1  0  0.208204  0  3.700376  0  0  0.153762  0  3.992313  0  0  0.165797  0  4.003503  0  0  0.148873  0.145824  0  3.984251  0
C  C24  1  0.85603411  0.58497135  0.28196144  1  0  0.184336  0  3.604115  0  0  0.104667  0  3.86607  0  0  0.121244  0  3.877303  0  0  0.166093  0.095346  0  3.858062  0
C  C25  1  0.14396919  0.41502941  0.71804094  1  0  0.184406  0  3.604024  0  0  0.104718  0  3.865982  0  0  0.121307  0  3.877213  0  0  0.166107  0.095396  0  3.857975  0
C  C26  1  0.65047390  0.78616270  0.52338709  1  0  -0.039606  0  3.62458  0  0  -0.11785  0  3.886256  0  0  -0.104846  0  3.89883  0  0  -0.047729  -0.119753  0  3.879323  0
C  C27  1  0.34952608  0.21383569  0.47661107  1  0  -0.03954  0  3.62453  0  0  -0.117851  0  3.886301  0  0  -0.104843  0  3.89887  0  0  -0.047731  -0.11975  0  3.879358  0
C  C28  1  0.83367448  0.75354473  0.51221950  1  0  -0.038049  0  3.616215  0  0  -0.114732  0  3.876399  0  0  -0.109444  0  3.884816  0  0  -0.044995  -0.116635  0  3.869129  0
C  C29  1  0.16632313  0.24645485  0.48777934  1  0  -0.038106  0  3.616378  0  0  -0.114791  0  3.876544  0  0  -0.109492  0  3.884958  0  0  -0.045024  -0.116684  0  3.869279  0
N  N30  1  0.53541936  0.80724353  0.37598485  1  0  0.047305  0  3.552993  0  0  0.167136  0  3.742316  0  0  0.126185  0  3.804727  0  0  -0.132882  0.173784  0  3.726055  0
N  N31  1  0.46458289  0.19275842  0.62401521  1  0  0.047262  0  3.552981  0  0  0.167124  0  3.742335  0  0  0.126165  0  3.804743  0  0  -0.132876  0.173774  0  3.726069  0
N  N32  1  0.56637276  0.94708119  0.31914740  1  0  -0.262375  0  2.829351  0  0  -0.260314  0  3.096016  0  0  -0.25931  0  3.11542  0  0  -0.21782  -0.254407  0  3.086874  0
N  N33  1  0.43362548  0.05292076  0.68085288  1  0  -0.262404  0  2.829421  0  0  -0.260342  0  3.096078  0  0  -0.259338  0  3.115481  0  0  -0.21784  -0.254436  0  3.086935  0
N  N34  1  0.33856966  0.76616019  0.14913225  1  0  -0.398454  0  3.286522  0  0  -0.314546  0  3.590452  0  0  -0.336081  0  3.597358  0  0  -0.345749  -0.299879  0  3.583105  0
N  N35  1  0.66143166  0.23383820  0.85086620  1  0  -0.39852  0  3.286618  0  0  -0.314587  0  3.590558  0  0  -0.336133  0  3.597471  0  0  -0.345762  -0.299918  0  3.583209  0
N  N36  1  0.81180676  0.60524849  0.41403358  1  0  0.043213  0  3.564836  0  0  0.161181  0  3.756995  0  0  0.145369  0  3.78727  0  0  -0.137878  0.168493  0  3.739366  0
N  N37  1  0.18819889  0.39475109  0.58596702  1  0  0.043164  0  3.564903  0  0  0.161153  0  3.757051  0  0  0.14532  0  3.787343  0  0  -0.137889  0.168465  0  3.73942  0
N  N38  1  0.74188412  0.46217423  0.45163638  1  0  -0.291992  0  2.856525  0  0  -0.288453  0  3.128225  0  0  -0.296071  0  3.143144  0  0  -0.227858  -0.281753  0  3.118951  0
N  N39  1  0.25811856  0.53782415  0.54836676  1  0  -0.291975  0  2.856506  0  0  -0.288442  0  3.128205  0  0  -0.296047  0  3.143119  0  0  -0.227846  -0.281742  0  3.118929  0
N  N40  1  0.81620884  0.42936188  0.23029648  1  0  -0.406468  0  3.276757  0  0  -0.325436  0  3.579683  0  0  -0.347132  0  3.589808  0  0  -0.346779  -0.310723  0  3.572202  0
N  N41  1  0.18379413  0.57063769  0.76970354  1  0  -0.40647  0  3.276767  0  0  -0.325419  0  3.579686  0  0  -0.347116  0  3.589811  0  0  -0.346775  -0.310706  0  3.572205  0
N  N42  1  0.14876275  0.89797863  0.88040247  1  0  -0.574669  0  2.752232  0  0  -0.542913  0  3.066415  0  0  -0.564308  0  3.072926  0  0  -0.303612  -0.528279  0  3.062008  0
N  N43  1  0.85123518  0.10202213  0.11959654  1  0  -0.574745  0  2.752136  0  0  -0.542996  0  3.066331  0  0  -0.564393  0  3.072842  0  0  -0.303663  -0.52836  0  3.061923  0
N  N44  1  0.06030458  0.98541099  0.82090363  1  0  0.40832  0  4.289095  0  0  0.443294  0  4.570783  0  0  0.458975  0  4.600979  0  0  0.079388  0.432848  0  4.550392  0
N  N45  1  0.93969541  0.01458740  0.17909673  1  0  0.408369  0  4.289185  0  0  0.443333  0  4.570879  0  0  0.459012  0  4.60108  0  0  0.079408  0.432886  0  4.550488  0
N  N46  1  0.97836612  0.07388498  0.75942579  1  0  -0.469273  0  2.456247  0  0  -0.465113  0  2.694036  0  0  -0.474466  0  2.703313  0  0  -0.237377  -0.458773  0  2.687932  0
N  N47  1  0.02163212  0.92611697  0.24057340  1  0  -0.469259  0  2.456445  0  0  -0.465086  0  2.694237  0  0  -0.474434  0  2.703514  0  0  -0.237358  -0.458751  0  2.688136  0
N  N48  1  0.87115847  0.59264664  0.94430843  1  0  -0.622923  0  2.79507  0  0  -0.576267  0  3.120672  0  0  -0.599895  0  3.122949  0  0  -0.323832  -0.560355  0  3.1197  0
N  N49  1  0.12883748  0.40735175  0.05568775  1  0  -0.622746  0  2.7955  0  0  -0.576104  0  3.121058  0  0  -0.599725  0  3.123327  0  0  -0.323713  -0.560191  0  3.120092  0
N  N50  1  0.75060572  0.66542577  0.92964023  1  0  0.396496  0  4.225948  0  0  0.432128  0  4.503977  0  0  0.446893  0  4.532991  0  0  0.080938  0.422304  0  4.484116  0
N  N51  1  0.24938480  0.33457737  0.07035847  1  0  0.396332  0  4.226196  0  0  0.43201  0  4.504198  0  0  0.44678  0  4.533208  0  0  0.080802  0.422179  0  4.484348  0
N  N52  1  0.62817347  0.72817846  0.91515600  1  0  -0.363881  0  2.395161  0  0  -0.365645  0  2.617638  0  0  -0.370515  0  2.628814  0  0  -0.18737  -0.362034  0  2.609784  0
N  N53  1  0.37182685  0.27182111  0.08484672  1  0  -0.363918  0  2.394905  0  0  -0.365716  0  2.617367  0  0  -0.370597  0  2.628544  0  0  -0.187388  -0.362097  0  2.609517  0
