# generated using pymatgen
data_CdH24C26(N2O3)2
_symmetry_space_group_name_H-M   'P 1'
_cell_length_a   10.15845530
_cell_length_b   10.96467779
_cell_length_c   12.66909511
_cell_angle_alpha   86.68213481
_cell_angle_beta   79.80904080
_cell_angle_gamma   65.43101594
_symmetry_Int_Tables_number   1
_chemical_formula_structural   CdH24C26(N2O3)2
_chemical_formula_sum   'Cd2 H48 C52 N8 O12'
_cell_volume   1262.93325007
_cell_formula_units_Z   2
loop_
 _symmetry_equiv_pos_site_id
 _symmetry_equiv_pos_as_xyz
  1  'x, y, z'
loop_
 _atom_site_type_symbol
 _atom_site_label
 _atom_site_symmetry_multiplicity
 _atom_site_fract_x
 _atom_site_fract_y
 _atom_site_fract_z
 _atom_site_occupancy
 _atom_site_hle17_bader_spin_density
 _atom_site_hle17_ddec_charge
 _atom_site_hle17_ddec_spin_density
 _atom_site_hle17_ddec_sum_bond_order
 _atom_site_hle17_magmom
 _atom_site_hse06_10hf_bader_spin_density
 _atom_site_hse06_10hf_ddec_charge
 _atom_site_hse06_10hf_ddec_spin_density
 _atom_site_hse06_10hf_ddec_sum_bond_order
 _atom_site_hse06_10hf_magmom
 _atom_site_hse06_bader_spin_density
 _atom_site_hse06_ddec_charge
 _atom_site_hse06_ddec_spin_density
 _atom_site_hse06_ddec_sum_bond_order
 _atom_site_hse06_magmom
 _atom_site_pbe_bader_spin_density
 _atom_site_pbe_cm5_charge
 _atom_site_pbe_ddec_charge
 _atom_site_pbe_ddec_spin_density
 _atom_site_pbe_ddec_sum_bond_order
 _atom_site_pbe_magmom
Cd  Cd0  1  0.08089449  0.12532618  0.04432521  1  0  1.101596  0  1.681634  0  0  0.907458  0  2.125955  0  0  0.967172  0  2.074736  0  0  0.764214  0.862176  0  2.162291  0
Cd  Cd1  1  0.91910988  0.87467582  0.95567717  1  0  1.101604  0  1.681706  0  0  0.907456  0  2.12604  0  0  0.967172  0  2.074815  0  0  0.764218  0.86217  0  2.162376  0
H  H2  1  0.89955814  0.97659547  0.19480079  1  0  0.100356  0  0.942732  0  0  0.108733  0  1.005917  0  0  0.111622  0  1.002889  0  0  0.122394  0.106472  0  1.008353  0
H  H3  1  0.10044268  0.02340552  0.80519742  1  0  0.10036  0  0.942711  0  0  0.108731  0  1.005896  0  0  0.111621  0  1.002867  0  0  0.122396  0.10647  0  1.008332  0
H  H4  1  0.90626882  0.84807497  0.36599974  1  0  0.102001  0  0.943812  0  0  0.115114  0  0.996069  0  0  0.11873  0  0.994608  0  0  0.109524  0.112384  0  0.997595  0
H  H5  1  0.09372410  0.15192803  0.63399711  1  0  0.101992  0  0.943838  0  0  0.115079  0  0.996117  0  0  0.118693  0  0.99466  0  0  0.109511  0.112349  0  0.997642  0
H  H6  1  0.34049361  0.72786953  0.47865752  1  0  0.296633  0  0.927615  0  0  0.280672  0  0.994917  0  0  0.287807  0  0.98934  0  0  0.304137  0.275604  0  0.998923  0
H  H7  1  0.65950321  0.27213146  0.52133652  1  0  0.296616  0  0.927639  0  0  0.280679  0  0.994929  0  0  0.287813  0  0.989353  0  0  0.304135  0.275612  0  0.998934  0
H  H8  1  0.10752138  0.80817272  0.47019281  1  0  0.110945  0  0.960196  0  0  0.120821  0  1.020715  0  0  0.124588  0  1.01732  0  0  0.110566  0.118071  0  1.023156  0
H  H9  1  0.89246888  0.19182729  0.52981089  1  0  0.11096  0  0.960161  0  0  0.120791  0  1.020735  0  0  0.124559  0  1.017338  0  0  0.110508  0.118042  0  1.023178  0
H  H10  1  0.69899418  0.68897710  0.40166534  1  0  0.288985  0  0.885067  0  0  0.282201  0  0.933835  0  0  0.288055  0  0.930243  0  0  0.323966  0.277944  0  0.936642  0
H  H11  1  0.30101380  0.31101687  0.59833301  1  0  0.288955  0  0.88514  0  0  0.28216  0  0.933924  0  0  0.288015  0  0.930334  0  0  0.323949  0.277902  0  0.936731  0
H  H12  1  0.26267859  0.04053795  0.23412361  1  0  0.106287  0  0.926251  0  0  0.112295  0  0.992434  0  0  0.115938  0  0.988748  0  0  0.126498  0.109524  0  0.995293  0
H  H13  1  0.73731821  0.95946307  0.76588305  1  0  0.106337  0  0.926152  0  0  0.112349  0  0.992336  0  0  0.115993  0  0.988649  0  0  0.126522  0.109576  0  0.995193  0
H  H14  1  0.52637758  0.86191837  0.52569509  1  0  0.074252  0  0.923614  0  0  0.085063  0  0.984933  0  0  0.087127  0  0.98265  0  0  0.117074  0.083295  0  0.987098  0
H  H15  1  0.47361388  0.13808564  0.47430665  1  0  0.074257  0  0.923637  0  0  0.085083  0  0.984921  0  0  0.087143  0  0.982643  0  0  0.117059  0.083314  0  0.987084  0
H  H16  1  0.32501821  0.76878125  0.68475024  1  0  0.057339  0  0.94248  0  0  0.075201  0  1.007968  0  0  0.075517  0  1.008501  0  0  0.084736  0.074938  0  1.007508  0
H  H17  1  0.67498294  0.23120570  0.31524549  1  0  0.057346  0  0.942442  0  0  0.075184  0  1.007979  0  0  0.075508  0  1.008504  0  0  0.084671  0.074921  0  1.007519  0
H  H18  1  0.30143012  0.93607344  0.65765058  1  0  0.067769  0  0.95555  0  0  0.08528  0  1.018184  0  0  0.085378  0  1.019431  0  0  0.09046  0.085055  0  1.017659  0
H  H19  1  0.69856447  0.06391253  0.34235403  1  0  0.06786  0  0.955478  0  0  0.085382  0  1.018098  0  0  0.08548  0  1.019349  0  0  0.090503  0.085157  0  1.017573  0
H  H20  1  0.52623615  0.89850215  0.72911821  1  0  0.080368  0  0.940539  0  0  0.100276  0  0.997432  0  0  0.101428  0  0.99731  0  0  0.090498  0.09928  0  0.997748  0
H  H21  1  0.47375764  0.10148781  0.27087921  1  0  0.080358  0  0.940566  0  0  0.100226  0  0.99747  0  0  0.101389  0  0.99733  0  0  0.090491  0.099234  0  0.997781  0
H  H22  1  0.40500641  0.85457344  0.82535268  1  0  0.075991  0  0.969348  0  0  0.092669  0  1.031486  0  0  0.093141  0  1.032082  0  0  0.088262  0.092134  0  1.031292  0
H  H23  1  0.59499093  0.14541753  0.17464576  1  0  0.075961  0  0.96938  0  0  0.092624  0  1.031495  0  0  0.093095  0  1.032088  0  0  0.088258  0.09209  0  1.031301  0
H  H24  1  0.54937331  0.61374555  0.77907477  1  0  0.050888  0  0.95592  0  0  0.070687  0  1.018232  0  0  0.070394  0  1.019907  0  0  0.082319  0.07078  0  1.01714  0
H  H25  1  0.45063439  0.38624241  0.22092551  1  0  0.050947  0  0.955967  0  0  0.070746  0  1.018252  0  0  0.070451  0  1.01993  0  0  0.08235  0.070839  0  1.01716  0
H  H26  1  0.66814654  0.68240882  0.80853236  1  0  0.069526  0  0.948816  0  0  0.086207  0  1.01209  0  0  0.086329  0  1.013844  0  0  0.087243  0.085966  0  1.011061  0
H  H27  1  0.33185308  0.31758817  0.19146860  1  0  0.069527  0  0.948826  0  0  0.086203  0  1.01209  0  0  0.086325  0  1.013844  0  0  0.087257  0.085964  0  1.011059  0
H  H28  1  0.77593023  0.53699219  0.63979669  1  0  0.067554  0  0.941479  0  0  0.083524  0  1.004179  0  0  0.083964  0  1.00542  0  0  0.085112  0.083227  0  1.003235  0
H  H29  1  0.22406794  0.46300580  0.36020126  1  0  0.067608  0  0.941504  0  0  0.083555  0  1.004201  0  0  0.083996  0  1.00544  0  0  0.085115  0.083257  0  1.003257  0
H  H30  1  0.74998880  0.70598649  0.61523182  1  0  0.078091  0  0.926792  0  0  0.095316  0  0.987025  0  0  0.096691  0  0.98685  0  0  0.090888  0.094338  0  0.987046  0
H  H31  1  0.25001101  0.29401451  0.38477047  1  0  0.078148  0  0.926853  0  0  0.095328  0  0.987098  0  0  0.096702  0  0.986925  0  0  0.090891  0.094352  0  0.987116  0
H  H32  1  0.54919719  0.57622809  0.57145007  1  0  0.05032  0  0.905883  0  0  0.063114  0  0.966936  0  0  0.064017  0  0.965778  0  0  0.10992  0.062258  0  0.967978  0
H  H33  1  0.45080399  0.42376990  0.42854903  1  0  0.050294  0  0.90594  0  0  0.063079  0  0.967006  0  0  0.063981  0  0.965848  0  0  0.109912  0.062207  0  0.968065  0
H  H34  1  0.87774271  0.27362168  0.27768465  1  0  0.081155  0  0.949575  0  0  0.085112  0  1.021575  0  0  0.088509  0  1.018301  0  0  0.115355  0.082549  0  1.023987  0
H  H35  1  0.12225946  0.72637631  0.72231589  1  0  0.081211  0  0.949656  0  0  0.085138  0  1.021676  0  0  0.088535  0  1.0184  0  0  0.115368  0.082578  0  1.024087  0
H  H36  1  0.90251689  0.65263958  0.31233776  1  0  0.084925  0  0.95158  0  0  0.096568  0  1.012995  0  0  0.099658  0  1.009807  0  0  0.109437  0.094485  0  1.015122  0
H  H37  1  0.09748002  0.34736343  0.68766169  1  0  0.084962  0  0.951547  0  0  0.09658  0  1.012981  0  0  0.099687  0  1.009776  0  0  0.109432  0.094497  0  1.015109  0
H  H38  1  0.06631034  0.60759098  0.13414512  1  0  0.133942  0  0.983595  0  0  0.140954  0  1.043151  0  0  0.145561  0  1.040502  0  0  0.113141  0.137604  0  1.045379  0
H  H39  1  0.93368967  0.39241404  0.86585615  1  0  0.13395  0  0.983571  0  0  0.140968  0  1.043131  0  0  0.14557  0  1.040481  0  0  0.113134  0.137617  0  1.045359  0
H  H40  1  0.12944077  0.39397668  0.03660184  1  0  0.078739  0  0.949006  0  0  0.087206  0  1.012242  0  0  0.089041  0  1.011228  0  0  0.119632  0.085708  0  1.013123  0
H  H41  1  0.87056414  0.60602633  0.96340041  1  0  0.078676  0  0.949044  0  0  0.087175  0  1.012254  0  0  0.088995  0  1.011258  0  0  0.119608  0.085675  0  1.013136  0
H  H42  1  0.72228032  0.37761672  0.82546708  1  0  0.092089  0  0.956832  0  0  0.102249  0  1.021227  0  0  0.105394  0  1.019121  0  0  0.101959  0.099874  0  1.022895  0
H  H43  1  0.27771626  0.62240033  0.17453800  1  0  0.092208  0  0.956688  0  0  0.102377  0  1.021075  0  0  0.105522  0  1.01896  0  0  0.10202  0.099994  0  1.022751  0
H  H44  1  0.50530181  0.44005904  0.73336506  1  0  0.083926  0  0.95928  0  0  0.094421  0  1.021107  0  0  0.098007  0  1.019277  0  0  0.094691  0.091916  0  1.022342  0
H  H45  1  0.49469493  0.55995101  0.26664273  1  0  0.083998  0  0.959163  0  0  0.094495  0  1.020993  0  0  0.098092  0  1.019137  0  0  0.094715  0.091989  0  1.022228  0
H  H46  1  0.32389692  0.34012343  0.79409235  1  0  0.079132  0  0.998834  0  0  0.085003  0  1.072118  0  0  0.087766  0  1.070661  0  0  0.090659  0.083043  0  1.073159  0
H  H47  1  0.67611081  0.65987555  0.20590577  1  0  0.079065  0  0.998867  0  0  0.084944  0  1.072151  0  0  0.087708  0  1.070694  0  0  0.090623  0.082986  0  1.07319  0
H  H48  1  0.57831215  0.11304471  0.02901516  1  0  0.109811  0  0.971843  0  0  0.11684  0  1.038456  0  0  0.120581  0  1.035059  0  0  0.109526  0.114113  0  1.040852  0
H  H49  1  0.42169758  0.88695426  0.97098031  1  0  0.109793  0  0.971786  0  0  0.116828  0  1.03839  0  0  0.120568  0  1.034991  0  0  0.10955  0.114102  0  1.040785  0
C  C50  1  0.98368777  0.95872228  0.24382349  1  0  0.133284  0  3.68043  0  0  0.097259  0  3.938968  0  0  0.106345  0  3.956187  0  0  0.051733  0.091593  0  3.926989  0
C  C51  1  0.01630979  0.04128374  0.75617729  1  0  0.133368  0  3.680206  0  0  0.097364  0  3.938726  0  0  0.106452  0  3.95594  0  0  0.051765  0.091698  0  3.926747  0
C  C52  1  0.98965673  0.88606027  0.33800929  1  0  -0.116405  0  3.73808  0  0  -0.126387  0  3.992379  0  0  -0.134761  0  4.013147  0  0  -0.082668  -0.121008  0  3.978313  0
C  C53  1  0.01033628  0.11394474  0.66198982  1  0  -0.116409  0  3.738175  0  0  -0.126364  0  3.992434  0  0  -0.134738  0  4.013204  0  0  -0.082654  -0.120985  0  3.978369  0
C  C54  1  0.10059250  0.86568973  0.39665342  1  0  -0.025637  0  3.692497  0  0  -0.055026  0  3.937546  0  0  -0.049644  0  3.954866  0  0  -0.063144  -0.05844  0  3.925831  0
C  C55  1  0.89939896  0.13431430  0.60334991  1  0  -0.025636  0  3.692822  0  0  -0.054994  0  3.937837  0  0  -0.049611  0  3.955157  0  0  -0.063095  -0.058408  0  3.926122  0
C  C56  1  0.20174880  0.92115697  0.35984398  1  0  -0.095419  0  3.749564  0  0  -0.067289  0  3.982569  0  0  -0.078856  0  4.006741  0  0  -0.005374  -0.060118  0  3.966779  0
C  C57  1  0.79824757  0.07884505  0.64015876  1  0  -0.095426  0  3.749737  0  0  -0.067272  0  3.982702  0  0  -0.078839  0  4.006877  0  0  -0.005362  -0.060104  0  3.966909  0
C  C58  1  0.18665409  0.99513117  0.26558496  1  0  0.126196  0  3.654273  0  0  0.084352  0  3.904142  0  0  0.093381  0  3.921325  0  0  0.061587  0.078411  0  3.892532  0
C  C59  1  0.81334237  0.00487286  0.73442002  1  0  0.126124  0  3.65426  0  0  0.084265  0  3.904144  0  0  0.093295  0  3.921332  0  0  0.061578  0.078327  0  3.892527  0
C  C60  1  0.31976887  0.91328488  0.41984593  1  0  0.536081  0  3.886535  0  0  0.488844  0  4.179538  0  0  0.518081  0  4.180012  0  0  0.233848  0.469228  0  4.178367  0
C  C61  1  0.68021959  0.08671914  0.58015704  1  0  0.536164  0  3.886346  0  0  0.488946  0  4.179382  0  0  0.518183  0  4.179853  0  0  0.233897  0.469334  0  4.178207  0
C  C62  1  0.47661721  0.79055493  0.55099104  1  0  0.118891  0  3.596053  0  0  0.098284  0  3.837963  0  0  0.102156  0  3.851868  0  0  0.010894  0.095573  0  3.828623  0
C  C63  1  0.52338151  0.20944407  0.44901072  1  0  0.118683  0  3.596407  0  0  0.098122  0  3.838304  0  0  0.101995  0  3.852209  0  0  0.010893  0.095419  0  3.828956  0
C  C64  1  0.38454205  0.83348744  0.66276673  1  0  -0.141918  0  3.67044  0  0  -0.185878  0  3.929386  0  0  -0.187485  0  3.944477  0  0  -0.163262  -0.184488  0  3.918647  0
C  C65  1  0.61545374  0.16650253  0.33723514  1  0  -0.141944  0  3.670398  0  0  -0.185947  0  3.929347  0  0  -0.187567  0  3.944448  0  0  -0.163212  -0.184557  0  3.918612  0
C  C66  1  0.47713642  0.82572922  0.74742488  1  0  -0.112834  0  3.674282  0  0  -0.15097  0  3.929967  0  0  -0.152068  0  3.944088  0  0  -0.172766  -0.149932  0  3.920098  0
C  C67  1  0.52285655  0.17426476  0.25257323  1  0  -0.11285  0  3.674309  0  0  -0.150874  0  3.929845  0  0  -0.151974  0  3.943963  0  0  -0.172747  -0.149839  0  3.919979  0
C  C68  1  0.59847280  0.68487157  0.75057951  1  0  -0.097496  0  3.687026  0  0  -0.13562  0  3.94578  0  0  -0.1368  0  3.961939  0  0  -0.168878  -0.134628  0  3.934608  0
C  C69  1  0.40152828  0.31512442  0.24942129  1  0  -0.097529  0  3.687309  0  0  -0.135666  0  3.94597  0  0  -0.13685  0  3.962132  0  0  -0.16892  -0.134674  0  3.934801  0
C  C70  1  0.69201525  0.64057756  0.63944140  1  0  -0.163467  0  3.660112  0  0  -0.206243  0  3.919709  0  0  -0.208833  0  3.934863  0  0  -0.165518  -0.204299  0  3.909124  0
C  C71  1  0.30798037  0.35941942  0.36055539  1  0  -0.163573  0  3.660175  0  0  -0.20627  0  3.919702  0  0  -0.208863  0  3.934861  0  0  -0.165507  -0.204323  0  3.909112  0
C  C72  1  0.59841104  0.64932535  0.55362882  1  0  0.143293  0  3.583127  0  0  0.12017  0  3.832486  0  0  0.124711  0  3.846348  0  0  0.017376  0.11712  0  3.823154  0
C  C73  1  0.40159214  0.35067263  0.44636842  1  0  0.143399  0  3.582954  0  0  0.12026  0  3.832265  0  0  0.124803  0  3.846126  0  0  0.017354  0.117213  0  3.822933  0
C  C74  1  0.77006467  0.48550025  0.41198393  1  0  0.545793  0  3.876644  0  0  0.497654  0  4.168302  0  0  0.527365  0  4.167861  0  0  0.24029  0.477677  0  4.167904  0
C  C75  1  0.22992925  0.51450275  0.58801357  1  0  0.545991  0  3.876604  0  0  0.497842  0  4.168275  0  0  0.527557  0  4.167829  0  0  0.240281  0.477863  0  4.167881  0
C  C76  1  0.87404034  0.46693843  0.30853681  1  0  -0.118969  0  3.777538  0  0  -0.09189  0  4.011491  0  0  -0.103372  0  4.035408  0  0  -0.011684  -0.084673  0  3.995593  0
C  C77  1  0.12595657  0.53306456  0.69146026  1  0  -0.118931  0  3.777569  0  0  -0.091832  0  4.011492  0  0  -0.103315  0  4.035413  0  0  -0.011611  -0.084613  0  3.995595  0
C  C78  1  0.91748723  0.34964469  0.24794567  1  0  0.125887  0  3.683372  0  0  0.087139  0  3.930564  0  0  0.095179  0  3.947977  0  0  0.057079  0.082089  0  3.918507  0
C  C79  1  0.08251804  0.65035529  0.75205274  1  0  0.125792  0  3.683636  0  0  0.087075  0  3.930806  0  0  0.095116  0  3.948217  0  0  0.057063  0.082025  0  3.918748  0
C  C80  1  0.93016945  0.56045318  0.26805815  1  0  -0.015972  0  3.710214  0  0  -0.046851  0  3.963116  0  0  -0.041257  0  3.979017  0  0  -0.059069  -0.05021  0  3.952382  0
C  C81  1  0.06983001  0.43955082  0.73194009  1  0  -0.016074  0  3.710263  0  0  -0.046935  0  3.963165  0  0  -0.041354  0  3.97906  0  0  -0.05907  -0.050291  0  3.95243  0
C  C82  1  0.02321808  0.53573710  0.16951691  1  0  -0.103773  0  3.684759  0  0  -0.115899  0  3.938586  0  0  -0.122909  0  3.956923  0  0  -0.07417  -0.111756  0  3.926932  0
C  C83  1  0.97678529  0.46426489  0.83048246  1  0  -0.103725  0  3.684617  0  0  -0.115837  0  3.938425  0  0  -0.12284  0  3.956759  0  0  -0.074126  -0.111693  0  3.926769  0
C  C84  1  0.05811216  0.41711562  0.11459131  1  0  0.146536  0  3.675214  0  0  0.114201  0  3.928362  0  0  0.122488  0  3.945363  0  0  0.059635  0.108912  0  3.916823  0
C  C85  1  0.94189330  0.58288839  0.88541003  1  0  0.146574  0  3.675066  0  0  0.114206  0  3.928235  0  0  0.122504  0  3.94524  0  0  0.059624  0.108917  0  3.916694  0
C  C86  1  0.80019208  0.19485758  0.98235200  1  0  0.640486  0  3.919356  0  0  0.588376  0  4.207787  0  0  0.62366  0  4.201593  0  0  0.198052  0.56459  0  4.21079  0
C  C87  1  0.19981219  0.80514241  0.01764892  1  0  0.640536  0  3.919474  0  0  0.588346  0  4.207961  0  0  0.623641  0  4.201765  0  0  0.198035  0.564558  0  4.210967  0
C  C88  1  0.66511514  0.24038499  0.93249237  1  0  -0.083615  0  3.772515  0  0  -0.055173  0  4.004295  0  0  -0.066285  0  4.028927  0  0  -0.023668  -0.048253  0  3.987932  0
C  C89  1  0.33489004  0.75961299  0.06750616  1  0  -0.083684  0  3.772678  0  0  -0.055162  0  4.004392  0  0  -0.06632  0  4.029078  0  0  -0.023662  -0.048239  0  3.988028  0
C  C90  1  0.64285370  0.33417668  0.84975029  1  0  -0.052838  0  3.72313  0  0  -0.081343  0  3.972093  0  0  -0.078231  0  3.991314  0  0  -0.081629  -0.082907  0  3.959053  0
C  C91  1  0.35714550  0.66583235  0.15025168  1  0  -0.052912  0  3.723095  0  0  -0.081461  0  3.972057  0  0  -0.078329  0  3.991293  0  0  -0.081653  -0.08302  0  3.95902  0
C  C92  1  0.52143221  0.36907206  0.79889088  1  0  -0.092283  0  3.796811  0  0  -0.104682  0  4.056736  0  0  -0.110105  0  4.078063  0  0  -0.099903  -0.101043  0  4.042098  0
C  C93  1  0.47857344  0.63093596  0.20111259  1  0  -0.092403  0  3.79683  0  0  -0.104806  0  4.056775  0  0  -0.110229  0  4.078104  0  0  -0.099977  -0.101166  0  4.042136  0
C  C94  1  0.42018077  0.31334094  0.83187020  1  0  -0.055578  0  3.733251  0  0  -0.082926  0  3.980938  0  0  -0.079903  0  4.000024  0  0  -0.086009  -0.084645  0  3.967831  0
C  C95  1  0.57982560  0.68666105  0.16812875  1  0  -0.055419  0  3.733321  0  0  -0.082783  0  3.980973  0  0  -0.079759  0  4.000062  0  0  -0.085966  -0.084499  0  3.967864  0
C  C96  1  0.43882795  0.22309813  0.91655190  1  0  -0.059247  0  3.748032  0  0  -0.030647  0  3.975674  0  0  -0.040383  0  3.998252  0  0  -0.016261  -0.024517  0  3.960639  0
C  C97  1  0.56117496  0.77690486  0.08344590  1  0  -0.05945  0  3.74816  0  0  -0.030796  0  3.975765  0  0  -0.040536  0  3.998343  0  0  -0.016287  -0.024663  0  3.960728  0
C  C98  1  0.32355858  0.17247761  0.95859762  1  0  0.619317  0  3.946175  0  0  0.572783  0  4.23437  0  0  0.607292  0  4.228784  0  0  0.187554  0.549389  0  4.237266  0
C  C99  1  0.67644915  0.82752136  0.04139655  1  0  0.619539  0  3.946117  0  0  0.572956  0  4.234356  0  0  0.607467  0  4.228769  0  0  0.187709  0.549562  0  4.237249  0
C  C100  1  0.56251839  0.18586086  0.96545393  1  0  -0.048272  0  3.681621  0  0  -0.086054  0  3.927308  0  0  -0.082003  0  3.945498  0  0  -0.070738  -0.087905  0  3.915078  0
C  C101  1  0.43748779  0.81413712  0.03454209  1  0  -0.048204  0  3.681614  0  0  -0.08603  0  3.927278  0  0  -0.081959  0  3.945478  0  0  -0.070811  -0.087887  0  3.91505  0
N  N102  1  0.08090039  0.01225909  0.20849238  1  0  -0.342693  0  3.276385  0  0  -0.262762  0  3.545013  0  0  -0.285284  0  3.565695  0  0  -0.326059  -0.247317  0  3.529996  0
N  N103  1  0.91909951  0.98774393  0.79151216  1  0  -0.34275  0  3.276199  0  0  -0.262835  0  3.544868  0  0  -0.285357  0  3.565544  0  0  -0.326092  -0.24739  0  3.529851  0
N  N104  1  0.00677179  0.32546133  0.15310943  1  0  -0.316749  0  3.235482  0  0  -0.244674  0  3.500135  0  0  -0.263588  0  3.518272  0  0  -0.31804  -0.231711  0  3.487021  0
N  N105  1  0.99323603  0.67453965  0.84688857  1  0  -0.316728  0  3.235561  0  0  -0.244655  0  3.500215  0  0  -0.26357  0  3.518349  0  0  -0.31805  -0.231693  0  3.487099  0
N  N106  1  0.38262587  0.79856261  0.47348668  1  0  -0.464589  0  3.294946  0  0  -0.418491  0  3.55091  0  0  -0.440432  0  3.560378  0  0  -0.422559  -0.403227  0  3.543897  0
N  N107  1  0.61737431  0.20143537  0.52650941  1  0  -0.464422  0  3.295068  0  0  -0.418432  0  3.55111  0  0  -0.440368  0  3.560568  0  0  -0.422566  -0.403175  0  3.544096  0
N  N108  1  0.69085131  0.61303712  0.44814136  1  0  -0.442406  0  3.319474  0  0  -0.396442  0  3.574829  0  0  -0.417266  0  3.584076  0  0  -0.413432  -0.38221  0  3.568186  0
N  N109  1  0.30915031  0.38695987  0.55185930  1  0  -0.442555  0  3.319442  0  0  -0.396548  0  3.574765  0  0  -0.417381  0  3.584014  0  0  -0.413418  -0.38231  0  3.568117  0
O  O110  1  0.88049722  0.25958070  0.96334187  1  0  -0.620658  0  2.021467  0  0  -0.554567  0  2.260068  0  0  -0.583731  0  2.251584  0  0  -0.318008  -0.533242  0  2.265486  0
O  O111  1  0.11950460  0.74042030  0.03666172  1  0  -0.620714  0  2.02156  0  0  -0.554545  0  2.260134  0  0  -0.583711  0  2.251647  0  0  -0.318008  -0.533221  0  2.265552  0
O  O112  1  0.22500244  0.18880111  0.90173184  1  0  -0.647164  0  1.914344  0  0  -0.585985  0  2.147118  0  0  -0.614765  0  2.138507  0  0  -0.345757  -0.564879  0  2.152944  0
O  O113  1  0.77500609  0.81119385  0.09826321  1  0  -0.647178  0  1.914364  0  0  -0.585984  0  2.147171  0  0  -0.614765  0  2.138557  0  0  -0.345725  -0.564876  0  2.152993  0
O  O114  1  0.32301791  0.12219494  0.05176150  1  0  -0.629197  0  1.937799  0  0  -0.572531  0  2.176487  0  0  -0.60131  0  2.169614  0  0  -0.326004  -0.551866  0  2.180122  0
O  O115  1  0.67698746  0.87780704  0.94823285  1  0  -0.629263  0  1.937779  0  0  -0.572609  0  2.176522  0  0  -0.601389  0  2.169647  0  0  -0.326084  -0.551941  0  2.180154  0
O  O116  1  0.83443002  0.09009053  0.04088701  1  0  -0.67471  0  2.026536  0  0  -0.602626  0  2.281019  0  0  -0.632143  0  2.268721  0  0  -0.334209  -0.581156  0  2.288429  0
O  O117  1  0.16557725  0.90990947  0.95911428  1  0  -0.674734  0  2.026564  0  0  -0.602655  0  2.281114  0  0  -0.632198  0  2.268875  0  0  -0.334219  -0.581187  0  2.288529  0
O  O118  1  0.35439288  0.00989393  0.41867702  1  0  -0.55596  0  1.905959  0  0  -0.521413  0  2.12748  0  0  -0.541511  0  2.120788  0  0  -0.305012  -0.507462  0  2.131832  0
O  O119  1  0.64559266  0.99011212  0.58133019  1  0  -0.55605  0  1.905872  0  0  -0.521509  0  2.127413  0  0  -0.54161  0  2.120718  0  0  -0.305085  -0.507558  0  2.13176  0
O  O120  1  0.75784622  0.38716812  0.46060524  1  0  -0.580565  0  1.951459  0  0  -0.539679  0  2.181314  0  0  -0.560145  0  2.173044  0  0  -0.306448  -0.525431  0  2.186335  0
O  O121  1  0.24215076  0.61282584  0.53938756  1  0  -0.58057  0  1.951529  0  0  -0.539739  0  2.18144  0  0  -0.5602  0  2.173159  0  0  -0.306475  -0.525495  0  2.186471  0
