# generated using pymatgen
data_CdH22C32(N2O3)2
_symmetry_space_group_name_H-M   'P 1'
_cell_length_a   7.72305694
_cell_length_b   14.17646001
_cell_length_c   14.17765141
_cell_angle_alpha   79.19655309
_cell_angle_beta   74.15027613
_cell_angle_gamma   74.11613076
_symmetry_Int_Tables_number   1
_chemical_formula_structural   CdH22C32(N2O3)2
_chemical_formula_sum   'Cd2 H44 C64 N8 O12'
_cell_volume   1425.52783709
_cell_formula_units_Z   2
loop_
 _symmetry_equiv_pos_site_id
 _symmetry_equiv_pos_as_xyz
  1  'x, y, z'
loop_
 _atom_site_type_symbol
 _atom_site_label
 _atom_site_symmetry_multiplicity
 _atom_site_fract_x
 _atom_site_fract_y
 _atom_site_fract_z
 _atom_site_occupancy
 _atom_site_hle17_bader_spin_density
 _atom_site_hle17_ddec_charge
 _atom_site_hle17_ddec_spin_density
 _atom_site_hle17_ddec_sum_bond_order
 _atom_site_hle17_magmom
 _atom_site_hse06_10hf_bader_spin_density
 _atom_site_hse06_10hf_ddec_charge
 _atom_site_hse06_10hf_ddec_spin_density
 _atom_site_hse06_10hf_ddec_sum_bond_order
 _atom_site_hse06_10hf_magmom
 _atom_site_hse06_bader_spin_density
 _atom_site_hse06_ddec_charge
 _atom_site_hse06_ddec_spin_density
 _atom_site_hse06_ddec_sum_bond_order
 _atom_site_hse06_magmom
 _atom_site_pbe_bader_spin_density
 _atom_site_pbe_cm5_charge
 _atom_site_pbe_ddec_charge
 _atom_site_pbe_ddec_spin_density
 _atom_site_pbe_ddec_sum_bond_order
 _atom_site_pbe_magmom
Cd  Cd0  1  0.07232317  0.24976753  0.74965281  1  0  1.051927  0  1.721593  0  0  0.855397  0  2.166554  0  0  0.913681  0  2.116643  0  0  0.771394  0.81434  0  2.200432  0
Cd  Cd1  1  0.92767188  0.75023416  0.25034425  1  0  1.05196  0  1.721525  0  0  0.855441  0  2.166491  0  0  0.913726  0  2.116576  0  0  0.771401  0.814379  0  2.200377  0
H  H2  1  0.57662984  0.39666125  0.65219515  1  0  0.099626  0  0.95614  0  0  0.108015  0  1.018917  0  0  0.111344  0  1.017637  0  0  0.101412  0.105639  0  1.019909  0
H  H3  1  0.62400051  0.10361088  0.84767378  1  0  0.100634  0  0.956062  0  0  0.109127  0  1.018721  0  0  0.1124  0  1.017481  0  0  0.101714  0.106785  0  1.019684  0
H  H4  1  0.42337998  0.60333752  0.34780630  1  0  0.099599  0  0.956138  0  0  0.10798  0  1.018935  0  0  0.111307  0  1.017659  0  0  0.101401  0.105601  0  1.019928  0
H  H5  1  0.37600001  0.89637965  0.15231741  1  0  0.10049  0  0.956146  0  0  0.109031  0  1.018758  0  0  0.112305  0  1.017514  0  0  0.101646  0.106689  0  1.019719  0
H  H6  1  0.20028977  0.50724711  0.46142020  1  0  0.097285  0  0.955503  0  0  0.104965  0  1.022633  0  0  0.108995  0  1.019233  0  0  0.09901  0.102038  0  1.025191  0
H  H7  1  0.16933459  0.99173847  0.03894543  1  0  0.098305  0  0.955555  0  0  0.105883  0  1.022735  0  0  0.1099  0  1.019369  0  0  0.099529  0.102952  0  1.025283  0
H  H8  1  0.79971982  0.49275017  0.53857963  1  0  0.097242  0  0.955482  0  0  0.104887  0  1.022654  0  0  0.108913  0  1.019259  0  0  0.099016  0.101957  0  1.025209  0
H  H9  1  0.83066364  0.00825874  0.96104830  1  0  0.098306  0  0.955507  0  0  0.105928  0  1.022657  0  0  0.109943  0  1.01929  0  0  0.099544  0.102995  0  1.025203  0
H  H10  1  0.05079997  0.03327814  0.80039643  1  0  0.08895  0  0.954817  0  0  0.097686  0  1.019652  0  0  0.100045  0  1.018024  0  0  0.118534  0.095908  0  1.020956  0
H  H11  1  0.88530473  0.46665087  0.69927804  1  0  0.088645  0  0.954162  0  0  0.097799  0  1.018607  0  0  0.100073  0  1.017107  0  0  0.118534  0.096083  0  1.019823  0
H  H12  1  0.94918650  0.96672728  0.19960307  1  0  0.089009  0  0.954855  0  0  0.097725  0  1.019691  0  0  0.100081  0  1.018069  0  0  0.118554  0.095947  0  1.020998  0
H  H13  1  0.11468782  0.53335680  0.30072488  1  0  0.08862  0  0.954176  0  0  0.097764  0  1.018641  0  0  0.100037  0  1.017138  0  0  0.118479  0.096042  0  1.01986  0
H  H14  1  0.82807905  0.94312832  0.59294751  1  0  0.118421  0  0.973908  0  0  0.125944  0  1.034985  0  0  0.128858  0  1.033963  0  0  0.111155  0.123756  0  1.035876  0
H  H15  1  0.36455154  0.55687068  0.90712937  1  0  0.119142  0  0.973133  0  0  0.126487  0  1.034536  0  0  0.129461  0  1.033287  0  0  0.111456  0.124349  0  1.035451  0
H  H16  1  0.17193334  0.05687184  0.40704520  1  0  0.118475  0  0.97384  0  0  0.125973  0  1.034961  0  0  0.128947  0  1.033865  0  0  0.111197  0.123781  0  1.03586  0
H  H17  1  0.63544821  0.44312817  0.09287944  1  0  0.119104  0  0.973026  0  0  0.126485  0  1.034404  0  0  0.129457  0  1.033156  0  0  0.111446  0.124347  0  1.035288  0
H  H18  1  0.80470413  0.11500905  0.50340704  1  0  0.10458  0  0.960846  0  0  0.113819  0  1.019872  0  0  0.116207  0  1.020471  0  0  0.107321  0.112087  0  1.019624  0
H  H19  1  0.42430661  0.38501355  0.99672945  1  0  0.105423  0  0.959244  0  0  0.114419  0  1.018491  0  0  0.116893  0  1.018995  0  0  0.108703  0.112646  0  1.018281  0
H  H20  1  0.19530040  0.88499112  0.49658679  1  0  0.104541  0  0.960909  0  0  0.113789  0  1.019924  0  0  0.116171  0  1.020523  0  0  0.107316  0.112057  0  1.019676  0
H  H21  1  0.57569693  0.61498305  0.00327682  1  0  0.105435  0  0.959365  0  0  0.114451  0  1.018578  0  0  0.116927  0  1.019077  0  0  0.108673  0.112675  0  1.01837  0
H  H22  1  0.91435681  0.23696962  0.56527285  1  0  0.095567  0  0.921799  0  0  0.106414  0  0.979347  0  0  0.109036  0  0.977154  0  0  0.122745  0.104482  0  0.981007  0
H  H23  1  0.71824145  0.26295340  0.93451163  1  0  0.096109  0  0.922064  0  0  0.106734  0  0.979777  0  0  0.109465  0  0.977489  0  0  0.122833  0.104729  0  0.981502  0
H  H24  1  0.08564120  0.76303278  0.43472220  1  0  0.095607  0  0.921778  0  0  0.106456  0  0.979334  0  0  0.109078  0  0.977141  0  0  0.122769  0.104525  0  0.980996  0
H  H25  1  0.28176335  0.73704535  0.06548812  1  0  0.09608  0  0.922095  0  0  0.10678  0  0.979729  0  0  0.109509  0  0.977442  0  0  0.122858  0.104773  0  0.981458  0
H  H26  1  0.84115299  0.79452243  0.93714050  1  0  0.089498  0  0.974732  0  0  0.097522  0  1.041455  0  0  0.09994  0  1.040902  0  0  0.100422  0.095789  0  1.041883  0
H  H27  1  0.57348483  0.70551438  0.56279029  1  0  0.088889  0  0.975503  0  0  0.096928  0  1.042322  0  0  0.099358  0  1.041734  0  0  0.100365  0.095157  0  1.042814  0
H  H28  1  0.15884658  0.20547780  0.06285826  1  0  0.08953  0  0.974672  0  0  0.097544  0  1.041409  0  0  0.099962  0  1.040855  0  0  0.100421  0.095809  0  1.041845  0
H  H29  1  0.42650318  0.29448447  0.43721814  1  0  0.08885  0  0.975439  0  0  0.096885  0  1.042284  0  0  0.099326  0  1.04168  0  0  0.100358  0.095116  0  1.04278  0
H  H30  1  0.86143457  0.65349738  0.06317837  1  0  0.099244  0  0.957516  0  0  0.111743  0  1.015515  0  0  0.114404  0  1.0144  0  0  0.105509  0.109811  0  1.016458  0
H  H31  1  0.57859300  0.84654288  0.43678366  1  0  0.099063  0  0.958116  0  0  0.111405  0  1.016447  0  0  0.114108  0  1.015252  0  0  0.105158  0.109458  0  1.017402  0
H  H32  1  0.13856948  0.34650430  0.93681777  1  0  0.099258  0  0.957432  0  0  0.11174  0  1.015459  0  0  0.114402  0  1.014347  0  0  0.105519  0.109809  0  1.016403  0
H  H33  1  0.42139636  0.15345448  0.56322425  1  0  0.099026  0  0.958126  0  0  0.111322  0  1.01649  0  0  0.114028  0  1.015294  0  0  0.10509  0.109377  0  1.017451  0
H  H34  1  0.12640769  0.45927811  0.83576490  1  0  0.101829  0  1.000104  0  0  0.108639  0  1.068131  0  0  0.111914  0  1.066357  0  0  0.098369  0.1063  0  1.06947  0
H  H35  1  0.42100240  0.04067795  0.66421367  1  0  0.101189  0  1.00198  0  0  0.107944  0  1.070038  0  0  0.111208  0  1.068275  0  0  0.098904  0.105599  0  1.0714  0
H  H36  1  0.87359768  0.54072359  0.16423395  1  0  0.101891  0  1.000119  0  0  0.108651  0  1.068201  0  0  0.111925  0  1.066428  0  0  0.098404  0.106314  0  1.069539  0
H  H37  1  0.57899341  0.95932161  0.33579193  1  0  0.101254  0  1.00197  0  0  0.108021  0  1.070009  0  0  0.111285  0  1.068241  0  0  0.098932  0.105681  0  1.071342  0
H  H38  1  0.10188363  0.60231458  0.70988194  1  0  0.097919  0  0.942617  0  0  0.10763  0  1.003669  0  0  0.110836  0  1.001919  0  0  0.103002  0.105245  0  1.005074  0
H  H39  1  0.41361673  0.89767963  0.79008649  1  0  0.097609  0  0.941891  0  0  0.10742  0  1.00287  0  0  0.11056  0  1.001179  0  0  0.103114  0.10505  0  1.004271  0
H  H40  1  0.89811722  0.39768859  0.29011522  1  0  0.097918  0  0.942653  0  0  0.107636  0  1.003697  0  0  0.110852  0  1.001935  0  0  0.102989  0.105251  0  1.005106  0
H  H41  1  0.58638329  0.10231921  0.20992071  1  0  0.097495  0  0.941965  0  0  0.107319  0  1.002931  0  0  0.11046  0  1.001237  0  0  0.103066  0.104945  0  1.004341  0
H  H42  1  0.99801503  0.87654196  0.82460469  1  0  0.297283  0  0.877928  0  0  0.28578  0  0.933167  0  0  0.291827  0  0.92924  0  0  0.325691  0.281433  0  0.936064  0
H  H43  1  0.69942504  0.62338522  0.67523540  1  0  0.29567  0  0.878624  0  0  0.284491  0  0.933554  0  0  0.29051  0  0.929618  0  0  0.324951  0.280167  0  0.936446  0
H  H44  1  0.00198076  0.12346271  0.17539399  1  0  0.297265  0  0.87797  0  0  0.285767  0  0.933203  0  0  0.291814  0  0.929274  0  0  0.325701  0.281419  0  0.936103  0
H  H45  1  0.30056384  0.37661955  0.32477284  1  0  0.295627  0  0.878671  0  0  0.284442  0  0.933587  0  0  0.29046  0  0.929652  0  0  0.324942  0.280118  0  0.936483  0
C  C46  1  0.25102229  0.38550106  0.62895168  1  0  0.615395  0  3.945912  0  0  0.570628  0  4.230438  0  0  0.604329  0  4.224921  0  0  0.186027  0.547835  0  4.233241  0
C  C47  1  0.26421275  0.11386571  0.87134714  1  0  0.615665  0  3.948676  0  0  0.570789  0  4.233361  0  0  0.604535  0  4.227854  0  0  0.1863  0.54797  0  4.236167  0
C  C48  1  0.74898881  0.61449397  0.37104523  1  0  0.615218  0  3.946084  0  0  0.570462  0  4.230626  0  0  0.60417  0  4.225105  0  0  0.185967  0.547677  0  4.233418  0
C  C49  1  0.73578436  0.88612780  0.12864578  1  0  0.615557  0  3.948832  0  0  0.57072  0  4.233467  0  0  0.604467  0  4.227957  0  0  0.186229  0.547896  0  4.236277  0
C  C50  1  0.37756741  0.44605613  0.56261294  1  0  -0.04671  0  3.762527  0  0  -0.022205  0  3.989732  0  0  -0.028577  0  4.011898  0  0  -0.016561  -0.018136  0  3.974888  0
C  C51  1  0.38565251  0.05355611  0.93750898  1  0  -0.051722  0  3.764695  0  0  -0.027144  0  3.992177  0  0  -0.033566  0  4.014339  0  0  -0.017382  -0.02299  0  3.977232  0
C  C52  1  0.62244839  0.55393965  0.43738557  1  0  -0.046653  0  3.762323  0  0  -0.022204  0  3.989632  0  0  -0.028584  0  4.011792  0  0  -0.016552  -0.018115  0  3.974744  0
C  C53  1  0.61434462  0.94643959  0.06248133  1  0  -0.051576  0  3.764466  0  0  -0.027009  0  3.991971  0  0  -0.033432  0  4.014127  0  0  -0.017208  -0.02285  0  3.977021  0
C  C54  1  0.54526661  0.44236747  0.58528512  1  0  -0.07817  0  3.738052  0  0  -0.100945  0  3.985195  0  0  -0.101878  0  4.005615  0  0  -0.08741  -0.100191  0  3.971259  0
C  C55  1  0.57213027  0.05776386  0.91461846  1  0  -0.077514  0  3.740807  0  0  -0.10038  0  3.987856  0  0  -0.101235  0  4.00831  0  0  -0.087512  -0.099695  0  3.973921  0
C  C56  1  0.45474630  0.55762907  0.41471451  1  0  -0.078104  0  3.737963  0  0  -0.100882  0  3.985175  0  0  -0.101808  0  4.005593  0  0  -0.087486  -0.100126  0  3.971234  0
C  C57  1  0.42786929  0.94222889  0.08537244  1  0  -0.077489  0  3.740614  0  0  -0.100392  0  3.987636  0  0  -0.101246  0  4.00809  0  0  -0.087582  -0.099708  0  3.973698  0
C  C58  1  0.33268394  0.50395874  0.47705006  1  0  -0.086396  0  3.749886  0  0  -0.109356  0  4.000958  0  0  -0.110142  0  4.020173  0  0  -0.088617  -0.10872  0  3.987926  0
C  C59  1  0.31388097  0.99548351  0.02312630  1  0  -0.086081  0  3.752539  0  0  -0.109009  0  4.003783  0  0  -0.109807  0  4.023011  0  0  -0.090027  -0.108375  0  3.990783  0
C  C60  1  0.66732809  0.49603777  0.52294776  1  0  -0.086261  0  3.749732  0  0  -0.109181  0  4.000808  0  0  -0.109958  0  4.02002  0  0  -0.088631  -0.108545  0  3.987769  0
C  C61  1  0.68611762  0.00451146  0.97686430  1  0  -0.086169  0  3.752579  0  0  -0.109134  0  4.003803  0  0  -0.109929  0  4.023027  0  0  -0.090124  -0.108498  0  3.990796  0
C  C62  1  0.99637005  0.04769623  0.73432680  1  0  0.019621  0  3.699817  0  0  -0.018068  0  3.957118  0  0  -0.014489  0  3.976711  0  0  0.041085  -0.020296  0  3.943862  0
C  C63  1  0.77929315  0.45225489  0.76544021  1  0  0.020424  0  3.699735  0  0  -0.017797  0  3.957346  0  0  -0.014161  0  3.976982  0  0  0.040878  -0.020083  0  3.944063  0
C  C64  1  0.00362818  0.95230768  0.26566986  1  0  0.019487  0  3.700011  0  0  -0.018188  0  3.957288  0  0  -0.014611  0  3.976884  0  0  0.041071  -0.02042  0  3.94403  0
C  C65  1  0.22070604  0.54775130  0.23456228  1  0  0.020404  0  3.699858  0  0  -0.017788  0  3.957468  0  0  -0.014149  0  3.977102  0  0  0.040952  -0.020066  0  3.944178  0
C  C66  1  0.94335699  0.97373677  0.70336465  1  0  0.22171  0  3.79259  0  0  0.218928  0  4.040429  0  0  0.223245  0  4.062335  0  0  0.108755  0.215601  0  4.02578  0
C  C67  1  0.62106177  0.52623594  0.79652753  1  0  0.220161  0  3.792701  0  0  0.217316  0  4.040752  0  0  0.221587  0  4.062613  0  0  0.107728  0.214026  0  4.026131  0
C  C68  1  0.05663994  0.02626711  0.29662930  1  0  0.221698  0  3.792767  0  0  0.21903  0  4.040456  0  0  0.223346  0  4.062372  0  0  0.108769  0.215704  0  4.025796  0
C  C69  1  0.37892796  0.47376587  0.20348020  1  0  0.22011  0  3.792689  0  0  0.217192  0  4.040799  0  0  0.221463  0  4.062661  0  0  0.107708  0.213901  0  4.02617  0
C  C70  1  0.87057870  0.99843717  0.61909664  1  0  -0.101893  0  3.666224  0  0  -0.125236  0  3.910749  0  0  -0.124468  0  3.927707  0  0  -0.068264  -0.125442  0  3.899404  0
C  C71  1  0.48880398  0.50156819  0.88091634  1  0  -0.100437  0  3.664813  0  0  -0.123433  0  3.908617  0  0  -0.122623  0  3.925639  0  0  -0.066101  -0.123712  0  3.897234  0
C  C72  1  0.12942813  0.00156301  0.38089758  1  0  -0.101986  0  3.666047  0  0  -0.12539  0  3.910614  0  0  -0.124666  0  3.927542  0  0  -0.068319  -0.125591  0  3.899263  0
C  C73  1  0.51119672  0.49843434  0.11909077  1  0  -0.100324  0  3.664647  0  0  -0.123326  0  3.90843  0  0  -0.122515  0  3.925454  0  0  -0.066116  -0.123591  0  3.897035  0
C  C74  1  0.85789112  0.09386125  0.56975389  1  0  -0.085164  0  3.742718  0  0  -0.096402  0  3.994469  0  0  -0.101216  0  4.014627  0  0  -0.075876  -0.093369  0  3.980926  0
C  C75  1  0.52256818  0.40614755  0.93025929  1  0  -0.084663  0  3.743158  0  0  -0.095819  0  3.99478  0  0  -0.100713  0  4.014969  0  0  -0.077591  -0.092761  0  3.98127  0
C  C76  1  0.14211309  0.90613966  0.43023984  1  0  -0.085039  0  3.74269  0  0  -0.096244  0  3.994443  0  0  -0.10105  0  4.014607  0  0  -0.075809  -0.093205  0  3.98089  0
C  C77  1  0.47743026  0.59385346  0.06974419  1  0  -0.084661  0  3.743427  0  0  -0.095843  0  3.995059  0  0  -0.100736  0  4.01525  0  0  -0.077489  -0.092783  0  3.981539  0
C  C78  1  0.91655354  0.16269630  0.60391296  1  0  0.112704  0  3.695474  0  0  0.077193  0  3.947886  0  0  0.083522  0  3.966338  0  0  0.041447  0.07293  0  3.935558  0
C  C79  1  0.68447238  0.33727469  0.89595791  1  0  0.111591  0  3.698167  0  0  0.076272  0  3.950181  0  0  0.082473  0  3.968708  0  0  0.042066  0.0721  0  3.937805  0
C  C80  1  0.08344772  0.83730390  0.39608278  1  0  0.112558  0  3.695342  0  0  0.077036  0  3.947798  0  0  0.083364  0  3.966247  0  0  0.041341  0.072756  0  3.935499  0
C  C81  1  0.31553654  0.66272777  0.10404234  1  0  0.111616  0  3.698219  0  0  0.076234  0  3.950245  0  0  0.082436  0  3.968771  0  0  0.042029  0.072062  0  3.93787  0
C  C82  1  0.96111533  0.79249823  0.73283461  1  0  0.54185  0  3.827429  0  0  0.497235  0  4.113641  0  0  0.526121  0  4.112909  0  0  0.240404  0.477757  0  4.1135  0
C  C83  1  0.48643403  0.70750656  0.76709698  1  0  0.544623  0  3.825103  0  0  0.500407  0  4.111612  0  0  0.52917  0  4.110876  0  0  0.242518  0.481006  0  4.11149  0
C  C84  1  0.03887176  0.20750272  0.26716277  1  0  0.541733  0  3.827447  0  0  0.497101  0  4.113622  0  0  0.525985  0  4.112894  0  0  0.24041  0.477626  0  4.113479  0
C  C85  1  0.51354865  0.29249380  0.23291458  1  0  0.544425  0  3.825329  0  0  0.500255  0  4.111812  0  0  0.528977  0  4.111148  0  0  0.242498  0.480844  0  4.111703  0
C  C86  1  0.97105888  0.70853027  0.81354809  1  0  -0.066231  0  3.790076  0  0  -0.045086  0  4.024679  0  0  -0.051439  0  4.04744  0  0  -0.019776  -0.040982  0  4.009277  0
C  C87  1  0.49321575  0.79147396  0.68641979  1  0  -0.065073  0  3.791224  0  0  -0.045656  0  4.028183  0  0  -0.05188  0  4.050799  0  0  -0.019451  -0.041629  0  4.012863  0
C  C88  1  0.02893615  0.29147372  0.18645712  1  0  -0.066147  0  3.790166  0  0  -0.044913  0  4.024655  0  0  -0.051268  0  4.047422  0  0  -0.019792  -0.040803  0  4.009249  0
C  C89  1  0.50677837  0.20852485  0.31358389  1  0  -0.065114  0  3.791178  0  0  -0.045803  0  4.028259  0  0  -0.052019  0  4.050891  0  0  -0.019538  -0.041781  0  4.01295  0
C  C90  1  0.90497574  0.72128294  0.91391139  1  0  -0.069169  0  3.739218  0  0  -0.092797  0  3.986472  0  0  -0.092183  0  4.005979  0  0  -0.083917  -0.093036  0  3.973185  0
C  C91  1  0.54051121  0.77874885  0.58605359  1  0  -0.070372  0  3.74092  0  0  -0.093556  0  3.988853  0  0  -0.093002  0  4.008304  0  0  -0.084645  -0.093743  0  3.97562  0
C  C92  1  0.09502222  0.27871879  0.08608948  1  0  -0.069379  0  3.739161  0  0  -0.093033  0  3.98643  0  0  -0.092417  0  4.005938  0  0  -0.083955  -0.093265  0  3.973144  0
C  C93  1  0.45947708  0.22124998  0.41395322  1  0  -0.070227  0  3.74049  0  0  -0.093395  0  3.988408  0  0  -0.092845  0  4.007855  0  0  -0.084614  -0.093573  0  3.975177  0
C  C94  1  0.91589887  0.64018264  0.98624871  1  0  -0.101524  0  3.712281  0  0  -0.119611  0  3.959338  0  0  -0.123048  0  3.980032  0  0  -0.08384  -0.117248  0  3.945203  0
C  C95  1  0.54264365  0.85985856  0.51372938  1  0  -0.100496  0  3.71344  0  0  -0.118395  0  3.960142  0  0  -0.121848  0  3.980836  0  0  -0.082978  -0.116012  0  3.945991  0
C  C96  1  0.08410080  0.35982204  0.01375147  1  0  -0.101382  0  3.712141  0  0  -0.11947  0  3.959196  0  0  -0.122907  0  3.979886  0  0  -0.083766  -0.117117  0  3.945068  0
C  C97  1  0.45734827  0.14013880  0.48627732  1  0  -0.100578  0  3.713327  0  0  -0.11842  0  3.959937  0  0  -0.121875  0  3.98065  0  0  -0.082931  -0.116043  0  3.945797  0
C  C98  1  0.99374617  0.54325249  0.96141859  1  0  0.05628  0  3.742005  0  0  0.070036  0  3.97435  0  0  0.071033  0  3.997475  0  0  -0.002603  0.069468  0  3.958498  0
C  C99  1  0.49846262  0.95676102  0.53857663  1  0  0.055021  0  3.741818  0  0  0.068735  0  3.974059  0  0  0.069793  0  3.997032  0  0  -0.002743  0.068137  0  3.95829  0
C  C100  1  0.00625465  0.45675219  0.03858179  1  0  0.05627  0  3.741876  0  0  0.070084  0  3.974176  0  0  0.071082  0  3.997302  0  0  -0.002586  0.06952  0  3.958317  0
C  C101  1  0.50152974  0.04323634  0.46143098  1  0  0.055288  0  3.741834  0  0  0.069086  0  3.973955  0  0  0.070113  0  3.996961  0  0  -0.002659  0.06849  0  3.958185  0
C  C102  1  0.06045442  0.53172968  0.86012661  1  0  -0.117573  0  3.728906  0  0  -0.137514  0  3.982837  0  0  -0.141626  0  4.004539  0  0  -0.090355  -0.134703  0  3.968037  0
C  C103  1  0.45204451  0.96825405  0.63986691  1  0  -0.115429  0  3.727439  0  0  -0.135365  0  3.981315  0  0  -0.139464  0  4.002927  0  0  -0.090818  -0.132558  0  3.966574  0
C  C104  1  0.93954633  0.46827354  0.13987467  1  0  -0.117567  0  3.728749  0  0  -0.137491  0  3.982694  0  0  -0.141605  0  4.004399  0  0  -0.090366  -0.134681  0  3.967902  0
C  C105  1  0.54795206  0.03174478  0.36013969  1  0  -0.1157  0  3.727607  0  0  -0.135675  0  3.981487  0  0  -0.139768  0  4.00311  0  0  -0.090894  -0.132846  0  3.966717  0
C  C106  1  0.04826445  0.61256684  0.78776592  1  0  -0.062516  0  3.737558  0  0  -0.08838  0  3.989999  0  0  -0.088173  0  4.009773  0  0  -0.084075  -0.088305  0  3.976552  0
C  C107  1  0.44834734  0.88741743  0.71221819  1  0  -0.062718  0  3.735022  0  0  -0.088123  0  3.988145  0  0  -0.087879  0  4.007852  0  0  -0.084534  -0.088052  0  3.974745  0
C  C108  1  0.95173499  0.38743635  0.21223265  1  0  -0.062585  0  3.737696  0  0  -0.088486  0  3.990119  0  0  -0.088288  0  4.009892  0  0  -0.084098  -0.088421  0  3.976684  0
C  C109  1  0.55164706  0.11258214  0.28778882  1  0  -0.062541  0  3.734971  0  0  -0.087915  0  3.988084  0  0  -0.087667  0  4.007787  0  0  -0.084494  -0.087847  0  3.974692  0
N  N110  1  0.98279318  0.13914148  0.68598808  1  0  -0.3248  0  3.342925  0  0  -0.241908  0  3.613697  0  0  -0.262331  0  3.634881  0  0  -0.335791  -0.22795  0  3.598943  0
N  N111  1  0.80909862  0.36079448  0.81374570  1  0  -0.326543  0  3.345981  0  0  -0.243572  0  3.617199  0  0  -0.263997  0  3.638393  0  0  -0.337611  -0.229605  0  3.602424  0
N  N112  1  0.01720322  0.86086462  0.31400649  1  0  -0.324699  0  3.342768  0  0  -0.241832  0  3.613575  0  0  -0.262256  0  3.634759  0  0  -0.33576  -0.227863  0  3.598807  0
N  N113  1  0.19090425  0.63920871  0.18625347  1  0  -0.326564  0  3.345964  0  0  -0.243605  0  3.61719  0  0  -0.26403  0  3.638382  0  0  -0.337672  -0.229642  0  3.602419  0
N  N114  1  0.96252621  0.88126048  0.75958045  1  0  -0.443909  0  3.351997  0  0  -0.391602  0  3.589333  0  0  -0.413887  0  3.600544  0  0  -0.39429  -0.376171  0  3.581349  0
N  N115  1  0.60365148  0.61871094  0.74032113  1  0  -0.443128  0  3.35159  0  0  -0.390991  0  3.588814  0  0  -0.413137  0  3.600018  0  0  -0.394569  -0.375657  0  3.580839  0
N  N116  1  0.03747545  0.11874124  0.24041941  1  0  -0.443822  0  3.352352  0  0  -0.39157  0  3.589674  0  0  -0.413853  0  3.600882  0  0  -0.394317  -0.376143  0  3.581694  0
N  N117  1  0.39634145  0.38128937  0.25968558  1  0  -0.442874  0  3.35186  0  0  -0.390674  0  3.589006  0  0  -0.412804  0  3.600229  0  0  -0.394471  -0.375337  0  3.581032  0
O  O118  1  0.26410767  0.36056085  0.71861106  1  0  -0.623257  0  1.959791  0  0  -0.560877  0  2.19267  0  0  -0.588261  0  2.182892  0  0  -0.333237  -0.541681  0  2.198633  0
O  O119  1  0.34198359  0.13876202  0.78158739  1  0  -0.621454  0  1.964609  0  0  -0.558455  0  2.19804  0  0  -0.585994  0  2.188263  0  0  -0.330916  -0.539158  0  2.204002  0
O  O120  1  0.73590838  0.63943272  0.28138845  1  0  -0.623207  0  1.960142  0  0  -0.560802  0  2.192999  0  0  -0.588187  0  2.183224  0  0  -0.333186  -0.541614  0  2.198962  0
O  O121  1  0.65801214  0.86123668  0.21840665  1  0  -0.621433  0  1.964767  0  0  -0.558474  0  2.19821  0  0  -0.586014  0  2.18843  0  0  -0.330908  -0.53918  0  2.204174  0
O  O122  1  0.13849247  0.35912531  0.59345339  1  0  -0.649482  0  1.89071  0  0  -0.592758  0  2.119661  0  0  -0.619725  0  2.109708  0  0  -0.344046  -0.573763  0  2.125719  0
O  O123  1  0.08969743  0.14012030  0.90692988  1  0  -0.649018  0  1.889585  0  0  -0.592616  0  2.117864  0  0  -0.619429  0  2.107877  0  0  -0.344738  -0.573711  0  2.123904  0
O  O124  1  0.86151866  0.64087270  0.40654584  1  0  -0.649369  0  1.890561  0  0  -0.592644  0  2.119509  0  0  -0.619613  0  2.109554  0  0  -0.34398  -0.573651  0  2.125561  0
O  O125  1  0.91030106  0.85987471  0.09306484  1  0  -0.648988  0  1.889543  0  0  -0.592596  0  2.117806  0  0  -0.619408  0  2.107819  0  0  -0.344745  -0.573687  0  2.123836  0
O  O126  1  0.95324919  0.78311272  0.64916820  1  0  -0.527008  0  1.899342  0  0  -0.487125  0  2.109425  0  0  -0.507103  0  2.10528  0  0  -0.287904  -0.473243  0  2.111835  0
O  O127  1  0.38537193  0.71691597  0.85079220  1  0  -0.529466  0  1.897852  0  0  -0.489642  0  2.107991  0  0  -0.509639  0  2.103896  0  0  -0.288795  -0.475766  0  2.110399  0
O  O128  1  0.04673292  0.21689200  0.35083472  1  0  -0.526944  0  1.899219  0  0  -0.487035  0  2.109279  0  0  -0.507021  0  2.105146  0  0  -0.28788  -0.473154  0  2.111694  0
O  O129  1  0.61461325  0.28308431  0.14921151  1  0  -0.529495  0  1.897567  0  0  -0.489709  0  2.107699  0  0  -0.509696  0  2.103631  0  0  -0.288827  -0.475823  0  2.110106  0
