# generated using pymatgen
data_Cd3H16C20(NO6)2
_symmetry_space_group_name_H-M   'P 1'
_cell_length_a   7.73569673
_cell_length_b   8.96024724
_cell_length_c   9.50798059
_cell_angle_alpha   62.93671212
_cell_angle_beta   86.79404020
_cell_angle_gamma   70.04844120
_symmetry_Int_Tables_number   1
_chemical_formula_structural   Cd3H16C20(NO6)2
_chemical_formula_sum   'Cd3 H16 C20 N2 O12'
_cell_volume   547.75206679
_cell_formula_units_Z   1
loop_
 _symmetry_equiv_pos_site_id
 _symmetry_equiv_pos_as_xyz
  1  'x, y, z'
loop_
 _atom_site_type_symbol
 _atom_site_label
 _atom_site_symmetry_multiplicity
 _atom_site_fract_x
 _atom_site_fract_y
 _atom_site_fract_z
 _atom_site_occupancy
 _atom_site_hle17_bader_spin_density
 _atom_site_hle17_ddec_charge
 _atom_site_hle17_ddec_spin_density
 _atom_site_hle17_ddec_sum_bond_order
 _atom_site_hle17_magmom
 _atom_site_hse06_10hf_bader_spin_density
 _atom_site_hse06_10hf_ddec_charge
 _atom_site_hse06_10hf_ddec_spin_density
 _atom_site_hse06_10hf_ddec_sum_bond_order
 _atom_site_hse06_10hf_magmom
 _atom_site_hse06_bader_spin_density
 _atom_site_hse06_ddec_charge
 _atom_site_hse06_ddec_spin_density
 _atom_site_hse06_ddec_sum_bond_order
 _atom_site_hse06_magmom
 _atom_site_pbe_bader_spin_density
 _atom_site_pbe_cm5_charge
 _atom_site_pbe_ddec_charge
 _atom_site_pbe_ddec_spin_density
 _atom_site_pbe_ddec_sum_bond_order
 _atom_site_pbe_magmom
Cd  Cd0  1  0.49999959  0.99999815  0.50000059  1  0  1.315104  0  1.703785  0  0  1.156176  0  2.169804  0  0  1.206995  0  2.109861  0  0  0.803236  1.119285  0  2.21155  0
Cd  Cd1  1  0.71702808  0.54983559  0.51483979  1  0  1.21068  0  1.58432  0  0  1.02425  0  2.018791  0  0  1.087499  0  1.961966  0  0  0.780877  0.979809  0  2.055228  0
Cd  Cd2  1  0.28297259  0.45016439  0.48516127  1  0  1.210682  0  1.584326  0  0  1.02424  0  2.018792  0  0  1.08749  0  1.961969  0  0  0.780874  0.979797  0  2.055235  0
H  H3  1  0.52609397  0.82779532  0.15867749  1  0  0.079762  0  0.960195  0  0  0.090528  0  1.021215  0  0  0.092114  0  1.020568  0  0  0.114289  0.088964  0  1.02211  0
H  H4  1  0.47390205  0.17220329  0.84132330  1  0  0.079713  0  0.960304  0  0  0.090551  0  1.021246  0  0  0.092145  0  1.020596  0  0  0.114284  0.088985  0  1.022144  0
H  H5  1  0.49344644  0.85021634  0.88662650  1  0  0.11597  0  0.973116  0  0  0.120525  0  1.04403  0  0  0.124538  0  1.041863  0  0  0.106131  0.117396  0  1.046011  0
H  H6  1  0.50655289  0.14977690  0.11337745  1  0  0.115947  0  0.973122  0  0  0.120552  0  1.043963  0  0  0.124566  0  1.041795  0  0  0.106142  0.117417  0  1.045958  0
H  H7  1  0.91734074  0.32693659  0.06784983  1  0  0.110204  0  0.958338  0  0  0.120209  0  1.020508  0  0  0.123208  0  1.019502  0  0  0.110773  0.117957  0  1.021609  0
H  H8  1  0.08266769  0.67306341  0.93215510  1  0  0.110176  0  0.958281  0  0  0.120202  0  1.02043  0  0  0.123203  0  1.019423  0  0  0.110795  0.117948  0  1.021532  0
H  H9  1  0.92461792  0.32034930  0.33510315  1  0  0.086571  0  0.948679  0  0  0.09481  0  1.011961  0  0  0.097281  0  1.00977  0  0  0.116968  0.092708  0  1.013839  0
H  H10  1  0.07538282  0.67965740  0.66489615  1  0  0.086578  0  0.948618  0  0  0.094812  0  1.011925  0  0  0.097283  0  1.009735  0  0  0.116962  0.092711  0  1.013802  0
H  H11  1  0.16597443  0.93676374  0.87057293  1  0  0.104783  0  0.928945  0  0  0.121102  0  0.987869  0  0  0.123116  0  0.987307  0  0  0.10267  0.119705  0  0.988193  0
H  H12  1  0.83402165  0.06324161  0.12942398  1  0  0.104794  0  0.928906  0  0  0.121147  0  0.987795  0  0  0.123161  0  0.987231  0  0  0.102686  0.119756  0  0.988123  0
H  H13  1  0.09322847  0.92431678  0.70594076  1  0  0.116504  0  0.929095  0  0  0.131011  0  0.990857  0  0  0.133322  0  0.990057  0  0  0.108266  0.129386  0  0.991355  0
H  H14  1  0.90677220  0.07568320  0.29406030  1  0  0.11646  0  0.929097  0  0  0.130969  0  0.990875  0  0  0.133278  0  0.99008  0  0  0.108256  0.129349  0  0.99137  0
H  H15  1  0.84606254  0.96859823  0.89093845  1  0  0.100281  0  0.924092  0  0  0.116971  0  0.981879  0  0  0.118705  0  0.981887  0  0  0.098889  0.115723  0  0.981868  0
H  H16  1  0.15393532  0.03140580  0.10905788  1  0  0.100255  0  0.924042  0  0  0.116961  0  0.981836  0  0  0.118698  0  0.981843  0  0  0.098877  0.115716  0  0.981824  0
H  H17  1  0.84644217  0.19018859  0.81943415  1  0  0.109473  0  0.968889  0  0  0.120991  0  1.033304  0  0  0.123754  0  1.032006  0  0  0.095395  0.118965  0  1.034271  0
H  H18  1  0.15355541  0.80981275  0.18056333  1  0  0.109429  0  0.968893  0  0  0.120982  0  1.033293  0  0  0.123747  0  1.031996  0  0  0.095387  0.118955  0  1.03426  0
C  C19  1  0.60684339  0.71827340  0.13399170  1  0  0.123018  0  3.706352  0  0  0.094957  0  3.95359  0  0  0.100675  0  3.974093  0  0  0.04084  0.091012  0  3.939568  0
C  C20  1  0.39315543  0.28172118  0.86601171  1  0  0.123087  0  3.706275  0  0  0.09495  0  3.953539  0  0  0.100658  0  3.974052  0  0  0.040822  0.091008  0  3.939518  0
C  C21  1  0.59006534  0.73078840  0.98386824  1  0  -0.127815  0  3.698651  0  0  -0.14816  0  3.945336  0  0  -0.154118  0  3.966499  0  0  -0.080302  -0.144291  0  3.931517  0
C  C22  1  0.40993168  0.26920752  0.01613363  1  0  -0.127814  0  3.698581  0  0  -0.148169  0  3.94528  0  0  -0.154127  0  3.966447  0  0  -0.080267  -0.144299  0  3.931469  0
C  C23  1  0.70065513  0.58646617  0.95922697  1  0  -0.003715  0  3.728582  0  0  0.016642  0  3.957721  0  0  0.01407  0  3.978282  0  0  0.003722  0.018424  0  3.943714  0
C  C24  1  0.29934347  0.41353246  0.04077370  1  0  -0.003729  0  3.728524  0  0  0.01659  0  3.957752  0  0  0.014018  0  3.978312  0  0  0.003701  0.018373  0  3.943742  0
C  C25  1  0.82580077  0.43820993  0.08546211  1  0  -0.117943  0  3.700934  0  0  -0.142617  0  3.952544  0  0  -0.147614  0  3.972905  0  0  -0.075365  -0.139944  0  3.939692  0
C  C26  1  0.17420506  0.56179012  0.91453765  1  0  -0.117897  0  3.700936  0  0  -0.142547  0  3.952564  0  0  -0.147542  0  3.972918  0  0  -0.075355  -0.139875  0  3.939707  0
C  C27  1  0.83088591  0.43472759  0.23296732  1  0  0.153616  0  3.668036  0  0  0.12013  0  3.926928  0  0  0.127777  0  3.943255  0  0  0.053624  0.115031  0  3.915998  0
C  C28  1  0.16911814  0.56527376  0.76703302  1  0  0.153603  0  3.668034  0  0  0.12008  0  3.926979  0  0  0.127728  0  3.943307  0  0  0.053614  0.11498  0  3.916047  0
C  C29  1  0.14028645  0.16271217  0.64768145  1  0  0.720797  0  3.808543  0  0  0.670226  0  4.10303  0  0  0.704794  0  4.096375  0  0  0.210221  0.646787  0  4.106682  0
C  C30  1  0.85971730  0.83728652  0.35231791  1  0  0.720719  0  3.808722  0  0  0.67015  0  4.103235  0  0  0.704716  0  4.096581  0  0  0.210204  0.646712  0  4.106891  0
C  C31  1  0.07276547  0.01508556  0.75863530  1  0  -0.237014  0  3.671288  0  0  -0.27567  0  3.920224  0  0  -0.280531  0  3.926843  0  0  -0.160892  -0.272349  0  3.915444  0
C  C32  1  0.92723083  0.98491576  0.24136330  1  0  -0.236957  0  3.671285  0  0  -0.275645  0  3.920259  0  0  -0.2805  0  3.926879  0  0  -0.160902  -0.272334  0  3.915492  0
C  C33  1  0.87146817  0.08074227  0.78917071  1  0  -0.260121  0  3.682457  0  0  -0.301068  0  3.935015  0  0  -0.306733  0  3.9421  0  0  -0.173228  -0.29711  0  3.930002  0
C  C34  1  0.12852862  0.91925771  0.21082843  1  0  -0.260054  0  3.682293  0  0  -0.301066  0  3.93493  0  0  -0.306747  0  3.942033  0  0  -0.173183  -0.297108  0  3.929919  0
C  C35  1  0.73189384  0.13886998  0.65051831  1  0  0.732059  0  3.793351  0  0  0.684309  0  4.091601  0  0  0.720046  0  4.083185  0  0  0.215249  0.659964  0  4.096725  0
C  C36  1  0.26810173  0.86113670  0.34947912  1  0  0.732243  0  3.793228  0  0  0.6845  0  4.091475  0  0  0.720244  0  4.083054  0  0  0.215296  0.660155  0  4.096598  0
C  C37  1  0.68374571  0.59076599  0.80072385  1  0  0.651906  0  3.91012  0  0  0.600742  0  4.199258  0  0  0.63534  0  4.192474  0  0  0.207166  0.577769  0  4.201615  0
C  C38  1  0.31625676  0.40923267  0.19927769  1  0  0.65197  0  3.910026  0  0  0.600753  0  4.199245  0  0  0.635352  0  4.192461  0  0  0.207187  0.577785  0  4.201596  0
N  N39  1  0.72231288  0.57186065  0.25748426  1  0  -0.315803  0  3.221163  0  0  -0.239912  0  3.481056  0  0  -0.25982  0  3.500607  0  0  -0.318994  -0.22564  0  3.465844  0
N  N40  1  0.27768522  0.42813931  0.74251693  1  0  -0.315819  0  3.22104  0  0  -0.23992  0  3.480997  0  0  -0.259829  0  3.500552  0  0  -0.319012  -0.225648  0  3.465783  0
O  O41  1  0.62012502  0.30198827  0.58091745  1  0  -0.698364  0  2.081327  0  0  -0.626276  0  2.356773  0  0  -0.658948  0  2.34355  0  0  -0.330669  -0.603448  0  2.364405  0
O  O42  1  0.37987385  0.69801310  0.41907891  1  0  -0.69846  0  2.08114  0  0  -0.626384  0  2.356612  0  0  -0.659041  0  2.343346  0  0  -0.330669  -0.603563  0  2.364264  0
O  O43  1  0.02816448  0.31769535  0.55725860  1  0  -0.642388  0  2.058765  0  0  -0.567894  0  2.309537  0  0  -0.59908  0  2.300462  0  0  -0.306956  -0.546259  0  2.314874  0
O  O44  1  0.97183054  0.68230592  0.44274218  1  0  -0.642356  0  2.058906  0  0  -0.567863  0  2.309689  0  0  -0.599064  0  2.300647  0  0  -0.306943  -0.546226  0  2.315023  0
O  O45  1  0.31660478  0.12583616  0.64884209  1  0  -0.719592  0  2.074889  0  0  -0.64952  0  2.346797  0  0  -0.68002  0  2.332987  0  0  -0.341469  -0.628248  0  2.355457  0
O  O46  1  0.68339308  0.87416788  0.35115425  1  0  -0.719557  0  2.074829  0  0  -0.64951  0  2.346771  0  0  -0.680009  0  2.33296  0  0  -0.341477  -0.628236  0  2.355434  0
O  O47  1  0.73469913  0.01587035  0.61719309  1  0  -0.651965  0  1.955793  0  0  -0.585523  0  2.202909  0  0  -0.615241  0  2.191752  0  0  -0.332906  -0.564961  0  2.210023  0
O  O48  1  0.26529816  0.98412833  0.38280341  1  0  -0.652022  0  1.955894  0  0  -0.585604  0  2.203053  0  0  -0.615322  0  2.191888  0  0  -0.332954  -0.565044  0  2.210167  0
O  O49  1  0.80269773  0.46734034  0.77773634  1  0  -0.617565  0  1.990601  0  0  -0.552931  0  2.231764  0  0  -0.583191  0  2.223895  0  0  -0.312002  -0.531642  0  2.235207  0
O  O50  1  0.19731041  0.53265700  0.22226655  1  0  -0.617598  0  1.99068  0  0  -0.552914  0  2.231854  0  0  -0.583175  0  2.223987  0  0  -0.312016  -0.531618  0  2.235284  0
O  O51  1  0.54903087  0.71505974  0.69768112  1  0  -0.68091  0  2.074137  0  0  -0.615911  0  2.336996  0  0  -0.644435  0  2.32408  0  0  -0.33392  -0.595341  0  2.344259  0
O  O52  1  0.45097362  0.28493357  0.30232153  1  0  -0.680922  0  2.073996  0  0  -0.615909  0  2.336878  0  0  -0.644433  0  2.323961  0  0  -0.333922  -0.595353  0  2.344164  0
