# generated using pymatgen
data_CsH10C12N2(ClO2)2
_symmetry_space_group_name_H-M   'P 1'
_cell_length_a   6.12072201
_cell_length_b   10.82964211
_cell_length_c   12.38535176
_cell_angle_alpha   108.96903848
_cell_angle_beta   92.09857684
_cell_angle_gamma   89.76978486
_symmetry_Int_Tables_number   1
_chemical_formula_structural   CsH10C12N2(ClO2)2
_chemical_formula_sum   'Cs2 H20 C24 N4 Cl4 O8'
_cell_volume   775.83508121
_cell_formula_units_Z   2
loop_
 _symmetry_equiv_pos_site_id
 _symmetry_equiv_pos_as_xyz
  1  'x, y, z'
loop_
 _atom_site_type_symbol
 _atom_site_label
 _atom_site_symmetry_multiplicity
 _atom_site_fract_x
 _atom_site_fract_y
 _atom_site_fract_z
 _atom_site_occupancy
 _atom_site_hle17_bader_spin_density
 _atom_site_hle17_ddec_charge
 _atom_site_hle17_ddec_spin_density
 _atom_site_hle17_ddec_sum_bond_order
 _atom_site_hle17_magmom
 _atom_site_hse06_10hf_bader_spin_density
 _atom_site_hse06_10hf_ddec_charge
 _atom_site_hse06_10hf_ddec_spin_density
 _atom_site_hse06_10hf_ddec_sum_bond_order
 _atom_site_hse06_10hf_magmom
 _atom_site_hse06_bader_spin_density
 _atom_site_hse06_ddec_charge
 _atom_site_hse06_ddec_spin_density
 _atom_site_hse06_ddec_sum_bond_order
 _atom_site_hse06_magmom
 _atom_site_pbe_bader_spin_density
 _atom_site_pbe_cm5_charge
 _atom_site_pbe_ddec_charge
 _atom_site_pbe_ddec_spin_density
 _atom_site_pbe_ddec_sum_bond_order
 _atom_site_pbe_magmom
Cs  Cs0  1  0.25659422  0.52590574  0.87614387  1  0  0.955402  0  0.552617  0  0  0.895089  0  0.795059  0  0  0.909593  0  0.772554  0  0  0.798476  0.884578  0  0.811258  0
Cs  Cs1  1  0.74340088  0.47409198  0.12385438  1  0  0.955395  0  0.552587  0  0  0.895093  0  0.795013  0  0  0.909597  0  0.772507  0  0  0.798455  0.884571  0  0.811204  0
H  H2  1  0.24723116  0.65784765  0.20678305  1  0  0.405759  0  0.90357  0  0  0.376568  0  0.965983  0  0  0.387354  0  0.950061  0  0  0.283212  0.368971  0  0.977178  0
H  H3  1  0.75277371  0.34214808  0.79321239  1  0  0.405731  0  0.903613  0  0  0.376558  0  0.965986  0  0  0.387345  0  0.950063  0  0  0.2832  0.368962  0  0.977182  0
H  H4  1  0.30696404  0.74321341  0.12932533  1  0  0.409491  0  0.890783  0  0  0.380173  0  0.953921  0  0  0.389971  0  0.93936  0  0  0.283028  0.373326  0  0.964094  0
H  H5  1  0.69302465  0.25678921  0.87067176  1  0  0.409527  0  0.890737  0  0  0.380216  0  0.953862  0  0  0.390014  0  0.939302  0  0  0.283054  0.373369  0  0.964033  0
H  H6  1  0.63298092  0.17733881  0.60903108  1  0  0.137429  0  0.949887  0  0  0.1551  0  1.011335  0  0  0.157774  0  1.00984  0  0  0.097197  0.153164  0  1.012411  0
H  H7  1  0.36703706  0.82265883  0.39096836  1  0  0.137329  0  0.949975  0  0  0.155013  0  1.011403  0  0  0.157689  0  1.009912  0  0  0.097128  0.153076  0  1.012473  0
H  H8  1  0.84327663  0.07609469  0.52803091  1  0  0.136658  0  0.941209  0  0  0.154656  0  1.005198  0  0  0.156185  0  1.004871  0  0  0.098695  0.153514  0  1.005519  0
H  H9  1  0.15673972  0.92390295  0.47196689  1  0  0.136665  0  0.941151  0  0  0.154637  0  1.005183  0  0  0.156164  0  1.00486  0  0  0.098673  0.153493  0  1.005504  0
H  H10  1  0.68068678  0.16952194  0.46437610  1  0  0.148068  0  0.935015  0  0  0.167788  0  0.993649  0  0  0.169263  0  0.993934  0  0  0.101163  0.166705  0  0.993451  0
H  H11  1  0.31932962  0.83047766  0.53562387  1  0  0.14806  0  0.935064  0  0  0.167802  0  0.993653  0  0  0.169274  0  0.993945  0  0  0.101187  0.166717  0  0.993466  0
H  H12  1  0.17910270  0.18677189  0.48584582  1  0  0.09584  0  0.931165  0  0  0.11319  0  0.990044  0  0  0.113619  0  0.990755  0  0  0.098076  0.112827  0  0.989714  0
H  H13  1  0.82090555  0.81322870  0.51414943  1  0  0.095807  0  0.931245  0  0  0.11315  0  0.990134  0  0  0.113577  0  0.990849  0  0  0.09808  0.112815  0  0.98978  0
H  H14  1  0.01808217  0.28337146  0.42684445  1  0  0.100234  0  0.964832  0  0  0.111697  0  1.035516  0  0  0.112723  0  1.035658  0  0  0.094654  0.110955  0  1.035525  0
H  H15  1  0.98192113  0.71662720  0.57315340  1  0  0.100283  0  0.964732  0  0  0.111735  0  1.035422  0  0  0.11276  0  1.035567  0  0  0.094658  0.110995  0  1.035442  0
H  H16  1  0.37856592  0.39116020  0.48399461  1  0  0.099677  0  0.953725  0  0  0.122779  0  1.012213  0  0  0.123783  0  1.012704  0  0  0.085324  0.122019  0  1.011868  0
H  H17  1  0.62144406  0.60884430  0.51600582  1  0  0.099699  0  0.953687  0  0  0.122822  0  1.012147  0  0  0.123827  0  1.012637  0  0  0.085336  0.122057  0  1.011809  0
H  H18  1  0.36720122  0.38121321  0.62329534  1  0  0.080508  0  0.97704  0  0  0.100412  0  1.045845  0  0  0.101383  0  1.046259  0  0  0.083381  0.099721  0  1.045536  0
H  H19  1  0.63279549  0.61878353  0.37670185  1  0  0.080482  0  0.977033  0  0  0.100411  0  1.045818  0  0  0.101381  0  1.046234  0  0  0.083377  0.099718  0  1.045505  0
H  H20  1  0.18934859  0.48889365  0.58062803  1  0  0.097856  0  0.956449  0  0  0.118189  0  1.02028  0  0  0.119678  0  1.019947  0  0  0.088306  0.117034  0  1.020651  0
H  H21  1  0.81065475  0.51110698  0.41937199  1  0  0.097857  0  0.956455  0  0  0.118184  0  1.020297  0  0  0.11967  0  1.019968  0  0  0.088296  0.117029  0  1.02066  0
C  C22  1  0.27464076  0.95740292  0.01740563  1  0  0.298948  0  3.917698  0  0  0.272424  0  4.198979  0  0  0.285055  0  4.216556  0  0  0.104254  0.263893  0  4.186885  0
C  C23  1  0.72535585  0.04258995  0.98260178  1  0  0.298951  0  3.917641  0  0  0.272476  0  4.198859  0  0  0.285098  0  4.216452  0  0  0.104168  0.263899  0  4.187053  0
C  C24  1  0.25897688  0.98359577  0.90938552  1  0  -0.092786  0  3.824623  0  0  -0.08444  0  4.063616  0  0  -0.086602  0  4.082824  0  0  -0.005957  -0.082887  0  4.050631  0
C  C25  1  0.74100379  0.01641374  0.09061982  1  0  -0.092602  0  3.824094  0  0  -0.084306  0  4.06311  0  0  -0.086488  0  4.082343  0  0  -0.005892  -0.082762  0  4.050413  0
C  C26  1  0.24324087  0.11003010  0.90366876  1  0  -0.065614  0  3.760774  0  0  -0.060046  0  3.999426  0  0  -0.064376  0  4.016121  0  0  0.003994  -0.057145  0  3.988112  0
C  C27  1  0.75673274  0.88995796  0.09633364  1  0  -0.065994  0  3.760598  0  0  -0.060345  0  3.999211  0  0  -0.064686  0  4.015936  0  0  0.004047  -0.057431  0  3.988165  0
C  C28  1  0.23557309  0.22381619  0.00664005  1  0  0.353434  0  3.863228  0  0  0.33025  0  4.138122  0  0  0.349745  0  4.145631  0  0  0.118001  0.317134  0  4.132537  0
C  C29  1  0.76441886  0.77618643  0.99336114  1  0  0.353395  0  3.863416  0  0  0.330208  0  4.13831  0  0  0.349689  0  4.145834  0  0  0.117835  0.317035  0  4.133044  0
C  C30  1  0.25075424  0.19681311  0.11549548  1  0  -0.022678  0  3.733423  0  0  -0.026689  0  4.01414  0  0  -0.027443  0  4.032743  0  0  0.003155  -0.02637  0  4.001728  0
C  C31  1  0.74924552  0.80317484  0.88450333  1  0  -0.022651  0  3.733058  0  0  -0.026714  0  4.013857  0  0  -0.027473  0  4.032477  0  0  0.003204  -0.026407  0  4.001584  0
C  C32  1  0.26547199  0.07203396  0.12069719  1  0  -0.024261  0  3.774338  0  0  -0.023989  0  4.051756  0  0  -0.023612  0  4.073284  0  0  0.00334  -0.024426  0  4.037459  0
C  C33  1  0.73452193  0.92798231  0.87930384  1  0  -0.024369  0  3.774007  0  0  -0.024063  0  4.05142  0  0  -0.023695  0  4.072962  0  0  0.003325  -0.024483  0  4.037218  0
C  C34  1  0.25347091  0.87299199  0.80905166  1  0  0.273655  0  3.82258  0  0  0.250534  0  4.117482  0  0  0.26072  0  4.134719  0  0  0.175485  0.243534  0  4.106149  0
C  C35  1  0.74651786  0.12701459  0.19096189  1  0  0.273722  0  3.823083  0  0  0.250611  0  4.117961  0  0  0.260798  0  4.135199  0  0  0.175508  0.243607  0  4.106702  0
C  C36  1  0.23142657  0.13038129  0.79628367  1  0  0.286556  0  3.782473  0  0  0.264386  0  4.073117  0  0  0.276774  0  4.088301  0  0  0.184376  0.255893  0  4.063213  0
C  C37  1  0.76854715  0.86961168  0.20372900  1  0  0.286598  0  3.783539  0  0  0.264392  0  4.074162  0  0  0.276775  0  4.089342  0  0  0.18439  0.255892  0  4.064338  0
C  C38  1  0.92050074  0.28057429  0.58710427  1  0  0.580929  0  3.583333  0  0  0.568974  0  3.851795  0  0  0.589511  0  3.855552  0  0  0.180285  0.554803  0  3.849158  0
C  C39  1  0.07951528  0.71940964  0.41287836  1  0  0.580993  0  3.583978  0  0  0.568769  0  3.852786  0  0  0.58952  0  3.856202  0  0  0.180358  0.554603  0  3.850145  0
C  C40  1  0.75796256  0.16984046  0.54613681  1  0  -0.441358  0  3.641818  0  0  -0.51674  0  3.868585  0  0  -0.522362  0  3.874007  0  0  -0.244259  -0.512527  0  3.86479  0
C  C41  1  0.24205218  0.83015817  0.45386366  1  0  -0.441401  0  3.64163  0  0  -0.516682  0  3.868447  0  0  -0.522377  0  3.873801  0  0  -0.244302  -0.512466  0  3.864649  0
C  C42  1  0.09938642  0.28274662  0.50766958  1  0  -0.221876  0  3.72528  0  0  -0.254136  0  3.97232  0  0  -0.258878  0  3.985752  0  0  -0.170353  -0.250655  0  3.962946  0
C  C43  1  0.90061861  0.71725593  0.49232617  1  0  -0.221963  0  3.724998  0  0  -0.25419  0  3.972236  0  0  -0.258991  0  3.985597  0  0  -0.170467  -0.25075  0  3.962916  0
C  C44  1  0.26699925  0.39263062  0.55179836  1  0  -0.268907  0  3.740642  0  0  -0.3461  0  3.984406  0  0  -0.347431  0  3.994926  0  0  -0.251712  -0.344876  0  3.977048  0
C  C45  1  0.73300905  0.60737193  0.44819987  1  0  -0.268959  0  3.740628  0  0  -0.346156  0  3.984352  0  0  -0.347491  0  3.99488  0  0  -0.251745  -0.344923  0  3.977  0
N  N46  1  0.24869878  0.78078507  0.72711152  1  0  -0.404649  0  2.618054  0  0  -0.392171  0  2.868532  0  0  -0.399678  0  2.878771  0  0  -0.30613  -0.387262  0  2.86198  0
N  N47  1  0.75130108  0.21920677  0.27288354  1  0  -0.404672  0  2.618796  0  0  -0.392206  0  2.869292  0  0  -0.399717  0  2.879524  0  0  -0.30619  -0.387291  0  2.862751  0
N  N48  1  0.22445121  0.14404013  0.70634912  1  0  -0.387404  0  2.564019  0  0  -0.367564  0  2.797295  0  0  -0.377914  0  2.808888  0  0  -0.295294  -0.360719  0  2.789791  0
N  N49  1  0.77554062  0.85595756  0.29363856  1  0  -0.387297  0  2.565255  0  0  -0.367442  0  2.798532  0  0  -0.377794  0  2.810124  0  0  -0.295337  -0.360597  0  2.791039  0
Cl  Cl50  1  0.24459631  0.33109955  0.23513001  1  0  -0.017138  0  1.515905  0  0  0.002179  0  1.764959  0  0  -0.000513  0  1.760657  0  0  0.061886  0.004428  0  1.768055  0
Cl  Cl51  1  0.75540718  0.66890693  0.76487086  1  0  -0.017049  0  1.516231  0  0  0.002285  0  1.765317  0  0  -0.000412  0  1.761023  0  0  0.061923  0.004546  0  1.768426  0
Cl  Cl52  1  0.26919020  0.03987608  0.24698815  1  0  0.001101  0  1.500213  0  0  0.025137  0  1.739102  0  0  0.022229  0  1.737669  0  0  0.06004  0.02745  0  1.740216  0
Cl  Cl53  1  0.73080024  0.96013144  0.75301600  1  0  0.001157  0  1.500298  0  0  0.02518  0  1.73921  0  0  0.022266  0  1.737785  0  0  0.060062  0.027513  0  1.740322  0
O  O54  1  0.29276231  0.84276668  0.02080879  1  0  -0.515994  0  2.02958  0  0  -0.473438  0  2.265412  0  0  -0.493868  0  2.269874  0  0  -0.304008  -0.459581  0  2.262504  0
O  O55  1  0.70723466  0.15724081  0.97919628  1  0  -0.516238  0  2.028999  0  0  -0.473679  0  2.264804  0  0  -0.494135  0  2.269271  0  0  -0.304096  -0.45976  0  2.261908  0
O  O56  1  0.21152118  0.33749777  0.00335605  1  0  -0.564097  0  2.01304  0  0  -0.527009  0  2.248424  0  0  -0.546728  0  2.246263  0  0  -0.411483  -0.513411  0  2.249872  0
O  O57  1  0.78848876  0.66250477  0.99664220  1  0  -0.564156  0  2.013035  0  0  -0.527041  0  2.248382  0  0  -0.54678  0  2.246226  0  0  -0.411478  -0.513398  0  2.249867  0
O  O58  1  0.32773786  0.65759683  0.13893806  1  0  -0.892683  0  1.805079  0  0  -0.847388  0  1.966431  0  0  -0.864554  0  1.937006  0  0  -0.713136  -0.835053  0  1.986888  0
O  O59  1  0.67226219  0.34240281  0.86105840  1  0  -0.892699  0  1.805075  0  0  -0.847435  0  1.966456  0  0  -0.86459  0  1.937005  0  0  -0.713182  -0.835092  0  1.986905  0
O  O60  1  0.90535645  0.36714206  0.68092340  1  0  -0.541961  0  1.986127  0  0  -0.489697  0  2.197638  0  0  -0.511225  0  2.194603  0  0  -0.303859  -0.474936  0  2.199735  0
O  O61  1  0.09465860  0.63286930  0.31909035  1  0  -0.541741  0  1.987267  0  0  -0.489399  0  2.198943  0  0  -0.510992  0  2.195786  0  0  -0.303709  -0.474642  0  2.201037  0
