# generated using pymatgen
data_ErCuH32C48(NO2)4
_symmetry_space_group_name_H-M   'P 1'
_cell_length_a   15.93086736
_cell_length_b   19.57500767
_cell_length_c   19.57089381
_cell_angle_alpha   80.45477986
_cell_angle_beta   65.99462147
_cell_angle_gamma   65.99558076
_symmetry_Int_Tables_number   1
_chemical_formula_structural   ErCuH32C48(NO2)4
_chemical_formula_sum   'Er4 Cu4 H128 C192 N16 O32'
_cell_volume   5093.06531260
_cell_formula_units_Z   4
loop_
 _symmetry_equiv_pos_site_id
 _symmetry_equiv_pos_as_xyz
  1  'x, y, z'
loop_
 _atom_site_type_symbol
 _atom_site_label
 _atom_site_symmetry_multiplicity
 _atom_site_fract_x
 _atom_site_fract_y
 _atom_site_fract_z
 _atom_site_occupancy
 _atom_site_pbe_bader_charge
 _atom_site_pbe_bader_spin_density
 _atom_site_pbe_cm5_charge
 _atom_site_pbe_ddec_charge
 _atom_site_pbe_ddec_spin_density
 _atom_site_pbe_ddec_sum_bond_order
 _atom_site_pbe_magmom
Er  Er0  1  0.20610553  0.38434086  0.20154831  1  2.120742  0  1.526604  1.944346  0  2.185602  0
Er  Er1  1  0.79185554  0.61579391  0.79817381  1  2.120757  0  1.526833  1.943078  0  2.188523  0
Er  Er2  1  0.59230806  0.20184151  0.61549844  1  2.120345  0  1.52705  1.942883  0  2.188531  0
Er  Er3  1  0.40947043  0.79835439  0.38448891  1  2.121157  0  1.526998  1.943829  0  2.188414  0
Cu  Cu4  1  0.35893886  0.68363667  0.09365682  1  0.731768  0  0.577456  0.266807  0  2.521868  0
Cu  Cu5  1  0.13622816  0.31646837  0.90623622  1  0.732566  0  0.577716  0.268081  0  2.520156  0
Cu  Cu6  1  0.54720451  0.09408071  0.31632030  1  0.731605  0  0.577789  0.268124  0  2.52106  0
Cu  Cu7  1  0.95754110  0.90609456  0.68369976  1  0.731075  0  0.578216  0.26773  0  2.521926  0
H  H8  1  0.02496845  0.43575926  0.45729188  1  0.087924  0  0.112856  0.118476  0  0.983815  0
H  H9  1  0.99835225  0.41395476  0.59277270  1  0.098324  0  0.109431  0.115927  0  0.991951  0
H  H10  1  0.33964062  0.33137325  0.39822134  1  0.105306  0  0.098796  0.096231  0  1.058264  0
H  H11  1  0.31534850  0.30749165  0.53282094  1  0.083201  0  0.103778  0.109412  0  1.00751  0
H  H12  1  0.26097685  0.23582495  0.63522757  1  0.102954  0  0.104135  0.11043  0  1.037837  0
H  H13  1  0.24768534  0.22457769  0.76622090  1  0.090672  0  0.110435  0.07854  0  1.023741  0
H  H14  1  0.01932610  0.45150318  0.69200117  1  0.140483  0  0.112721  0.126417  0  1.030247  0
H  H15  1  0.01675149  0.43268332  0.81981654  1  0.096565  0  0.112651  0.085804  0  1.060032  0
H  H16  1  0.99512508  0.56717488  0.07362668  1  0.076488  0  0.100593  0.105187  0  1.021138  0
H  H17  1  0.83815214  0.62261231  0.05011190  1  0.052294  0  0.096859  0.097074  0  1.033414  0
H  H18  1  0.88442564  0.41518871  0.23300690  1  0.101435  0  0.111417  0.119668  0  0.985908  0
H  H19  1  0.72755635  0.46842903  0.20880697  1  0.060722  0  0.101747  0.100994  0  1.009937  0
H  H20  1  0.73530934  0.60217557  0.99755651  1  0.096855  0  0.114046  0.120295  0  1.018637  0
H  H21  1  0.57228679  0.64874278  0.98647017  1  0.141331  0  0.121515  0.105726  0  1.018288  0
H  H22  1  0.58690431  0.57502004  0.23510389  1  0.092005  0  0.113144  0.121657  0  1.003047  0
H  H23  1  0.42985012  0.62310356  0.21474287  1  0.104263  0  0.112837  0.081139  0  1.040259  0
H  H24  1  0.55318480  0.26040866  0.08217537  1  0.094815  0  0.099266  0.097279  0  1.057449  0
H  H25  1  0.72933516  0.24526046  0.04425239  1  0.051738  0  0.096262  0.092036  0  1.01941  0
H  H26  1  0.45771647  0.49543035  0.11635205  1  0.101625  0  0.104341  0.101827  0  1.028487  0
H  H27  1  0.63267199  0.48161097  0.07753529  1  0.073547  0  0.09715  0.091542  0  1.072846  0
H  H28  1  0.84938333  0.24944285  0.08718215  1  0.087358  0  0.105897  0.112058  0  0.99873  0
H  H29  1  0.02389341  0.24101898  0.03604954  1  0.086852  0  0.112076  0.077917  0  1.002239  0
H  H30  1  0.77637226  0.46144098  0.97225683  1  0.131845  0  0.113249  0.130697  0  1.018675  0
H  H31  1  0.94995321  0.44745691  0.93136667  1  0.135233  0  0.113462  0.084108  0  1.043194  0
H  H32  1  0.21304329  0.19708009  0.05936651  1  0.100014  0  0.103003  0.107484  0  1.018998  0
H  H33  1  0.24422396  0.06523799  0.03698266  1  0.055064  0  0.088089  0.081629  0  1.073257  0
H  H34  1  0.25147588  0.13149281  0.26813937  1  0.111382  0  0.101753  0.102591  0  1.043673  0
H  H35  1  0.28981421  0.99785745  0.24464266  1  0.111143  0  0.104858  0.114943  0  1.022427  0
H  H36  1  0.16666036  0.96959603  0.09157943  1  0.076656  0  0.105893  0.110754  0  0.994903  0
H  H37  1  0.20974097  0.83571627  0.06859322  1  0.070302  0  0.110732  0.072816  0  1.007184  0
H  H38  1  0.41936060  0.89748341  0.15540638  1  0.099861  0  0.114366  0.124858  0  1.006913  0
H  H39  1  0.45416988  0.76782401  0.12754079  1  0.095506  0  0.117735  0.086182  0  1.02646  0
H  H40  1  0.91841313  0.56400962  0.54222897  1  0.079974  0  0.112548  0.11799  0  0.983322  0
H  H41  1  0.00578177  0.58589739  0.40682588  1  0.076068  0  0.109394  0.116471  0  0.990777  0
H  H42  1  0.06892679  0.66858218  0.60195178  1  0.100647  0  0.098052  0.094516  0  1.057851  0
H  H43  1  0.15580569  0.69242636  0.46740133  1  0.053641  0  0.103941  0.110175  0  1.009166  0
H  H44  1  0.13248921  0.76403014  0.36474907  1  0.084323  0  0.104212  0.110385  0  1.036578  0
H  H45  1  0.23857061  0.77544801  0.23368874  1  0.082355  0  0.110708  0.079195  0  1.02448  0
H  H46  1  0.16343798  0.54828894  0.30799518  1  0.100416  0  0.112164  0.125257  0  1.031837  0
H  H47  1  0.26957700  0.56720507  0.18012182  1  0.133574  0  0.112886  0.086055  0  1.061141  0
H  H48  1  0.63601684  0.43294357  0.92622884  1  0.09832  0  0.10088  0.104653  0  1.020633  0
H  H49  1  0.51096631  0.37744150  0.94980363  1  0.054172  0  0.096949  0.097224  0  1.032601  0
H  H50  1  0.53265272  0.58482130  0.76681702  1  0.101656  0  0.11142  0.119987  0  0.986343  0
H  H51  1  0.40477999  0.53156373  0.79109904  1  0.063743  0  0.101132  0.099015  0  1.008859  0
H  H52  1  0.33480604  0.39825054  0.00248336  1  0.093088  0  0.114239  0.120641  0  1.017859  0
H  H53  1  0.20725479  0.35163836  0.01361689  1  0.152604  0  0.121715  0.105697  0  1.019198  0
H  H54  1  0.39720779  0.42477224  0.76483709  1  0.09721  0  0.113042  0.122142  0  1.002932  0
H  H55  1  0.26787852  0.37664959  0.78526113  1  0.101868  0  0.112802  0.081038  0  1.040535  0
H  H56  1  0.89548288  0.73960698  0.91770252  1  0.091  0  0.099055  0.096648  0  1.057947  0
H  H57  1  0.01848209  0.75495235  0.95556178  1  0.044799  0  0.096067  0.091786  0  1.01927  0
H  H58  1  0.06921452  0.50459250  0.88381303  1  0.101563  0  0.104136  0.101176  0  1.028178  0
H  H59  1  0.19143356  0.51856065  0.92261837  1  0.091535  0  0.097835  0.092833  0  1.07322  0
H  H60  1  0.18570862  0.75089022  0.91268370  1  0.077889  0  0.106102  0.112082  0  0.998198  0
H  H61  1  0.30064173  0.75941285  0.96379300  1  0.089896  0  0.112495  0.078478  0  1.004435  0
H  H62  1  0.20980944  0.53894084  0.02776089  1  0.137997  0  0.113278  0.130557  0  1.017694  0
H  H63  1  0.32853344  0.55299962  0.06855237  1  0.130626  0  0.113589  0.084847  0  1.042605  0
H  H64  1  0.46914329  0.80290204  0.94070225  1  0.094862  0  0.103047  0.10696  0  1.020717  0
H  H65  1  0.34620821  0.93477434  0.96316077  1  0.066016  0  0.088295  0.08188  0  1.073357  0
H  H66  1  0.65071425  0.86854774  0.73200482  1  0.100238  0  0.102219  0.103383  0  1.043  0
H  H67  1  0.53208178  0.00220219  0.75554587  1  0.111279  0  0.105013  0.115646  0  1.021178  0
H  H68  1  0.22762816  0.03037708  0.90851765  1  0.035868  0  0.10584  0.110675  0  0.996235  0
H  H69  1  0.11384444  0.16427257  0.93142317  1  0.037753  0  0.11079  0.07295  0  1.007037  0
H  H70  1  0.47196231  0.10259289  0.84476751  1  0.09684  0  0.114303  0.12506  0  1.007373  0
H  H71  1  0.34924078  0.23221953  0.87262947  1  0.105451  0  0.118153  0.086903  0  1.025119  0
H  H72  1  0.51761421  0.45775112  0.56407930  1  0.058056  0  0.113071  0.118569  0  0.983887  0
H  H73  1  0.40854636  0.59316257  0.58594328  1  0.097445  0  0.109275  0.116081  0  0.990873  0
H  H74  1  0.26242393  0.39817997  0.66863109  1  0.085951  0  0.098966  0.096444  0  1.057853  0
H  H75  1  0.15187513  0.53269790  0.69247616  1  0.053548  0  0.103978  0.110103  0  1.007692  0
H  H76  1  0.10352065  0.63502550  0.76402717  1  0.112701  0  0.104201  0.110099  0  1.038306  0
H  H77  1  0.98593626  0.76601004  0.77543865  1  0.092278  0  0.110838  0.079292  0  1.024602  0
H  H78  1  0.28856044  0.69218223  0.54856576  1  0.109054  0  0.112549  0.125797  0  1.031503  0
H  H79  1  0.16338226  0.81995358  0.56744881  1  0.13439  0  0.112837  0.086027  0  1.0613  0
H  H80  1  0.93115461  0.07374934  0.43275751  1  0.071733  0  0.101034  0.104831  0  1.019884  0
H  H81  1  0.11163385  0.05021708  0.37744829  1  0.052814  0  0.096913  0.097247  0  1.032148  0
H  H82  1  0.88238511  0.23311374  0.58470153  1  0.097027  0  0.111637  0.120033  0  0.986983  0
H  H83  1  0.06342786  0.20889887  0.53161994  1  0.060298  0  0.101603  0.100783  0  1.008265  0
H  H84  1  0.26706621  0.99762728  0.39821973  1  0.095415  0  0.114437  0.120347  0  1.018087  0
H  H85  1  0.44113924  0.98666798  0.35160743  1  0.151651  0  0.121334  0.10446  0  1.018303  0
H  H86  1  0.17788639  0.23519601  0.42496234  1  0.101951  0  0.113177  0.122014  0  1.003169  0
H  H87  1  0.35521548  0.21496503  0.37681749  1  0.104935  0  0.113051  0.081284  0  1.040896  0
H  H88  1  0.36501216  0.08206970  0.73949173  1  0.082837  0  0.098911  0.096424  0  1.057185  0
H  H89  1  0.22689904  0.04396781  0.75475750  1  0.051366  0  0.096292  0.092138  0  1.019123  0
H  H90  1  0.42628102  0.11592020  0.50438203  1  0.082033  0  0.104221  0.101142  0  1.028737  0
H  H91  1  0.29022680  0.07698762  0.51834881  1  0.089266  0  0.097522  0.092737  0  1.073729  0
H  H92  1  0.06409501  0.08664266  0.75089368  1  0.064959  0  0.105716  0.111379  0  0.999366  0
H  H93  1  0.94036643  0.03573544  0.75955659  1  0.079249  0  0.112198  0.07822  0  1.00429  0
H  H94  1  0.25116406  0.97214462  0.53866812  1  0.125504  0  0.113382  0.130815  0  1.017976  0
H  H95  1  0.11819665  0.93150427  0.55284502  1  0.114214  0  0.113253  0.084131  0  1.042211  0
H  H96  1  0.72810584  0.05942872  0.80261033  1  0.122864  0  0.103303  0.107492  0  1.019695  0
H  H97  1  0.71910788  0.03683857  0.93454059  1  0.067586  0  0.08803  0.081806  0  1.07216  0
H  H98  1  0.48084882  0.26799058  0.86815637  1  0.110251  0  0.101585  0.102687  0  1.043159  0
H  H99  1  0.46578532  0.24432713  0.00185911  1  0.116062  0  0.104828  0.115261  0  1.020756  0
H  H100  1  0.74192976  0.09134515  0.03017636  1  0.074256  0  0.105833  0.110713  0  0.99487  0
H  H101  1  0.72179551  0.06871099  0.16412130  1  0.067866  0  0.110795  0.072708  0  1.009146  0
H  H102  1  0.42537771  0.15530787  0.10237256  1  0.111314  0  0.113893  0.124083  0  1.006142  0
H  H103  1  0.41842206  0.12780923  0.23210318  1  0.097106  0  0.117744  0.0863  0  1.027473  0
H  H104  1  0.53977044  0.54236448  0.43590906  1  0.096031  0  0.112786  0.118208  0  0.985106  0
H  H105  1  0.58801023  0.40695756  0.41394338  1  0.086489  0  0.109654  0.116686  0  0.991133  0
H  H106  1  0.32927199  0.60195210  0.33160305  1  0.116184  0  0.098508  0.095587  0  1.057197  0
H  H107  1  0.37714520  0.46742629  0.30763812  1  0.067541  0  0.10345  0.109563  0  1.007157  0
H  H108  1  0.50300179  0.36501907  0.23588274  1  0.10098  0  0.104156  0.110014  0  1.038618  0
H  H109  1  0.52771502  0.23401137  0.22454536  1  0.081125  0  0.110546  0.079165  0  1.024153  0
H  H110  1  0.52891417  0.30809975  0.45164924  1  0.140579  0  0.112339  0.125289  0  1.031397  0
H  H111  1  0.55034196  0.18031768  0.43282393  1  0.108472  0  0.112724  0.08626  0  1.061497  0
H  H112  1  0.43778836  0.92616574  0.56725880  1  0.057271  0  0.100954  0.105559  0  1.020792  0
H  H113  1  0.53943666  0.94959669  0.62268506  1  0.050955  0  0.096891  0.096558  0  1.033201  0
H  H114  1  0.70027284  0.76674700  0.41538593  1  0.102645  0  0.11172  0.120191  0  0.986514  0
H  H115  1  0.80402463  0.79084170  0.46860128  1  0.04022  0  0.10143  0.100003  0  1.008305  0
H  H116  1  0.66303432  0.00222581  0.60175339  1  0.097361  0  0.114271  0.120186  0  1.017677  0
H  H117  1  0.77958900  0.01333857  0.64822989  1  0.147052  0  0.121219  0.104964  0  1.018674  0
H  H118  1  0.83809565  0.76464829  0.57528916  1  0.08822  0  0.113008  0.121597  0  1.002996  0
H  H119  1  0.94712490  0.78502972  0.62327626  1  0.10525  0  0.112697  0.080761  0  1.040738  0
H  H120  1  0.18623251  0.91768271  0.26057007  1  0.080199  0  0.098994  0.096941  0  1.057632  0
H  H121  1  0.02519092  0.95590636  0.24542372  1  0.051921  0  0.096226  0.091466  0  1.019319  0
H  H122  1  0.04655749  0.88396325  0.49571647  1  0.103146  0  0.104317  0.10201  0  1.028634  0
H  H123  1  0.88538495  0.92299738  0.48189682  1  0.090946  0  0.097413  0.092414  0  1.073178  0
H  H124  1  0.90102319  0.91301931  0.24961818  1  0.065412  0  0.105591  0.111779  0  0.998435  0
H  H125  1  0.73508581  0.96408501  0.24091323  1  0.05941  0  0.111885  0.077112  0  1.004274  0
H  H126  1  0.76181430  0.02824760  0.46139931  1  0.131332  0  0.113462  0.130621  0  1.016441  0
H  H127  1  0.60237630  0.06899780  0.44723628  1  0.095652  0  0.11354  0.083679  0  1.044204  0
H  H128  1  0.59015789  0.94026999  0.19718190  1  0.094565  0  0.102752  0.10685  0  1.019769  0
H  H129  1  0.69085538  0.96267445  0.06531147  1  0.061449  0  0.088176  0.080952  0  1.073499  0
H  H130  1  0.61685166  0.73171734  0.13163356  1  0.092979  0  0.101947  0.10302  0  1.043809  0
H  H131  1  0.71213836  0.75523697  0.99795208  1  0.104287  0  0.105048  0.115397  0  1.022368  0
H  H132  1  0.86396586  0.90795207  0.96967080  1  0.061559  0  0.10604  0.110808  0  0.994792  0
H  H133  1  0.95474514  0.93095303  0.83575758  1  0.071416  0  0.111071  0.073533  0  1.008349  0
H  H134  1  0.68300571  0.84457342  0.89751454  1  0.108272  0  0.114268  0.124854  0  1.006103  0
H  H135  1  0.77786571  0.87249181  0.76782447  1  0.124948  0  0.11809  0.087299  0  1.026436  0
C  C136  1  0.20033217  0.39566812  0.33908471  1  1.50689  0  0.183188  0.556049  0  4.24382  0
C  C137  1  0.18385997  0.38453931  0.42003680  1  -0.054744  0  -0.014948  -0.024898  0  3.963774  0
C  C138  1  0.08767087  0.40800877  0.47487308  1  -0.047081  0  -0.076577  -0.084829  0  3.971918  0
C  C139  1  0.07331219  0.39520108  0.55019211  1  -0.048792  0  -0.083146  -0.127389  0  3.965705  0
C  C140  1  0.26542228  0.34821166  0.44145337  1  -0.024741  0  -0.084169  -0.091303  0  3.987506  0
C  C141  1  0.25141589  0.33461944  0.51644602  1  -0.038488  0  -0.087484  -0.126982  0  3.957304  0
C  C142  1  0.15499139  0.35796745  0.57178897  1  -0.032494  0  -0.004825  0.065236  0  3.998351  0
C  C143  1  0.14214424  0.34549191  0.65109500  1  0.022717  0  0.011503  0.102581  0  3.997267  0
C  C144  1  0.20511487  0.28071517  0.67443533  1  -0.011917  0  -0.083219  -0.166064  0  3.944041  0
C  C145  1  0.19754719  0.27401105  0.74817530  1  0.403829  0  0.037834  0.092189  0  3.951932  0
C  C146  1  0.07097954  0.39971231  0.70587771  1  -0.085985  0  -0.079099  -0.165133  0  3.912274  0
C  C147  1  0.06905684  0.38894475  0.77837487  1  0.46323  0  0.036715  0.08011  0  3.942116  0
C  C148  1  0.03951276  0.45589967  0.17320509  1  1.554329  0  0.188041  0.574682  0  4.22098  0
C  C149  1  0.94850393  0.48826332  0.15508478  1  -0.050777  0  -0.012684  -0.018575  0  3.94584  0
C  C150  1  0.93610614  0.54587665  0.10273503  1  -0.056751  0  -0.079711  -0.080503  0  3.956875  0
C  C151  1  0.84849644  0.57627529  0.08929560  1  0.006408  0  -0.089481  -0.128293  0  3.96571  0
C  C152  1  0.87297654  0.46043531  0.19294332  1  0.003274  0  -0.076118  -0.077261  0  3.958665  0
C  C153  1  0.78569113  0.49075117  0.17968775  1  -0.065325  0  -0.088667  -0.131143  0  3.985829  0
C  C154  1  0.77179032  0.54964100  0.12821561  1  -0.004717  0  -0.006844  0.062533  0  4.004983  0
C  C155  1  0.67690753  0.58195082  0.11749120  1  -0.042855  0  0.012348  0.098414  0  3.993738  0
C  C156  1  0.66974298  0.60554016  0.04754980  1  -0.078678  0  -0.078921  -0.17204  0  3.934266  0
C  C157  1  0.57820632  0.63133272  0.04073513  1  0.483303  0  0.043257  0.083328  0  3.914946  0
C  C158  1  0.58788396  0.58902058  0.17862639  1  0.029206  0  -0.07606  -0.157305  0  3.927701  0
C  C159  1  0.49941498  0.61609467  0.16763812  1  0.409736  0  0.03866  0.085897  0  3.946943  0
C  C160  1  0.39098282  0.38475889  0.12386879  1  1.524109  0  0.184092  0.557245  0  4.253748  0
C  C161  1  0.49509968  0.37848376  0.10094855  1  0.009244  0  -0.015884  -0.030542  0  3.969616  0
C  C162  1  0.57212403  0.30818480  0.08108615  1  -0.03455  0  -0.082881  -0.087698  0  3.978382  0
C  C163  1  0.66997390  0.30009699  0.06063013  1  -0.094988  0  -0.090322  -0.133471  0  3.981696  0
C  C164  1  0.51743332  0.44087624  0.10003991  1  -0.102858  0  -0.076921  -0.081118  0  3.961593  0
C  C165  1  0.61546450  0.43302686  0.07842654  1  0.035249  0  -0.084309  -0.120624  0  3.954048  0
C  C166  1  0.69318369  0.36273414  0.05830658  1  -0.041835  0  -0.001609  0.069983  0  3.989041  0
C  C167  1  0.79674598  0.35593087  0.03316558  1  0.021652  0  0.008278  0.104586  0  3.989456  0
C  C168  1  0.86921367  0.29359053  0.05075315  1  -0.02466  0  -0.090452  -0.184898  0  3.982451  0
C  C169  1  0.96670693  0.28870393  0.02267890  1  0.387374  0  0.031486  0.074067  0  3.988933  0
C  C170  1  0.82765186  0.41219848  0.98966653  1  0.002094  0  -0.076184  -0.156899  0  3.902066  0
C  C171  1  0.92633855  0.40345831  0.96461380  1  0.373388  0  0.040995  0.095299  0  3.92209  0
C  C172  1  0.21593307  0.24917600  0.17761521  1  1.550976  0  0.186008  0.568106  0  4.230035  0
C  C173  1  0.23062339  0.17134508  0.16510929  1  -0.045255  0  -0.012949  -0.022979  0  3.962908  0
C  C174  1  0.22771450  0.15319361  0.10007425  1  -0.012186  0  -0.08418  -0.087845  0  3.974047  0
C  C175  1  0.24498556  0.07979134  0.08805131  1  -0.080042  0  -0.097986  -0.13924  0  3.996473  0
C  C176  1  0.25151562  0.11552793  0.21742197  1  -0.053125  0  -0.079999  -0.082792  0  3.965026  0
C  C177  1  0.27236808  0.04160260  0.20431969  1  -0.064334  0  -0.086671  -0.130199  0  3.949874  0
C  C178  1  0.26855477  0.02331013  0.13941236  1  -0.02374  0  -0.007795  0.063194  0  4.00808  0
C  C179  1  0.29047292  0.94540691  0.12469611  1  -0.024392  0  0.012306  0.105252  0  3.994519  0
C  C180  1  0.23180702  0.92637159  0.09950444  1  -0.088074  0  -0.088473  -0.185653  0  3.981608  0
C  C181  1  0.25572224  0.85187320  0.08641484  1  0.494145  0  0.034443  0.07252  0  3.992767  0
C  C182  1  0.37123513  0.88655666  0.13563826  1  0.001903  0  -0.071055  -0.146249  0  3.903066  0
C  C183  1  0.39117256  0.81383801  0.11977600  1  0.475347  0  0.047694  0.098222  0  3.918353  0
C  C184  1  0.93489166  0.60428064  0.66070855  1  1.538015  0  0.184666  0.558013  0  4.247538  0
C  C185  1  0.98844286  0.61535107  0.57979656  1  -0.00444  0  -0.014819  -0.0257  0  3.96529  0
C  C186  1  0.97085120  0.59182005  0.52481960  1  -0.042098  0  -0.076255  -0.083525  0  3.970236  0
C  C187  1  0.01915115  0.60467060  0.44955736  1  -0.066293  0  -0.083934  -0.130069  0  3.96582  0
C  C188  1  0.05497883  0.65175687  0.55857674  1  -0.039624  0  -0.08338  -0.087891  0  3.985674  0
C  C189  1  0.10261820  0.66532240  0.48363337  1  -0.040804  0  -0.087902  -0.130626  0  3.962045  0
C  C190  1  0.08512012  0.64193687  0.42815531  1  -0.006405  0  -0.003817  0.068867  0  3.999015  0
C  C191  1  0.13925577  0.65434531  0.34886915  1  0.028371  0  0.011399  0.101396  0  3.994924  0
C  C192  1  0.16074935  0.71914289  0.32552765  1  -0.007415  0  -0.083016  -0.164589  0  3.939335  0
C  C193  1  0.21997821  0.72594714  0.25174934  1  0.44252  0  0.037774  0.090509  0  3.953186  0
C  C194  1  0.17709779  0.60010744  0.29409718  1  -0.027442  0  -0.078239  -0.163426  0  3.913253  0
C  C195  1  0.23675374  0.61093464  0.22157291  1  0.430122  0  0.036165  0.078138  0  3.944543  0
C  C196  1  0.66851545  0.54424273  0.82667165  1  1.549273  0  0.187836  0.575605  0  4.215661  0
C  C197  1  0.59185809  0.51179424  0.84475766  1  -0.008274  0  -0.011168  -0.017425  0  3.948746  0
C  C198  1  0.58480283  0.45417762  0.89711913  1  -0.05276  0  -0.080767  -0.080291  0  3.956907  0
C  C199  1  0.51419062  0.42374013  0.91056154  1  0.002444  0  -0.089377  -0.128308  0  3.965831  0
C  C200  1  0.52637650  0.53958267  0.80688109  1  -0.029821  0  -0.077162  -0.079572  0  3.963487  0
C  C201  1  0.45616412  0.50925988  0.82018153  1  -0.07061  0  -0.086857  -0.125994  0  3.984459  0
C  C202  1  0.44970729  0.45039074  0.87168494  1  -0.036497  0  -0.007077  0.060823  0  4.006246  0
C  C203  1  0.37635251  0.41812374  0.88248747  1  -0.0195  0  0.012561  0.099693  0  3.992469  0
C  C204  1  0.32269277  0.39471617  0.95248520  1  -0.045232  0  -0.079318  -0.172633  0  3.93313  0
C  C205  1  0.25012579  0.36892862  0.95933865  1  0.432731  0  0.04326  0.083151  0  3.917459  0
C  C206  1  0.35562284  0.41090649  0.82134664  1  0.001217  0  -0.076058  -0.158623  0  3.927472  0
C  C207  1  0.28322750  0.38383256  0.83237320  1  0.429996  0  0.038363  0.086155  0  3.947218  0
C  C208  1  0.89948225  0.61519107  0.87595174  1  1.528868  0  0.185155  0.556777  0  4.257298  0
C  C209  1  0.97423648  0.62154585  0.89903784  1  0.026374  0  -0.015761  -0.031498  0  3.967861  0
C  C210  1  0.96110701  0.69187516  0.91881911  1  -0.059909  0  -0.083256  -0.087875  0  3.978389  0
C  C211  1  0.03040469  0.70005561  0.93924942  1  -0.061716  0  -0.089718  -0.131359  0  3.98361  0
C  C212  1  0.05803199  0.55920576  0.90004294  1  -0.090966  0  -0.077199  -0.079717  0  3.960543  0
C  C213  1  0.12656180  0.56713301  0.92166062  1  -0.03323  0  -0.084788  -0.122305  0  3.956681  0
C  C214  1  0.11394981  0.63748524  0.94163301  1  -0.030611  0  -0.001834  0.06826  0  3.991274  0
C  C215  1  0.18558268  0.64438588  0.96673832  1  0.00474  0  0.008498  0.104756  0  3.984152  0
C  C216  1  0.21328658  0.70676022  0.94911567  1  -0.041713  0  -0.0908  -0.184783  0  3.979248  0
C  C217  1  0.27783068  0.71169818  0.97715748  1  0.420218  0  0.030835  0.073153  0  3.992892  0
C  C218  1  0.22928408  0.58816764  0.01025514  1  -0.028001  0  -0.076929  -0.15715  0  3.901534  0
C  C219  1  0.29419355  0.59695759  0.03526111  1  0.41318  0  0.041533  0.095453  0  3.921629  0
C  C220  1  0.64240627  0.75087727  0.82244129  1  1.577664  0  0.186522  0.570059  0  4.230588  0
C  C221  1  0.56672692  0.82869031  0.83498111  1  -0.07391  0  -0.012664  -0.020733  0  3.959347  0
C  C222  1  0.48067569  0.84681119  0.90002494  1  -0.018163  0  -0.084228  -0.088372  0  3.973987  0
C  C223  1  0.41258455  0.92021795  0.91210512  1  -0.070959  0  -0.09838  -0.139647  0  3.997761  0
C  C224  1  0.58410612  0.88452185  0.78271386  1  0.023719  0  -0.080429  -0.084655  0  3.966927  0
C  C225  1  0.51801371  0.95844862  0.79585869  1  -0.125074  0  -0.086781  -0.130799  0  3.950475  0
C  C226  1  0.43106118  0.97672997  0.86079033  1  -0.020528  0  -0.008252  0.062432  0  4.007268  0
C  C227  1  0.36031855  0.05461320  0.87543463  1  -0.004261  0  0.012604  0.106477  0  3.99088  0
C  C228  1  0.25746021  0.07362461  0.90056396  1  -0.020811  0  -0.088891  -0.185282  0  3.983522  0
C  C229  1  0.19378377  0.14813593  0.91362226  1  0.46539  0  0.034181  0.071386  0  3.99087  0
C  C230  1  0.39316516  0.11348420  0.86448313  1  0.020526  0  -0.070763  -0.148089  0  3.90401  0
C  C231  1  0.32452733  0.18619404  0.88033481  1  0.454637  0  0.047271  0.098354  0  3.918029  0
C  C232  1  0.46066967  0.33937570  0.60421491  1  1.522044  0  0.183871  0.55733  0  4.245375  0
C  C233  1  0.39616292  0.42027712  0.61538861  1  -0.071901  0  -0.015758  -0.026507  0  3.966464  0
C  C234  1  0.43737168  0.47520697  0.59186656  1  0.019992  0  -0.075894  -0.084143  0  3.972817  0
C  C235  1  0.37632767  0.55047064  0.60469324  1  -0.014594  0  -0.083243  -0.127067  0  3.962493  0
C  C236  1  0.29324395  0.44152300  0.65180911  1  0.015702  0  -0.084105  -0.089949  0  3.986821  0
C  C237  1  0.23215299  0.51644430  0.66537354  1  -0.040815  0  -0.0878  -0.12917  0  3.960309  0
C  C238  1  0.27310965  0.57186400  0.64199026  1  -0.077874  0  -0.005183  0.065339  0  3.997316  0
C  C239  1  0.20657603  0.65109801  0.65445341  1  0.039066  0  0.012147  0.103115  0  3.995246  0
C  C240  1  0.12019372  0.67431244  0.71919809  1  -0.06838  0  -0.08361  -0.165372  0  3.942705  0
C  C241  1  0.05410175  0.74803952  0.72599398  1  0.487014  0  0.037131  0.090629  0  3.952451  0
C  C242  1  0.22299001  0.70594891  0.60030638  1  -0.031836  0  -0.078708  -0.164999  0  3.913095  0
C  C243  1  0.15245742  0.77842183  0.61111276  1  0.385068  0  0.036543  0.08001  0  3.942544  0
C  C244  1  0.78718363  0.17334657  0.54398811  1  1.558812  0  0.186601  0.573382  0  4.219076  0
C  C245  1  0.89629144  0.15521751  0.51163397  1  -0.042495  0  -0.011226  -0.015486  0  3.943207  0
C  C246  1  0.96104117  0.10287012  0.45406119  1  -0.0537  0  -0.080517  -0.080263  0  3.954619  0
C  C247  1  0.06209203  0.08942014  0.42374228  1  0.010486  0  -0.090506  -0.130392  0  3.964802  0
C  C248  1  0.93393683  0.19307119  0.53948328  1  0.00437  0  -0.077566  -0.080412  0  3.960351  0
C  C249  1  0.03446564  0.17977776  0.50926256  1  -0.028813  0  -0.088112  -0.129586  0  3.982752  0
C  C250  1  0.09987923  0.12831197  0.45040528  1  -0.038469  0  -0.005602  0.064402  0  4.002367  0
C  C251  1  0.20548584  0.11757859  0.41816772  1  -0.053709  0  0.012524  0.098555  0  3.993041  0
C  C252  1  0.28261579  0.04765269  0.39472917  1  -0.052023  0  -0.079566  -0.172927  0  3.933838  0
C  C253  1  0.38094374  0.04091022  0.36890090  1  0.449635  0  0.044307  0.085817  0  3.91366  0
C  C254  1  0.23335984  0.17873260  0.41101402  1  -0.020207  0  -0.076435  -0.15812  0  3.924408  0
C  C255  1  0.33279127  0.16781962  0.38390737  1  0.455321  0  0.038464  0.08579  0  3.94407  0
C  C256  1  0.48527369  0.12396723  0.61509617  1  1.530617  0  0.185146  0.556544  0  4.258209  0
C  C257  1  0.40432397  0.10072048  0.62136446  1  -0.032527  0  -0.015907  -0.031138  0  3.968882  0
C  C258  1  0.34720001  0.08087891  0.69171643  1  -0.013982  0  -0.082507  -0.08755  0  3.9777  0
C  C259  1  0.26983911  0.06033427  0.69986086  1  -0.08985  0  -0.090354  -0.132535  0  3.981542  0
C  C260  1  0.38294857  0.09959683  0.55899223  1  -0.022247  0  -0.077145  -0.080347  0  3.960131  0
C  C261  1  0.30654769  0.07792822  0.56692182  1  -0.030424  0  -0.084156  -0.121397  0  3.957198  0
C  C262  1  0.24889540  0.05790319  0.63727335  1  -0.029637  0  -0.002537  0.068375  0  3.989932  0
C  C263  1  0.17032067  0.03285068  0.64424053  1  -0.024303  0  0.008287  0.105244  0  3.985797  0
C  C264  1  0.08038059  0.05040137  0.70670964  1  -0.022318  0  -0.090084  -0.183499  0  3.980624  0
C  C265  1  0.01076494  0.02245899  0.71173392  1  0.410474  0  0.030516  0.071747  0  3.993983  0
C  C266  1  0.18258536  0.98953651  0.58798341  1  0.024689  0  -0.076545  -0.157308  0  3.902054  0
C  C267  1  0.10879110  0.96460586  0.59686365  1  0.435372  0  0.041342  0.09517  0  3.921639  0
C  C268  1  0.60688517  0.17764712  0.75049309  1  1.551565  0  0.185833  0.56844  0  4.231945  0
C  C269  1  0.60471778  0.16506728  0.82833364  1  0.001277  0  -0.012252  -0.020921  0  3.957051  0
C  C270  1  0.67262119  0.10004002  0.84651850  1  -0.044232  0  -0.084841  -0.088731  0  3.973116  0
C  C271  1  0.66728844  0.08790758  0.91995766  1  -0.092529  0  -0.098009  -0.140285  0  3.997309  0
C  C272  1  0.53148824  0.21728421  0.88415166  1  -0.087872  0  -0.079817  -0.082953  0  3.964671  0
C  C273  1  0.52360871  0.20407725  0.95810693  1  -0.039899  0  -0.087005  -0.131395  0  3.949981  0
C  C274  1  0.59225032  0.13916744  0.97645298  1  -0.050888  0  -0.008002  0.063357  0  4.007496  0
C  C275  1  0.58500078  0.12451249  0.05439811  1  -0.02437  0  0.012802  0.10715  0  3.991844  0
C  C276  1  0.66884174  0.09939915  0.07343562  1  -0.040758  0  -0.088472  -0.185888  0  3.981778  0
C  C277  1  0.65798163  0.08651237  0.14798345  1  0.432458  0  0.034361  0.071907  0  3.993612  0
C  C278  1  0.49327691  0.13554859  0.11327047  1  0.010229  0  -0.070977  -0.146832  0  3.901812  0
C  C279  1  0.48918266  0.11988868  0.18603608  1  0.474129  0  0.048673  0.098903  0  3.919398  0
C  C280  1  0.40437304  0.66073104  0.39596566  1  1.516087  0  0.183607  0.557697  0  4.24676  0
C  C281  1  0.43199361  0.57982818  0.38475646  1  -0.068156  0  -0.015567  -0.027  0  3.970063  0
C  C282  1  0.50472759  0.52490401  0.40815444  1  -0.020834  0  -0.075888  -0.083507  0  3.974534  0
C  C283  1  0.53181543  0.44964520  0.39524318  1  -0.032372  0  -0.083633  -0.128615  0  3.96653  0
C  C284  1  0.38665285  0.55860718  0.34838440  1  -0.03202  0  -0.083863  -0.08917  0  3.988535  0
C  C285  1  0.41411321  0.48368798  0.33471175  1  -0.092896  0  -0.087475  -0.129208  0  3.958547  0
C  C286  1  0.48717430  0.42824935  0.35802306  1  0.007759  0  -0.004271  0.066804  0  3.998785  0
C  C287  1  0.51230289  0.34900861  0.34554319  1  0.018517  0  0.01106  0.101718  0  3.996578  0
C  C288  1  0.51401487  0.32576048  0.28075398  1  -0.021034  0  -0.083027  -0.165051  0  3.943751  0
C  C289  1  0.52835746  0.25203672  0.27401582  1  0.446533  0  0.037783  0.091635  0  3.952105  0
C  C290  1  0.52914256  0.29422940  0.39981732  1  -0.070186  0  -0.079045  -0.164182  0  3.913004  0
C  C291  1  0.54180804  0.22176395  0.38905125  1  0.464584  0  0.036421  0.078509  0  3.945164  0
C  C292  1  0.50462554  0.82666888  0.45593101  1  1.543016  0  0.186214  0.572233  0  4.220601  0
C  C293  1  0.56326577  0.84471258  0.48836149  1  -0.086631  0  -0.01078  -0.015029  0  3.94671  0
C  C294  1  0.51808152  0.89699896  0.54599701  1  0.029916  0  -0.080733  -0.082186  0  3.956495  0
C  C295  1  0.57536222  0.91038505  0.57638789  1  -0.023941  0  -0.090122  -0.128241  0  3.964983  0
C  C296  1  0.66658642  0.80680283  0.46059308  1  0.008548  0  -0.077354  -0.079618  0  3.96202  0
C  C297  1  0.72361028  0.82003011  0.49086538  1  -0.032086  0  -0.088038  -0.129059  0  3.984382  0
C  C298  1  0.67869024  0.87150765  0.54970818  1  -0.018053  0  -0.005736  0.064074  0  4.003543  0
C  C299  1  0.74132984  0.88225805  0.58193986  1  -0.053366  0  0.01221  0.097348  0  3.992752  0
C  C300  1  0.72509988  0.95222531  0.60530427  1  -0.040618  0  -0.079122  -0.170896  0  3.93092  0
C  C301  1  0.79089460  0.95906625  0.63103097  1  0.450319  0  0.043437  0.082025  0  3.916178  0
C  C302  1  0.82321086  0.82114470  0.58912414  1  0.001954  0  -0.076206  -0.157507  0  3.924236  0
C  C303  1  0.88465346  0.83214757  0.61614927  1  0.457602  0  0.038979  0.086558  0  3.943784  0
C  C304  1  0.22413358  0.87595768  0.38492824  1  1.520773  0  0.184865  0.558169  0  4.252633  0
C  C305  1  0.12619805  0.89912195  0.37870125  1  -0.057623  0  -0.015853  -0.03035  0  3.967953  0
C  C306  1  0.11947477  0.91895108  0.30838049  1  0.010216  0  -0.082737  -0.088742  0  3.979974  0
C  C307  1  0.02967089  0.93957773  0.30030281  1  -0.102611  0  -0.090203  -0.131089  0  3.982831  0
C  C308  1  0.04138783  0.90029123  0.44113312  1  -0.071516  0  -0.077417  -0.081716  0  3.958302  0
C  C309  1  0.95117263  0.92201822  0.43327658  1  0.002837  0  -0.084314  -0.121094  0  3.952037  0
C  C310  1  0.94376508  0.94204976  0.36294372  1  -0.037564  0  -0.001612  0.069093  0  3.990773  0
C  C311  1  0.84705268  0.96717600  0.35603038  1  -0.00161  0  0.007542  0.103171  0  3.989721  0
C  C312  1  0.83700026  0.94943193  0.29370535  1  -0.011367  0  -0.090486  -0.185322  0  3.982835  0
C  C313  1  0.74446896  0.97746276  0.28866582  1  0.435712  0  0.031495  0.075224  0  3.992502  0
C  C314  1  0.75985084  0.01070644  0.41218433  1  0.030542  0  -0.076315  -0.15609  0  3.899302  0
C  C315  1  0.66998568  0.03567009  0.40332942  1  0.427185  0  0.041022  0.095855  0  3.922448  0
C  C316  1  0.53477638  0.82225334  0.24929554  1  1.551768  0  0.186818  0.570082  0  4.22937  0
C  C317  1  0.59805097  0.83465142  0.17144538  1  -0.043474  0  -0.013202  -0.021631  0  3.958728  0
C  C318  1  0.61926149  0.89962146  0.15328059  1  1.9e-05  0  -0.0837  -0.087798  0  3.973348  0
C  C319  1  0.67538307  0.91165881  0.07986241  1  -0.090758  0  -0.097637  -0.138402  0  3.997004  0
C  C320  1  0.63287487  0.78238485  0.11563994  1  -0.05529  0  -0.080551  -0.084205  0  3.965777  0
C  C321  1  0.68592031  0.79550927  0.04170547  1  -0.058526  0  -0.086285  -0.130696  0  3.951341  0
C  C322  1  0.70811572  0.86037426  0.02337234  1  -0.011672  0  -0.009176  0.062722  0  4.006158  0
C  C323  1  0.76415095  0.87507717  0.94544965  1  -0.040313  0  0.013077  0.106669  0  3.992415  0
C  C324  1  0.84193319  0.90016019  0.92644577  1  -0.07215  0  -0.088897  -0.185366  0  3.983671  0
C  C325  1  0.89250214  0.91325605  0.85192826  1  0.488285  0  0.034681  0.071537  0  3.994458  0
C  C326  1  0.74212517  0.86425687  0.88658311  1  -0.031274  0  -0.070864  -0.147708  0  3.902173  0
C  C327  1  0.79490178  0.88014705  0.81385905  1  0.488212  0  0.04772  0.098145  0  3.918181  0
N  N328  1  0.13155945  0.32732230  0.80036828  1  -1.199315  0  -0.356478  -0.232784  0  3.618519  0
N  N329  1  0.49327769  0.63603080  0.09973517  1  -1.245382  0  -0.368476  -0.23043  0  3.674684  0
N  N330  1  0.99738096  0.34141894  0.97780108  1  -1.211313  0  -0.370783  -0.223914  0  3.66808  0
N  N331  1  0.33510104  0.79546487  0.09514373  1  -1.223524  0  -0.353558  -0.2243  0  3.62135  0
N  N332  1  0.25940224  0.67265626  0.19954402  1  -1.246541  0  -0.356741  -0.230862  0  3.618544  0
N  N333  1  0.22904235  0.36402567  0.90030777  1  -1.231257  0  -0.368721  -0.231305  0  3.676956  0
N  N334  1  0.31637606  0.65900764  0.02204866  1  -1.197777  0  -0.370377  -0.223456  0  3.667493  0
N  N335  1  0.22546746  0.20456263  0.90491600  1  -1.219669  0  -0.35319  -0.223749  0  3.616808  0
N  N336  1  0.06799573  0.80031262  0.67275788  1  -1.241555  0  -0.356402  -0.231905  0  3.618061  0
N  N337  1  0.40684736  0.09996380  0.36401852  1  -1.250341  0  -0.368966  -0.231905  0  3.673456  0
N  N338  1  0.02468679  0.97773896  0.65900629  1  -1.209661  0  -0.370061  -0.222633  0  3.668548  0
N  N339  1  0.56986185  0.09535352  0.20443084  1  -1.220084  0  -0.354607  -0.224676  0  3.618875  0
N  N340  1  0.54106037  0.19981315  0.32734262  1  -1.244176  0  -0.356528  -0.231726  0  3.6186  0
N  N341  1  0.87099086  0.90005368  0.63590639  1  -1.250921  0  -0.369066  -0.230118  0  3.675141  0
N  N342  1  0.66107480  0.02240271  0.34127015  1  -1.214859  0  -0.370281  -0.224029  0  3.670174  0
N  N343  1  0.86944857  0.90465712  0.79550351  1  -1.22108  0  -0.354495  -0.224926  0  3.620095  0
O  O344  1  0.28442092  0.35869537  0.29024073  1  -1.178408  0  -0.378001  -0.619935  0  2.185251  0
O  O345  1  0.12844717  0.44023413  0.31928648  1  -1.176804  0  -0.397115  -0.642189  0  2.165493  0
O  O346  1  0.04019454  0.41040671  0.22801603  1  -1.154765  0  -0.391591  -0.615788  0  2.177362  0
O  O347  1  0.11590575  0.47295591  0.13427585  1  -1.191493  0  -0.40193  -0.65954  0  2.142927  0
O  O348  1  0.31868685  0.44760245  0.14665065  1  -1.18723  0  -0.380798  -0.637558  0  2.205358  0
O  O349  1  0.37481316  0.32639037  0.12197230  1  -1.175621  0  -0.381391  -0.627219  0  2.21557  0
O  O350  1  0.20757480  0.29831691  0.12652483  1  -1.182846  0  -0.376404  -0.621938  0  2.206727  0
O  O351  1  0.21547319  0.26434547  0.23912630  1  -1.165385  0  -0.399651  -0.624833  0  2.16582  0
O  O352  1  0.93288915  0.64145193  0.70956925  1  -1.176283  0  -0.379162  -0.621427  0  2.189057  0
O  O353  1  0.88793348  0.55962370  0.68048992  1  -1.189779  0  -0.397928  -0.642754  0  2.166793  0
O  O354  1  0.67842517  0.58976254  0.77187172  1  -1.15751  0  -0.391821  -0.616632  0  2.177731  0
O  O355  1  0.72299465  0.52724732  0.86562893  1  -1.20476  0  -0.402232  -0.659777  0  2.138509  0
O  O356  1  0.91305050  0.55240755  0.85289499  1  -1.185818  0  -0.380461  -0.635727  0  2.207661  0
O  O357  1  0.82295893  0.67351928  0.87796200  1  -1.18388  0  -0.382063  -0.627084  0  2.217925  0
O  O358  1  0.63217754  0.70170459  0.87349240  1  -1.181948  0  -0.375679  -0.622407  0  2.208645  0
O  O359  1  0.71860171  0.73579862  0.76092251  1  -1.177684  0  -0.400545  -0.626096  0  2.166606  0
O  O360  1  0.42549009  0.29048700  0.64123683  1  -1.179074  0  -0.378731  -0.621065  0  2.185171  0
O  O361  1  0.55226667  0.31965059  0.55953427  1  -1.183303  0  -0.397162  -0.642201  0  2.167192  0
O  O362  1  0.73178348  0.22820359  0.58938112  1  -1.159082  0  -0.391058  -0.615562  0  2.177426  0
O  O363  1  0.74967619  0.13438713  0.52703519  1  -1.195631  0  -0.401436  -0.658819  0  2.142309  0
O  O364  1  0.53459076  0.14693099  0.55224646  1  -1.194137  0  -0.381004  -0.636078  0  2.204729  0
O  O365  1  0.50326183  0.12219844  0.67348126  1  -1.176035  0  -0.381517  -0.626493  0  2.219458  0
O  O366  1  0.66618099  0.12660549  0.70134113  1  -1.183366  0  -0.375831  -0.621058  0  2.209256  0
O  O367  1  0.54584977  0.23920026  0.73537069  1  -1.172472  0  -0.400375  -0.625649  0  2.166455  0
O  O368  1  0.35694045  0.70959842  0.35915102  1  -1.182704  0  -0.378633  -0.62143  0  2.188683  0
O  O369  1  0.43185134  0.68049736  0.44042827  1  -1.181336  0  -0.397291  -0.642005  0  2.164807  0
O  O370  1  0.54949128  0.77198860  0.41032616  1  -1.155943  0  -0.39057  -0.614731  0  2.178357  0
O  O371  1  0.41115794  0.86552495  0.47304938  1  -1.197085  0  -0.402156  -0.659479  0  2.140275  0
O  O372  1  0.23365152  0.85318167  0.44777323  1  -1.183134  0  -0.380299  -0.636531  0  2.206332  0
O  O373  1  0.29867944  0.87765939  0.32646439  1  -1.183158  0  -0.382245  -0.62831  0  2.218486  0
O  O374  1  0.49376565  0.87345928  0.29832229  1  -1.177806  0  -0.376723  -0.623262  0  2.208114  0
O  O375  1  0.52015937  0.76071785  0.26457226  1  -1.167032  0  -0.400066  -0.625279  0  2.166172  0
