# generated using pymatgen
data_CuH4C3BrN
_symmetry_space_group_name_H-M   'P 1'
_cell_length_a   3.85508205
_cell_length_b   8.31812012
_cell_length_c   14.50597188
_cell_angle_alpha   92.85434121
_cell_angle_beta   91.24338551
_cell_angle_gamma   90.22205912
_symmetry_Int_Tables_number   1
_chemical_formula_structural   CuH4C3BrN
_chemical_formula_sum   'Cu4 H16 C12 Br4 N4'
_cell_volume   464.47130080
_cell_formula_units_Z   4
loop_
 _symmetry_equiv_pos_site_id
 _symmetry_equiv_pos_as_xyz
  1  'x, y, z'
loop_
 _atom_site_type_symbol
 _atom_site_label
 _atom_site_symmetry_multiplicity
 _atom_site_fract_x
 _atom_site_fract_y
 _atom_site_fract_z
 _atom_site_occupancy
 _atom_site_hle17_bader_spin_density
 _atom_site_hle17_ddec_charge
 _atom_site_hle17_ddec_spin_density
 _atom_site_hle17_ddec_sum_bond_order
 _atom_site_hle17_magmom
 _atom_site_hse06_10hf_bader_spin_density
 _atom_site_hse06_10hf_ddec_charge
 _atom_site_hse06_10hf_ddec_spin_density
 _atom_site_hse06_10hf_ddec_sum_bond_order
 _atom_site_hse06_10hf_magmom
 _atom_site_hse06_bader_spin_density
 _atom_site_hse06_ddec_charge
 _atom_site_hse06_ddec_spin_density
 _atom_site_hse06_ddec_sum_bond_order
 _atom_site_hse06_magmom
 _atom_site_pbe_bader_spin_density
 _atom_site_pbe_cm5_charge
 _atom_site_pbe_ddec_charge
 _atom_site_pbe_ddec_spin_density
 _atom_site_pbe_ddec_sum_bond_order
 _atom_site_pbe_magmom
Cu  Cu0  1  0.65125963  0.39031192  0.75021646  1  0  0.360795  0  2.019522  0  0  0.265643  0  2.512359  0  0  0.273431  0  2.458906  0  0  0.318684  0.26223  0  2.547429  0
Cu  Cu1  1  0.34867834  0.60969043  0.24978814  1  0  0.360777  0  2.019577  0  0  0.265594  0  2.512433  0  0  0.273403  0  2.458966  0  0  0.318674  0.262174  0  2.547519  0
Cu  Cu2  1  0.00491079  0.17247427  0.84206244  1  0  0.344228  0  2.050369  0  0  0.250495  0  2.541575  0  0  0.257896  0  2.488922  0  0  0.311856  0.247467  0  2.57587  0
Cu  Cu3  1  0.99507371  0.82752411  0.15794295  1  0  0.344268  0  2.050226  0  0  0.25058  0  2.541417  0  0  0.257961  0  2.488773  0  0  0.311848  0.247549  0  2.575706  0
H  H4  1  0.70916558  0.98583313  0.68542144  1  0  0.095603  0  0.972463  0  0  0.101677  0  1.041807  0  0  0.1058  0  1.038561  0  0  0.107054  0.098407  0  1.044803  0
H  H5  1  0.29084729  0.01416497  0.31457442  1  0  0.095658  0  0.972473  0  0  0.101745  0  1.041765  0  0  0.105871  0  1.038519  0  0  0.10708  0.098475  0  1.044758  0
H  H6  1  0.13141126  0.86642905  0.93934873  1  0  0.089956  0  0.957119  0  0  0.095175  0  1.029308  0  0  0.099846  0  1.024714  0  0  0.104292  0.091612  0  1.032992  0
H  H7  1  0.86859370  0.13356552  0.06064976  1  0  0.089921  0  0.957129  0  0  0.095161  0  1.029316  0  0  0.099835  0  1.024717  0  0  0.104279  0.091597  0  1.033003  0
H  H8  1  0.95287272  0.57970157  0.90667990  1  0  0.09685  0  0.949502  0  0  0.101457  0  1.018543  0  0  0.105626  0  1.015185  0  0  0.102428  0.098098  0  1.021682  0
H  H9  1  0.04712180  0.42029068  0.09332055  1  0  0.096797  0  0.949681  0  0  0.101376  0  1.018752  0  0  0.105548  0  1.015389  0  0  0.102412  0.098019  0  1.02189  0
H  H10  1  0.27159999  0.60678957  0.63931755  1  0  0.080421  0  0.96167  0  0  0.094932  0  1.031433  0  0  0.096316  0  1.03117  0  0  0.088768  0.093804  0  1.031677  0
H  H11  1  0.72842097  0.39321568  0.36067716  1  0  0.080404  0  0.96166  0  0  0.094916  0  1.031413  0  0  0.096283  0  1.031172  0  0  0.088779  0.093788  0  1.031658  0
H  H12  1  0.67776277  0.58771950  0.59033724  1  0  0.090039  0  0.915511  0  0  0.111681  0  0.969785  0  0  0.114123  0  0.967881  0  0  0.097734  0.10961  0  0.971541  0
H  H13  1  0.32224528  0.41228587  0.40966086  1  0  0.090098  0  0.915402  0  0  0.111728  0  0.96967  0  0  0.114176  0  0.967761  0  0  0.097729  0.109655  0  0.971426  0
H  H14  1  0.27957918  0.75669437  0.49582302  1  0  0.106711  0  0.968285  0  0  0.126245  0  1.031434  0  0  0.128456  0  1.031441  0  0  0.075843  0.124397  0  1.031753  0
H  H15  1  0.72043143  0.24331097  0.50417302  1  0  0.106742  0  0.968362  0  0  0.12628  0  1.031483  0  0  0.128489  0  1.031489  0  0  0.075852  0.124433  0  1.031797  0
H  H16  1  0.64991854  0.86835100  0.53419256  1  0  0.098479  0  0.961893  0  0  0.121208  0  1.022162  0  0  0.122424  0  1.023023  0  0  0.083136  0.120267  0  1.021611  0
H  H17  1  0.35011035  0.13165661  0.46580432  1  0  0.098506  0  0.961951  0  0  0.121195  0  1.022276  0  0  0.122416  0  1.023126  0  0  0.083097  0.120223  0  1.021757  0
H  H18  1  0.24905356  0.90148682  0.58964005  1  0  0.088033  0  0.978146  0  0  0.10704  0  1.047499  0  0  0.107681  0  1.048809  0  0  0.077596  0.106524  0  1.046606  0
H  H19  1  0.75096254  0.09852333  0.41036097  1  0  0.087996  0  0.978334  0  0  0.107006  0  1.047683  0  0  0.107653  0  1.048988  0  0  0.077564  0.106492  0  1.046782  0
C  C20  1  0.67147658  0.73331080  0.71380866  1  0  0.214786  0  3.665502  0  0  0.219945  0  3.907731  0  0  0.225513  0  3.925913  0  0  0.116487  0.215953  0  3.895864  0
C  C21  1  0.32851798  0.26668383  0.28618772  1  0  0.215027  0  3.665693  0  0  0.220122  0  3.907956  0  0  0.225697  0  3.92613  0  0  0.116525  0.216123  0  3.896092  0
C  C22  1  0.76438056  0.89323197  0.73403837  1  0  0.022461  0  3.62587  0  0  -0.013715  0  3.879535  0  0  -0.010742  0  3.891406  0  0  0.033907  -0.01648  0  3.872771  0
C  C23  1  0.23563766  0.10676733  0.26596375  1  0  0.022214  0  3.626095  0  0  -0.01394  0  3.879758  0  0  -0.010975  0  3.891629  0  0  0.033847  -0.016704  0  3.872988  0
C  C24  1  0.99563847  0.82971417  0.87504619  1  0  0.064182  0  3.658809  0  0  0.031391  0  3.917003  0  0  0.034284  0  3.928744  0  0  0.031421  0.028986  0  3.910218  0
C  C25  1  0.00436916  0.17028040  0.12495576  1  0  0.06425  0  3.658834  0  0  0.031413  0  3.917062  0  0  0.034311  0  3.928791  0  0  0.031471  0.029004  0  3.910275  0
C  C26  1  0.89910410  0.67042304  0.85670361  1  0  0.093553  0  3.657975  0  0  0.062023  0  3.917173  0  0  0.068288  0  3.927648  0  0  0.03659  0.056753  0  3.912214  0
C  C27  1  0.10088564  0.32957887  0.14329501  1  0  0.093665  0  3.657923  0  0  0.062189  0  3.917055  0  0  0.068432  0  3.927573  0  0  0.036672  0.056922  0  3.912098  0
C  C28  1  0.50376341  0.67724963  0.62360336  1  0  -0.143874  0  3.734096  0  0  -0.182935  0  3.985599  0  0  -0.185015  0  3.99751  0  0  -0.164833  -0.181257  0  3.977505  0
C  C29  1  0.49624413  0.32274609  0.37639104  1  0  -0.144042  0  3.733922  0  0  -0.183039  0  3.985374  0  0  -0.185125  0  3.997316  0  0  -0.164846  -0.181344  0  3.977266  0
C  C30  1  0.41578509  0.80852870  0.55757234  1  0  -0.282921  0  3.702743  0  0  -0.354692  0  3.9412  0  0  -0.358286  0  3.95256  0  0  -0.254228  -0.351799  0  3.933407  0
C  C31  1  0.58424076  0.19146693  0.44243041  1  0  -0.282941  0  3.702879  0  0  -0.354719  0  3.941262  0  0  -0.358314  0  3.952606  0  0  -0.254204  -0.351799  0  3.933482  0
Br  Br32  1  0.51023895  0.29829127  0.91944822  1  0  -0.44855  0  1.573751  0  0  -0.373251  0  2.004288  0  0  -0.394355  0  1.965108  0  0  -0.227029  -0.358037  0  2.030773  0
Br  Br33  1  0.48974564  0.70170833  0.08055927  1  0  -0.44857  0  1.573661  0  0  -0.37329  0  2.004221  0  0  -0.394382  0  1.965022  0  0  -0.227041  -0.35807  0  2.030699  0
Br  Br34  1  0.14153012  0.26247751  0.67143431  1  0  -0.451238  0  1.530688  0  0  -0.378134  0  1.949351  0  0  -0.397144  0  1.909385  0  0  -0.216659  -0.364755  0  1.97672  0
Br  Br35  1  0.85841832  0.73752715  0.32856902  1  0  -0.451241  0  1.530688  0  0  -0.378155  0  1.949409  0  0  -0.397167  0  1.90944  0  0  -0.216682  -0.364768  0  1.976786  0
N  N36  1  0.73728879  0.62031470  0.77680515  1  0  -0.293625  0  3.336109  0  0  -0.229599  0  3.632504  0  0  -0.234862  0  3.634738  0  0  -0.359996  -0.226524  0  3.630642  0
N  N37  1  0.26270313  0.37967757  0.22319529  1  0  -0.293633  0  3.336192  0  0  -0.229595  0  3.632566  0  0  -0.234854  0  3.634794  0  0  -0.359983  -0.226523  0  3.630715  0
N  N38  1  0.92730471  0.94331465  0.81390739  1  0  -0.2259  0  3.393092  0  0  -0.156583  0  3.691796  0  0  -0.159279  0  3.695086  0  0  -0.363053  -0.155264  0  3.689436  0
N  N39  1  0.07269567  0.05669200  0.18609416  1  0  -0.225883  0  3.393264  0  0  -0.156571  0  3.691962  0  0  -0.159261  0  3.695239  0  0  -0.36307  -0.155239  0  3.689582  0
