# generated using pymatgen
data_Mn2H9C9NO12
_symmetry_space_group_name_H-M   'P 1'
_cell_length_a   6.55055079
_cell_length_b   8.83453471
_cell_length_c   11.15087922
_cell_angle_alpha   91.86301280
_cell_angle_beta   106.21967369
_cell_angle_gamma   92.30694856
_symmetry_Int_Tables_number   1
_chemical_formula_structural   Mn2H9C9NO12
_chemical_formula_sum   'Mn4 H18 C18 N2 O24'
_cell_volume   618.48208434
_cell_formula_units_Z   2
loop_
 _symmetry_equiv_pos_site_id
 _symmetry_equiv_pos_as_xyz
  1  'x, y, z'
loop_
 _atom_site_type_symbol
 _atom_site_label
 _atom_site_symmetry_multiplicity
 _atom_site_fract_x
 _atom_site_fract_y
 _atom_site_fract_z
 _atom_site_occupancy
 _atom_site_hle17_ddec_charge
 _atom_site_hle17_ddec_spin_density
 _atom_site_hle17_ddec_sum_bond_order
 _atom_site_hle17_magmom
 _atom_site_hse06_10hf_ddec_charge
 _atom_site_hse06_10hf_ddec_spin_density
 _atom_site_hse06_10hf_ddec_sum_bond_order
 _atom_site_hse06_10hf_magmom
 _atom_site_hse06_ddec_charge
 _atom_site_hse06_ddec_spin_density
 _atom_site_hse06_ddec_sum_bond_order
 _atom_site_hse06_magmom
 _atom_site_pbe_cm5_charge
 _atom_site_pbe_ddec_charge
 _atom_site_pbe_ddec_spin_density
 _atom_site_pbe_ddec_sum_bond_order
 _atom_site_pbe_magmom
Mn  Mn0  1  0.63244417  0.27341476  0.16678295  1  1.317471  4.812027  1.557186  4.699  1.16732  4.738452  2.036007  4.562  1.221929  4.780952  1.963162  4.62  0.605351  1.125674  4.690843  2.089784  4.501
Mn  Mn1  1  0.36756183  0.72658482  0.83321875  1  1.317499  4.812012  1.557171  4.699  1.16735  4.738452  2.035996  4.562  1.221963  4.780952  1.963147  4.62  0.605364  1.1257  4.690847  2.089764  4.501
Mn  Mn2  1  0.19584869  0.78582576  0.27304517  1  1.228243  -4.811406  1.643839  -4.703  1.052288  -4.735905  2.1256  -4.566  1.112441  -4.779603  2.056677  -4.625  0.594786  1.003046  -4.68739  2.177308  -4.505
Mn  Mn3  1  0.80414927  0.21417271  0.72695426  1  1.228281  -4.811412  1.643768  -4.703  1.052336  -4.735911  2.125515  -4.566  1.112485  -4.779608  2.056598  -4.625  0.594788  1.003095  -4.687398  2.17722  -4.505
H  H4  1  0.76999687  0.97935070  0.14488357  1  0.434055  0.001042  0.848928  0.002  0.403586  0.001702  0.920103  0.002  0.4133  0.001386  0.905865  0.002  0.307353  0.396731  0.00196  0.930136  0.002
H  H5  1  0.23000118  0.02064891  0.85511591  1  0.434066  0.001043  0.848885  0.002  0.403576  0.001702  0.920113  0.002  0.4133  0.001385  0.905865  0.002  0.307342  0.396718  0.00196  0.930152  0.002
H  H6  1  0.75311058  0.04945543  0.01167185  1  0.433555  0.000457  0.86745  0.001  0.399826  0.00086  0.934815  0.002  0.411594  0.000677  0.917758  0.002  0.298413  0.391461  0.001058  0.946943  0.002
H  H7  1  0.24688756  0.95054531  0.98832768  1  0.433563  0.000456  0.867437  0.001  0.399837  0.000859  0.934796  0.002  0.411604  0.000677  0.91774  0.002  0.298418  0.391471  0.001058  0.946925  0.002
H  H8  1  0.74565226  0.35978593  0.97102597  1  0.424445  0.000229  0.875874  0.001  0.39533  0.000692  0.938171  0.002  0.405791  0.000554  0.923056  0.001  0.299499  0.387942  0.000806  0.948789  0.002
H  H9  1  0.25434749  0.64021483  0.02897204  1  0.42445  0.00023  0.875881  0.001  0.395326  0.000692  0.938181  0.002  0.405787  0.000554  0.923068  0.001  0.299496  0.387935  0.000806  0.948806  0.002
H  H10  1  0.51621017  0.29562681  0.90710783  1  0.43005  0.000855  0.857242  0.001  0.400391  0.001428  0.922427  0.002  0.411871  0.001204  0.905734  0.002  0.305202  0.392208  0.001616  0.934297  0.003
H  H11  1  0.48378939  0.70437167  0.09289097  1  0.429925  0.000853  0.857446  0.001  0.400358  0.001428  0.922466  0.002  0.411837  0.001205  0.905776  0.002  0.305182  0.392177  0.001616  0.934333  0.003
H  H12  1  0.65457497  0.36636258  0.39883527  1  0.412785  0.000368  0.895446  0.001  0.381253  0.000974  0.964567  0.001  0.392337  0.000823  0.948644  0.001  0.289896  0.372715  0.001097  0.977164  0.002
H  H13  1  0.34542308  0.63363702  0.60116510  1  0.412792  0.000367  0.895417  0.001  0.381266  0.000974  0.964541  0.001  0.39235  0.000823  0.948619  0.001  0.289898  0.372727  0.001097  0.97714  0.002
H  H14  1  0.49000337  0.47838490  0.31805164  1  0.422852  0.000814  0.882619  0.001  0.391435  0.001527  0.947472  0.002  0.401758  0.001284  0.932783  0.002  0.295401  0.384022  0.00175  0.958041  0.002
H  H15  1  0.50999628  0.52161472  0.68194721  1  0.422846  0.000813  0.882627  0.001  0.391433  0.001527  0.947475  0.002  0.401755  0.001284  0.932787  0.002  0.295398  0.384021  0.001749  0.958041  0.002
H  H16  1  0.91573694  0.71301824  0.01931898  1  0.439865  -0.000491  0.841469  -0.001  0.410843  -0.000977  0.905089  -0.001  0.420602  -0.000796  0.891019  -0.001  0.308323  0.403759  -0.001122  0.915344  -0.001
H  H17  1  0.08426122  0.28698253  0.98067876  1  0.439895  -0.000488  0.841438  -0.001  0.410881  -0.000977  0.905038  -0.001  0.420639  -0.000796  0.890968  -0.001  0.308344  0.403795  -0.001123  0.915297  -0.001
H  H18  1  0.96758067  0.57102540  0.10663929  1  0.422013  -0.000418  0.873646  0.0  0.389117  -0.000946  0.946693  0.0  0.400378  -0.000769  0.930356  0.0  0.303378  0.380938  -0.001068  0.958553  -0.001
H  H19  1  0.03241916  0.42897649  0.89335877  1  0.422001  -0.000416  0.873681  0.0  0.389122  -0.000946  0.946691  0.0  0.400384  -0.00077  0.930353  0.0  0.303382  0.380942  -0.001068  0.958556  -0.001
H  H20  1  0.82200949  0.59472551  0.47842513  1  0.122917  7.7e-05  0.938975  0.0  0.135384  2.4e-05  0.994125  0.0  0.139276  -3.6e-05  0.991119  0.0  0.119081  0.131685  9e-05  0.998181  0.0
H  H21  1  0.17799183  0.40527523  0.52157493  1  0.122951  6.8e-05  0.93891  0.0  0.135409  2.4e-05  0.994073  0.0  0.139304  -3.6e-05  0.991063  0.0  0.119092  0.131702  9e-05  0.998141  0.0
C  C22  1  0.72026035  0.11643724  0.44184652  1  0.616508  0.001556  3.928455  0.002  0.558732  0.001789  4.232537  0.002  0.590874  0.001671  4.229565  0.002  0.214956  0.536698  0.001806  4.23308  0.002
C  C23  1  0.27974097  0.88356349  0.55815444  1  0.616452  0.001542  3.928484  0.002  0.558735  0.00179  4.232534  0.002  0.590876  0.001669  4.229561  0.002  0.214976  0.536688  0.001806  4.233091  0.002
C  C24  1  0.75192962  0.97021313  0.50825686  1  0.081328  -0.003328  3.732057  -0.003  0.07282  -0.005098  3.986239  -0.005  0.074855  -0.004271  4.00316  -0.004  0.117343  0.070925  -0.005681  3.975449  -0.005
C  C25  1  0.24807320  0.02978647  0.49174341  1  0.081465  -0.003346  3.731868  -0.003  0.072845  -0.005099  3.98618  -0.005  0.07488  -0.004275  4.003102  -0.004  0.117355  0.070951  -0.005682  3.975392  -0.005
C  C26  1  0.76081959  0.82989901  0.44808037  1  -0.066088  0.003061  3.66523  0.002  -0.057655  0.002071  3.916465  0.002  -0.061791  0.002568  3.930623  0.002  0.012809  -0.055912  0.001586  3.908389  0.001
C  C27  1  0.23918182  0.17010285  0.55192063  1  -0.066146  0.003081  3.66528  0.002  -0.05771  0.00207  3.916505  0.002  -0.061844  0.00257  3.930658  0.002  0.012804  -0.055958  0.001586  3.90841  0.001
C  C28  1  0.80732798  0.70435971  0.52202064  1  -0.013177  -0.004813  3.608168  -0.004  -0.054671  -0.005864  3.864061  -0.005  -0.049279  -0.005209  3.874813  -0.005  -0.052441  -0.058096  -0.005254  3.858781  -0.005
C  C29  1  0.19267166  0.29563990  0.47797910  1  -0.013191  -0.004792  3.608134  -0.004  -0.05468  -0.005866  3.864022  -0.005  -0.049288  -0.005208  3.874771  -0.005  -0.052439  -0.058097  -0.005253  3.858746  -0.005
C  C30  1  0.82849456  0.71836944  0.64995984  1  -0.078018  0.00266  3.675809  0.002  -0.066891  0.002315  3.926643  0.002  -0.071462  0.002767  3.940683  0.002  0.01148  -0.065117  0.001964  3.91885  0.002
C  C31  1  0.17150340  0.28162904  0.35003959  1  -0.078023  0.002648  3.675746  0.002  -0.066892  0.00232  3.926578  0.002  -0.071465  0.002762  3.940622  0.002  0.011467  -0.065131  0.001964  3.918798  0.002
C  C32  1  0.79759423  0.86064299  0.70056368  1  0.099975  -0.003992  3.709365  -0.004  0.088982  -0.004932  3.965312  -0.004  0.092929  -0.004855  3.979416  -0.004  0.129713  0.084941  -0.007094  3.957254  -0.006
C  C33  1  0.20240391  0.13935774  0.29943675  1  0.099963  -0.003991  3.709416  -0.004  0.088964  -0.004931  3.965364  -0.004  0.092911  -0.004857  3.979471  -0.004  0.129701  0.084938  -0.007094  3.957286  -0.006
C  C34  1  0.77599496  0.88954169  0.82994572  1  0.645746  0.007953  3.875127  0.007  0.581776  0.011898  4.185488  0.009  0.617598  0.008472  4.174604  0.007  0.23162  0.555742  0.016679  4.193797  0.013
C  C35  1  0.22400635  0.11045903  0.17005613  1  0.6457  0.007958  3.875151  0.007  0.581749  0.0119  4.185495  0.009  0.617571  0.00847  4.174612  0.007  0.231555  0.555707  0.01668  4.193812  0.013
C  C36  1  0.88686552  0.58131679  0.72603766  1  0.689389  -0.001253  3.857791  -0.001  0.627764  -0.001658  4.159774  -0.001  0.663735  -0.001312  4.150714  -0.001  0.238362  0.602954  -0.001295  4.164886  -0.001
C  C37  1  0.11313253  0.41868282  0.27396182  1  0.689387  -0.001257  3.857775  -0.001  0.627757  -0.001658  4.159754  -0.001  0.663728  -0.001311  4.150699  -0.001  0.23838  0.60295  -0.001294  4.164867  -0.001
C  C38  1  0.71081156  0.80814008  0.30844401  1  0.716195  -0.005944  3.855692  -0.007  0.656725  -0.010547  4.157349  -0.011  0.694291  -0.008151  4.145371  -0.009  0.24137  0.629608  -0.013  4.166273  -0.013
C  C39  1  0.28918976  0.19186065  0.69155604  1  0.716109  -0.00595  3.855999  -0.007  0.656767  -0.010545  4.157448  -0.011  0.694332  -0.00815  4.145468  -0.009  0.241368  0.629651  -0.012998  4.166371  -0.013
N  N40  1  0.76839445  0.98240430  0.63068459  1  -0.346689  -0.023294  3.313329  -0.012  -0.295317  -0.025344  3.586854  -0.011  -0.310982  -0.022587  3.602833  -0.008  -0.304214  -0.282438  -0.027861  3.575411  -0.013
N  N41  1  0.23160510  0.01759417  0.36931511  1  -0.346682  -0.023297  3.313314  -0.012  -0.295275  -0.025344  3.586861  -0.011  -0.310943  -0.022582  3.602846  -0.008  -0.304184  -0.282396  -0.02786  3.575412  -0.013
O  O42  1  0.69817095  0.10966344  0.32553641  1  -0.624592  0.022026  2.059634  0.011  -0.560608  0.02643  2.319974  0.013  -0.59019  0.02506  2.313405  0.012  -0.286972  -0.538458  0.027762  2.323841  0.014
O  O43  1  0.30183513  0.89033726  0.67446533  1  -0.624596  0.022024  2.059634  0.011  -0.560662  0.02643  2.319996  0.013  -0.590246  0.02506  2.31343  0.012  -0.286996  -0.538496  0.027761  2.323848  0.014
O  O44  1  0.71902614  0.23646844  0.50877518  1  -0.631815  -0.022436  2.052298  -0.014  -0.567967  -0.027671  2.302494  -0.018  -0.597027  -0.025228  2.294506  -0.015  -0.288278  -0.54558  -0.030055  2.308114  -0.02
O  O45  1  0.28097191  0.76353116  0.49122520  1  -0.631793  -0.022419  2.052324  -0.014  -0.567935  -0.027672  2.302481  -0.018  -0.596997  -0.025225  2.294495  -0.015  -0.288277  -0.545546  -0.030055  2.308101  -0.02
O  O46  1  0.80614887  0.02538302  0.87303294  1  -0.587695  -0.015172  2.053684  -0.008  -0.519596  -0.016498  2.292726  -0.007  -0.547128  -0.016148  2.282106  -0.007  -0.269327  -0.500351  -0.016976  2.300771  -0.008
O  O47  1  0.19385404  0.97461771  0.12696738  1  -0.587703  -0.015156  2.053704  -0.008  -0.519599  -0.0165  2.292722  -0.007  -0.547134  -0.016143  2.282103  -0.007  -0.269306  -0.500351  -0.016973  2.300771  -0.008
O  O48  1  0.71638482  0.77716248  0.88422389  1  -0.666572  0.021414  2.019972  0.006  -0.598421  0.026299  2.276137  0.007  -0.625172  0.024688  2.258278  0.006  -0.303867  -0.578964  0.026773  2.288957  0.006
O  O49  1  0.28361958  0.22283709  0.11577844  1  -0.666551  0.021396  2.01994  0.006  -0.59841  0.026298  2.276105  0.007  -0.625158  0.024684  2.258247  0.006  -0.303849  -0.578944  0.026771  2.288926  0.006
O  O50  1  0.06187372  0.58727847  0.81151973  1  -0.633351  0.023392  2.074507  0.012  -0.563608  0.028238  2.326761  0.014  -0.59331  0.026511  2.313582  0.013  -0.280106  -0.541754  0.030692  2.335073  0.017
O  O51  1  0.93812106  0.41272001  0.18848007  1  -0.633378  0.023399  2.074489  0.012  -0.563623  0.028239  2.326746  0.014  -0.593327  0.026515  2.31357  0.013  -0.280146  -0.541768  0.030693  2.33506  0.017
O  O52  1  0.75982284  0.46448952  0.69538327  1  -0.630562  -0.018838  2.04881  -0.007  -0.555985  -0.022059  2.293029  -0.008  -0.585546  -0.020885  2.280414  -0.007  -0.288746  -0.533229  -0.023754  2.301731  -0.009
O  O53  1  0.24017671  0.53550895  0.30461642  1  -0.63052  -0.01883  2.048807  -0.007  -0.555946  -0.02206  2.293045  -0.008  -0.5855  -0.020885  2.280414  -0.007  -0.28871  -0.533185  -0.023754  2.301741  -0.009
O  O54  1  0.85862074  0.81290281  0.25560729  1  -0.648259  -0.030422  2.065342  -0.019  -0.58351  -0.038636  2.331188  -0.024  -0.61385  -0.034571  2.315329  -0.02  -0.296263  -0.560714  -0.042298  2.342093  -0.027
O  O55  1  0.14138377  0.18709792  0.74439240  1  -0.648265  -0.030417  2.065524  -0.019  -0.583542  -0.038634  2.331256  -0.024  -0.613878  -0.034567  2.315395  -0.02  -0.296286  -0.560752  -0.042295  2.342169  -0.027
O  O56  1  0.51673365  0.77790650  0.24968770  1  -0.634267  -0.030474  2.070291  -0.018  -0.560423  -0.038505  2.324934  -0.023  -0.592536  -0.034568  2.31102  -0.02  -0.283005  -0.53639  -0.04298  2.335058  -0.028
O  O57  1  0.48326767  0.22209423  0.75031236  1  -0.634279  -0.030479  2.070421  -0.018  -0.560452  -0.038507  2.325001  -0.023  -0.592565  -0.034572  2.311086  -0.02  -0.283003  -0.536419  -0.042984  2.335126  -0.028
O  O58  1  0.73200242  0.06951227  0.09600069  1  -0.865061  0.032806  1.923538  0.021  -0.805955  0.041197  2.155497  0.026  -0.829795  0.036701  2.117654  0.022  -0.576198  -0.787636  0.045679  2.181957  0.031
O  O59  1  0.26799731  0.93048847  0.90399911  1  -0.865091  0.032806  1.923486  0.021  -0.805953  0.041197  2.155479  0.026  -0.829806  0.036701  2.117611  0.022  -0.576197  -0.787631  0.045678  2.181938  0.031
O  O60  1  0.60148017  0.35158499  0.98450228  1  -0.829734  0.034967  1.887288  0.023  -0.766819  0.041755  2.09853  0.026  -0.792288  0.037234  2.061108  0.022  -0.571944  -0.746953  0.045885  2.124517  0.03
O  O61  1  0.39851788  0.64841463  0.01549631  1  -0.829654  0.034972  1.887512  0.023  -0.766782  0.041757  2.098606  0.026  -0.792253  0.037234  2.061184  0.022  -0.57192  -0.746918  0.045887  2.124593  0.03
O  O62  1  0.62479350  0.42773351  0.32212905  1  -0.854397  0.029129  1.904248  0.015  -0.796874  0.036064  2.114753  0.018  -0.821556  0.032724  2.080264  0.015  -0.573888  -0.778368  0.039429  2.140977  0.021
O  O63  1  0.37520614  0.57226610  0.67787069  1  -0.854395  0.02913  1.904241  0.015  -0.796878  0.036063  2.114749  0.018  -0.821559  0.032723  2.08026  0.015  -0.573888  -0.778375  0.039429  2.140971  0.021
O  O64  1  0.03136285  0.66478537  0.08092281  1  -0.827077  -0.022545  1.946  -0.013  -0.759299  -0.029072  2.152388  -0.017  -0.783666  -0.026286  2.118623  -0.015  -0.549087  -0.741123  -0.031649  2.176519  -0.02
O  O65  1  0.96863521  0.33521425  0.91907578  1  -0.827115  -0.022553  1.946051  -0.013  -0.759342  -0.029072  2.15236  -0.017  -0.783723  -0.026286  2.118625  -0.015  -0.549108  -0.741165  -0.031649  2.176497  -0.02
