# generated using pymatgen
data_SnH8(CO)4
_symmetry_space_group_name_H-M   'P 1'
_cell_length_a   5.84749568
_cell_length_b   9.38515830
_cell_length_c   12.47626822
_cell_angle_alpha   90.00036809
_cell_angle_beta   89.99970288
_cell_angle_gamma   89.99999467
_symmetry_Int_Tables_number   1
_chemical_formula_structural   SnH8(CO)4
_chemical_formula_sum   'Sn4 H32 C16 O16'
_cell_volume   684.69351503
_cell_formula_units_Z   4
loop_
 _symmetry_equiv_pos_site_id
 _symmetry_equiv_pos_as_xyz
  1  'x, y, z'
loop_
 _atom_site_type_symbol
 _atom_site_label
 _atom_site_symmetry_multiplicity
 _atom_site_fract_x
 _atom_site_fract_y
 _atom_site_fract_z
 _atom_site_occupancy
 _atom_site_hle17_bader_spin_density
 _atom_site_hle17_ddec_charge
 _atom_site_hle17_ddec_spin_density
 _atom_site_hle17_ddec_sum_bond_order
 _atom_site_hle17_magmom
 _atom_site_hse06_10hf_bader_spin_density
 _atom_site_hse06_10hf_ddec_charge
 _atom_site_hse06_10hf_ddec_spin_density
 _atom_site_hse06_10hf_ddec_sum_bond_order
 _atom_site_hse06_10hf_magmom
 _atom_site_hse06_bader_spin_density
 _atom_site_hse06_ddec_charge
 _atom_site_hse06_ddec_spin_density
 _atom_site_hse06_ddec_sum_bond_order
 _atom_site_hse06_magmom
 _atom_site_pbe_bader_spin_density
 _atom_site_pbe_cm5_charge
 _atom_site_pbe_ddec_charge
 _atom_site_pbe_ddec_spin_density
 _atom_site_pbe_ddec_sum_bond_order
 _atom_site_pbe_magmom
Sn  Sn0  1  0.59885686  0.75001321  0.80203015  1  0  1.547672  0  2.764436  0  0  1.397455  0  3.267573  0  0  1.453895  0  3.234979  0  0  0.627369  1.358057  0  3.29066  0
Sn  Sn1  1  0.09884688  0.25001161  0.69796559  1  0  1.547656  0  2.764591  0  0  1.397425  0  3.267754  0  0  1.453865  0  3.235147  0  0  0.627337  1.358019  0  3.290849  0
Sn  Sn2  1  0.90112755  0.74999931  0.30203573  1  0  1.547773  0  2.764485  0  0  1.397577  0  3.267628  0  0  1.454012  0  3.235033  0  0  0.627407  1.358175  0  3.29072  0
Sn  Sn3  1  0.40112099  0.25000090  0.19795835  1  0  1.547571  0  2.764471  0  0  1.397371  0  3.267633  0  0  1.453801  0  3.235049  0  0  0.627328  1.35797  0  3.29072  0
H  H4  1  0.76449302  0.74999634  0.59785913  1  0  0.164761  0  0.992352  0  0  0.180307  0  1.054767  0  0  0.183675  0  1.054526  0  0  0.091179  0.17784  0  1.055041  0
H  H5  1  0.26448928  0.24999865  0.90213702  1  0  0.16474  0  0.992383  0  0  0.180327  0  1.054719  0  0  0.183692  0  1.054496  0  0  0.09119  0.177864  0  1.054984  0
H  H6  1  0.73549712  0.75000056  0.09785949  1  0  0.16479  0  0.992356  0  0  0.180358  0  1.054699  0  0  0.183723  0  1.054473  0  0  0.091192  0.177895  0  1.054964  0
H  H7  1  0.23548996  0.25000393  0.40214540  1  0  0.164813  0  0.992276  0  0  0.18035  0  1.054694  0  0  0.183714  0  1.054468  0  0  0.091206  0.177885  0  1.054964  0
H  H8  1  0.95123399  0.84585446  0.68597603  1  0  0.175776  0  0.996731  0  0  0.188816  0  1.056655  0  0  0.192941  0  1.056627  0  0  0.091348  0.185687  0  1.057168  0
H  H9  1  0.45124153  0.15414479  0.81402609  1  0  0.175789  0  0.996712  0  0  0.188833  0  1.056635  0  0  0.19296  0  1.056606  0  0  0.091343  0.185705  0  1.057148  0
H  H10  1  0.54876712  0.65414321  0.18597878  1  0  0.175797  0  0.996687  0  0  0.188844  0  1.056602  0  0  0.192972  0  1.056572  0  0  0.091355  0.185714  0  1.057118  0
H  H11  1  0.04875922  0.34585595  0.31401934  1  0  0.175798  0  0.996707  0  0  0.18884  0  1.05663  0  0  0.192971  0  1.056593  0  0  0.09135  0.185711  0  1.057146  0
H  H12  1  0.04876267  0.15414794  0.31401808  1  0  0.175781  0  0.996733  0  0  0.188831  0  1.056635  0  0  0.192959  0  1.056607  0  0  0.091343  0.185703  0  1.057149  0
H  H13  1  0.54875342  0.84585974  0.18597443  1  0  0.175793  0  0.996686  0  0  0.188827  0  1.056626  0  0  0.192953  0  1.056598  0  0  0.091343  0.185697  0  1.057141  0
H  H14  1  0.45122612  0.34585280  0.81402334  1  0  0.175797  0  0.996715  0  0  0.188831  0  1.056656  0  0  0.19296  0  1.056624  0  0  0.091368  0.185703  0  1.057168  0
H  H15  1  0.95123915  0.65414325  0.68597557  1  0  0.175802  0  0.996714  0  0  0.188816  0  1.056676  0  0  0.192942  0  1.056647  0  0  0.091343  0.185687  0  1.05719  0
H  H16  1  0.18635838  0.74999231  0.89406778  1  0  0.166663  0  0.991483  0  0  0.180388  0  1.05438  0  0  0.183376  0  1.055734  0  0  0.090913  0.178223  0  1.053495  0
H  H17  1  0.68636900  0.24999948  0.60594219  1  0  0.16673  0  0.99139  0  0  0.180412  0  1.054338  0  0  0.183391  0  1.055721  0  0  0.09092  0.178249  0  1.053449  0
H  H18  1  0.31363450  0.75000185  0.39405994  1  0  0.166609  0  0.991581  0  0  0.180381  0  1.05439  0  0  0.183368  0  1.055753  0  0  0.090908  0.178217  0  1.053504  0
H  H19  1  0.81363828  0.25000050  0.10592874  1  0  0.166621  0  0.9916  0  0  0.180385  0  1.054422  0  0  0.183373  0  1.055774  0  0  0.090911  0.178218  0  1.05354  0
H  H20  1  0.38526527  0.84595269  0.97696034  1  0  0.16407  0  0.979575  0  0  0.182229  0  1.034965  0  0  0.184938  0  1.036264  0  0  0.091065  0.18026  0  1.034228  0
H  H21  1  0.88526830  0.15404442  0.52304514  1  0  0.164035  0  0.979678  0  0  0.182195  0  1.035055  0  0  0.184905  0  1.036355  0  0  0.091069  0.180224  0  1.034321  0
H  H22  1  0.11472667  0.65404432  0.47695012  1  0  0.164059  0  0.979647  0  0  0.182201  0  1.035044  0  0  0.184911  0  1.03634  0  0  0.091057  0.180231  0  1.034308  0
H  H23  1  0.61473991  0.34595164  0.02304304  1  0  0.164085  0  0.979686  0  0  0.182245  0  1.035047  0  0  0.184953  0  1.036347  0  0  0.091087  0.180276  0  1.034312  0
H  H24  1  0.61472626  0.15404544  0.02304579  1  0  0.164091  0  0.979709  0  0  0.182234  0  1.035105  0  0  0.184943  0  1.036401  0  0  0.091075  0.180265  0  1.034366  0
H  H25  1  0.11472836  0.84594945  0.47694977  1  0  0.16406  0  0.979695  0  0  0.182206  0  1.035086  0  0  0.184914  0  1.036382  0  0  0.091067  0.180235  0  1.034352  0
H  H26  1  0.88526315  0.34595488  0.52304720  1  0  0.164032  0  0.979634  0  0  0.182197  0  1.034996  0  0  0.184907  0  1.036294  0  0  0.091078  0.180228  0  1.034258  0
H  H27  1  0.38525504  0.65404756  0.97696069  1  0  0.164088  0  0.979705  0  0  0.18226  0  1.035058  0  0  0.184969  0  1.036354  0  0  0.091085  0.18029  0  1.034321  0
H  H28  1  0.52084181  0.92157034  0.57610091  1  0  0.016608  0  0.951684  0  0  0.027047  0  1.021139  0  0  0.027385  0  1.016987  0  0  0.118783  0.026601  0  1.024123  0
H  H29  1  0.02086010  0.07841932  0.92390704  1  0  0.016656  0  0.951491  0  0  0.027068  0  1.020977  0  0  0.027427  0  1.016813  0  0  0.118765  0.026621  0  1.023966  0
H  H30  1  0.97913147  0.57842317  0.07609588  1  0  0.016573  0  0.951615  0  0  0.027019  0  1.021043  0  0  0.027399  0  1.016858  0  0  0.118781  0.026571  0  1.024031  0
H  H31  1  0.47917362  0.42157172  0.42390122  1  0  0.016598  0  0.951664  0  0  0.02708  0  1.021059  0  0  0.027422  0  1.016914  0  0  0.118793  0.026629  0  1.024053  0
H  H32  1  0.47917024  0.07842673  0.42390282  1  0  0.016589  0  0.951739  0  0  0.027086  0  1.021124  0  0  0.027452  0  1.016941  0  0  0.118796  0.026641  0  1.024102  0
H  H33  1  0.97914169  0.92158201  0.07610150  1  0  0.016666  0  0.951602  0  0  0.027107  0  1.021046  0  0  0.027429  0  1.016923  0  0  0.118788  0.026656  0  1.024038  0
H  H34  1  0.02085322  0.42157496  0.92390304  1  0  0.01667  0  0.951666  0  0  0.027086  0  1.02113  0  0  0.027425  0  1.01698  0  0  0.11881  0.026639  0  1.024115  0
H  H35  1  0.52087093  0.57841683  0.57609609  1  0  0.016563  0  0.951571  0  0  0.026997  0  1.021021  0  0  0.027355  0  1.016856  0  0  0.118777  0.026552  0  1.024006  0
C  C36  1  0.84718268  0.74999775  0.67656365  1  0  -0.720581  0  3.45777  0  0  -0.770527  0  3.697436  0  0  -0.787768  0  3.702448  0  0  -0.326093  -0.759045  0  3.695132  0
C  C37  1  0.34717470  0.24999617  0.82343150  1  0  -0.720646  0  3.457812  0  0  -0.770633  0  3.697467  0  0  -0.787843  0  3.702395  0  0  -0.326165  -0.759148  0  3.69516  0
C  C38  1  0.65281341  0.75000410  0.17656662  1  0  -0.720707  0  3.457675  0  0  -0.770675  0  3.697378  0  0  -0.787886  0  3.702314  0  0  -0.326148  -0.759189  0  3.695073  0
C  C39  1  0.15281911  0.25000252  0.32343527  1  0  -0.72062  0  3.457676  0  0  -0.770599  0  3.697338  0  0  -0.787825  0  3.702304  0  0  -0.326123  -0.759115  0  3.695035  0
C  C40  1  0.35770675  0.74999885  0.92892656  1  0  -0.68443  0  3.449411  0  0  -0.736291  0  3.684524  0  0  -0.753086  0  3.691939  0  0  -0.325209  -0.725021  0  3.679888  0
C  C41  1  0.85770579  0.24999933  0.57107499  1  0  -0.68435  0  3.449435  0  0  -0.736157  0  3.684571  0  0  -0.752955  0  3.691965  0  0  -0.325163  -0.724882  0  3.679932  0
C  C42  1  0.14229087  0.74999774  0.42892153  1  0  -0.68435  0  3.449527  0  0  -0.736219  0  3.684602  0  0  -0.753015  0  3.692002  0  0  -0.325192  -0.724951  0  3.679974  0
C  C43  1  0.64228820  0.25000035  0.07107317  1  0  -0.684358  0  3.449606  0  0  -0.736214  0  3.684647  0  0  -0.753012  0  3.692061  0  0  -0.325186  -0.724946  0  3.680011  0
C  C44  1  0.40641301  0.97613120  0.63362479  1  0  0.590411  0  3.856097  0  0  0.515574  0  4.160333  0  0  0.550107  0  4.151499  0  0  0.17266  0.492318  0  4.165486  0
C  C45  1  0.90640362  0.02386378  0.86637904  1  0  0.590258  0  3.85629  0  0  0.515424  0  4.160545  0  0  0.549931  0  4.151717  0  0  0.172586  0.492171  0  4.165686  0
C  C46  1  0.09358454  0.52387454  0.13361961  1  0  0.590508  0  3.85596  0  0  0.515712  0  4.160153  0  0  0.550209  0  4.151317  0  0  0.172706  0.492459  0  4.1653  0
C  C47  1  0.59359728  0.47613208  0.36637360  1  0  0.590321  0  3.856267  0  0  0.515492  0  4.160491  0  0  0.550015  0  4.151651  0  0  0.172642  0.492237  0  4.165642  0
C  C48  1  0.59359562  0.02387439  0.36637413  1  0  0.590252  0  3.856359  0  0  0.515408  0  4.160586  0  0  0.549924  0  4.151748  0  0  0.172579  0.492154  0  4.16574  0
C  C49  1  0.09359303  0.97612796  0.13363030  1  0  0.590378  0  3.856135  0  0  0.515551  0  4.160383  0  0  0.55008  0  4.151548  0  0  0.172647  0.492297  0  4.165528  0
C  C50  1  0.90641725  0.47613319  0.86638572  1  0  0.59037  0  3.856063  0  0  0.515565  0  4.160289  0  0  0.550092  0  4.151451  0  0  0.172634  0.492309  0  4.165435  0
C  C51  1  0.40642161  0.52386073  0.63361971  1  0  0.590557  0  3.855995  0  0  0.515768  0  4.160194  0  0  0.55028  0  4.151353  0  0  0.172709  0.49251  0  4.165342  0
O  O52  1  0.38084940  0.92461303  0.72707732  1  0  -0.597685  0  2.093844  0  0  -0.524619  0  2.340693  0  0  -0.552832  0  2.334063  0  0  -0.275396  -0.50497  0  2.345003  0
O  O53  1  0.88084620  0.07538941  0.77293539  1  0  -0.597633  0  2.094022  0  0  -0.524514  0  2.340785  0  0  -0.552785  0  2.334289  0  0  -0.275336  -0.504866  0  2.345094  0
O  O54  1  0.11916077  0.57540098  0.22706591  1  0  -0.597711  0  2.093952  0  0  -0.524633  0  2.340731  0  0  -0.552904  0  2.334248  0  0  -0.275377  -0.504986  0  2.345042  0
O  O55  1  0.61915576  0.42461629  0.27292723  1  0  -0.597624  0  2.094085  0  0  -0.524562  0  2.340907  0  0  -0.552797  0  2.334339  0  0  -0.275374  -0.504914  0  2.345217  0
O  O56  1  0.61914897  0.07538723  0.27292721  1  0  -0.597533  0  2.094077  0  0  -0.524477  0  2.340921  0  0  -0.552709  0  2.334351  0  0  -0.275339  -0.504829  0  2.345228  0
O  O57  1  0.11916756  0.92460873  0.22707315  1  0  -0.597677  0  2.094038  0  0  -0.524577  0  2.340801  0  0  -0.552839  0  2.334283  0  0  -0.275366  -0.50493  0  2.345114  0
O  O58  1  0.88085129  0.42460888  0.77292980  1  0  -0.59777  0  2.093798  0  0  -0.524642  0  2.340542  0  0  -0.552889  0  2.333986  0  0  -0.275391  -0.504988  0  2.344852  0
O  O59  1  0.38085116  0.57539463  0.72706447  1  0  -0.597773  0  2.093981  0  0  -0.524653  0  2.340722  0  0  -0.552928  0  2.334232  0  0  -0.275381  -0.505003  0  2.345034  0
O  O60  1  0.80712667  0.58745592  0.90079944  1  0  -0.586152  0  2.056031  0  0  -0.514728  0  2.302395  0  0  -0.542564  0  2.294361  0  0  -0.277556  -0.49495  0  2.306874  0
O  O61  1  0.30712803  0.41253587  0.59920142  1  0  -0.586232  0  2.055977  0  0  -0.51483  0  2.302367  0  0  -0.542665  0  2.294338  0  0  -0.277585  -0.495051  0  2.306849  0
O  O62  1  0.69289766  0.91254042  0.40079827  1  0  -0.5862  0  2.055952  0  0  -0.514765  0  2.302378  0  0  -0.54261  0  2.294349  0  0  -0.277555  -0.494963  0  2.306807  0
O  O63  1  0.19288029  0.08745873  0.09920432  1  0  -0.586269  0  2.056033  0  0  -0.514779  0  2.302375  0  0  -0.542615  0  2.294337  0  0  -0.277533  -0.494997  0  2.306857  0
O  O64  1  0.19287512  0.41254329  0.09919708  1  0  -0.586244  0  2.055879  0  0  -0.514815  0  2.30225  0  0  -0.542653  0  2.294232  0  0  -0.27757  -0.495016  0  2.30669  0
O  O65  1  0.69290283  0.58746120  0.40079670  1  0  -0.586235  0  2.056045  0  0  -0.514774  0  2.302437  0  0  -0.542614  0  2.294399  0  0  -0.27758  -0.494971  0  2.306863  0
O  O66  1  0.30711097  0.08745665  0.59920626  1  0  -0.586237  0  2.056038  0  0  -0.514731  0  2.302376  0  0  -0.542576  0  2.29434  0  0  -0.277556  -0.494939  0  2.306828  0
O  O67  1  0.80711979  0.91254260  0.90080261  1  0  -0.586218  0  2.056282  0  0  -0.51471  0  2.302593  0  0  -0.542542  0  2.294561  0  0  -0.277517  -0.494921  0  2.307053  0
