# generated using pymatgen
data_ZnH8(C3O2)2
_symmetry_space_group_name_H-M   'P 1'
_cell_length_a   4.80006905
_cell_length_b   9.28921964
_cell_length_c   16.13846419
_cell_angle_alpha   90.14895031
_cell_angle_beta   89.99997798
_cell_angle_gamma   90.00000819
_symmetry_Int_Tables_number   1
_chemical_formula_structural   ZnH8(C3O2)2
_chemical_formula_sum   'Zn4 H32 C24 O16'
_cell_volume   719.59386524
_cell_formula_units_Z   4
loop_
 _symmetry_equiv_pos_site_id
 _symmetry_equiv_pos_as_xyz
  1  'x, y, z'
loop_
 _atom_site_type_symbol
 _atom_site_label
 _atom_site_symmetry_multiplicity
 _atom_site_fract_x
 _atom_site_fract_y
 _atom_site_fract_z
 _atom_site_occupancy
 _atom_site_hle17_bader_spin_density
 _atom_site_hle17_ddec_charge
 _atom_site_hle17_ddec_spin_density
 _atom_site_hle17_ddec_sum_bond_order
 _atom_site_hle17_magmom
 _atom_site_hse06_10hf_bader_spin_density
 _atom_site_hse06_10hf_ddec_charge
 _atom_site_hse06_10hf_ddec_spin_density
 _atom_site_hse06_10hf_ddec_sum_bond_order
 _atom_site_hse06_10hf_magmom
 _atom_site_hse06_bader_spin_density
 _atom_site_hse06_ddec_charge
 _atom_site_hse06_ddec_spin_density
 _atom_site_hse06_ddec_sum_bond_order
 _atom_site_hse06_magmom
 _atom_site_pbe_bader_spin_density
 _atom_site_pbe_cm5_charge
 _atom_site_pbe_ddec_charge
 _atom_site_pbe_ddec_spin_density
 _atom_site_pbe_ddec_sum_bond_order
 _atom_site_pbe_magmom
Zn  Zn0  1  0.46226197  0.21792570  0.24628586  1  0  1.165959  0  1.728057  0  0  0.992203  0  2.210275  0  0  1.043015  0  2.145554  0  0  0.696725  0.955894  0  2.255362  0
Zn  Zn1  1  0.46226165  0.28207391  0.75371480  1  0  1.165912  0  1.728091  0  0  0.992219  0  2.210297  0  0  1.04303  0  2.145578  0  0  0.696735  0.955909  0  2.255382  0
Zn  Zn2  1  0.53773772  0.78207343  0.75371456  1  0  1.16594  0  1.728013  0  0  0.992229  0  2.210218  0  0  1.043037  0  2.145496  0  0  0.69674  0.955912  0  2.255301  0
Zn  Zn3  1  0.53773804  0.71792629  0.24628500  1  0  1.165963  0  1.728055  0  0  0.992213  0  2.21027  0  0  1.043021  0  2.145545  0  0  0.696741  0.955896  0  2.25535  0
H  H4  1  0.64655926  0.62039128  0.42554338  1  0  0.11093  0  0.938122  0  0  0.125811  0  1.000405  0  0  0.128325  0  0.999222  0  0  0.104135  0.123756  0  1.001824  0
H  H5  1  0.64655920  0.87960845  0.57445679  1  0  0.110932  0  0.938112  0  0  0.125821  0  1.000388  0  0  0.128334  0  0.999206  0  0  0.104151  0.123768  0  1.001809  0
H  H6  1  0.35344043  0.37960892  0.57445704  1  0  0.11093  0  0.938123  0  0  0.125814  0  1.000403  0  0  0.128327  0  0.999222  0  0  0.104148  0.123761  0  1.001821  0
H  H7  1  0.35344049  0.12039176  0.42554364  1  0  0.111014  0  0.938126  0  0  0.125908  0  1.000368  0  0  0.12842  0  0.999188  0  0  0.104186  0.123856  0  1.00179  0
H  H8  1  0.94577374  0.59929899  0.36474042  1  0  0.118422  0  0.925242  0  0  0.135126  0  0.983828  0  0  0.137548  0  0.982911  0  0  0.106976  0.133411  0  0.984481  0
H  H9  1  0.94577361  0.90069968  0.63525909  1  0  0.118404  0  0.925254  0  0  0.135113  0  0.983838  0  0  0.137535  0  0.982923  0  0  0.106971  0.133401  0  0.984493  0
H  H10  1  0.05422595  0.40070013  0.63525876  1  0  0.118412  0  0.925244  0  0  0.135116  0  0.983831  0  0  0.137538  0  0.982915  0  0  0.106976  0.133403  0  0.984485  0
H  H11  1  0.05422816  0.09930052  0.36474071  1  0  0.118438  0  0.925235  0  0  0.135147  0  0.983819  0  0  0.13757  0  0.982903  0  0  0.106977  0.133436  0  0.984475  0
H  H12  1  0.76832826  0.38563519  0.50058467  1  0  0.064898  0  0.940956  0  0  0.0837  0  1.002377  0  0  0.084443  0  1.002783  0  0  0.089273  0.082962  0  1.002562  0
H  H13  1  0.76832822  0.11436445  0.49941534  1  0  0.064903  0  0.940982  0  0  0.083714  0  1.00239  0  0  0.084445  0  1.00281  0  0  0.089301  0.082996  0  1.002554  0
H  H14  1  0.23167143  0.61436394  0.49941513  1  0  0.064911  0  0.940969  0  0  0.083727  0  1.002371  0  0  0.084457  0  1.002792  0  0  0.089297  0.083008  0  1.002537  0
H  H15  1  0.23167147  0.88563575  0.50058446  1  0  0.064891  0  0.940965  0  0  0.083714  0  1.002375  0  0  0.084444  0  1.002796  0  0  0.089294  0.082996  0  1.002539  0
H  H16  1  0.07476744  0.37481496  0.44146433  1  0  0.06721  0  0.929829  0  0  0.088027  0  0.986708  0  0  0.088302  0  0.988211  0  0  0.090282  0.087599  0  0.986185  0
H  H17  1  0.07476733  0.12518570  0.55853515  1  0  0.067198  0  0.929858  0  0  0.087992  0  0.986751  0  0  0.088267  0  0.988254  0  0  0.090278  0.087575  0  0.986218  0
H  H18  1  0.92523225  0.62518525  0.55853486  1  0  0.06721  0  0.929846  0  0  0.088002  0  0.986745  0  0  0.088277  0  0.988248  0  0  0.090277  0.087587  0  0.986208  0
H  H19  1  0.92523236  0.87481450  0.44146466  1  0  0.067184  0  0.929842  0  0  0.087986  0  0.986747  0  0  0.088261  0  0.98825  0  0  0.090272  0.087571  0  0.98621  0
H  H20  1  0.24934433  0.31093187  0.06422403  1  0  0.111472  0  0.936024  0  0  0.12709  0  0.997437  0  0  0.12928  0  0.996671  0  0  0.104735  0.12544  0  0.998394  0
H  H21  1  0.24934583  0.18906665  0.93577603  1  0  0.111466  0  0.936058  0  0  0.127086  0  0.997455  0  0  0.129277  0  0.996686  0  0  0.104735  0.125436  0  0.998413  0
H  H22  1  0.75065327  0.68906726  0.93577577  1  0  0.111465  0  0.936037  0  0  0.127089  0  0.997427  0  0  0.12928  0  0.996661  0  0  0.104732  0.125438  0  0.998385  0
H  H23  1  0.75065594  0.81093247  0.06422315  1  0  0.111479  0  0.936016  0  0  0.127106  0  0.997415  0  0  0.129297  0  0.996648  0  0  0.104727  0.125454  0  0.998372  0
H  H24  1  0.21994057  0.45816419  0.13020018  1  0  0.116341  0  0.92707  0  0  0.131564  0  0.987709  0  0  0.133922  0  0.986907  0  0  0.105148  0.129968  0  0.988208  0
H  H25  1  0.21994003  0.04183540  0.86979989  1  0  0.116337  0  0.927106  0  0  0.131576  0  0.987723  0  0  0.133919  0  0.986939  0  0  0.105152  0.129977  0  0.988226  0
H  H26  1  0.78005912  0.54183493  0.86980024  1  0  0.116323  0  0.927081  0  0  0.131545  0  0.987713  0  0  0.133903  0  0.986911  0  0  0.105141  0.129948  0  0.988212  0
H  H27  1  0.78005966  0.95816480  0.13019992  1  0  0.116328  0  0.927089  0  0  0.13155  0  0.98773  0  0  0.133908  0  0.986928  0  0  0.105143  0.129953  0  0.988232  0
H  H28  1  0.76556194  0.52923014  0.06298342  1  0  0.064105  0  0.926921  0  0  0.084952  0  0.984485  0  0  0.085304  0  0.985507  0  0  0.08917  0.084761  0  0.983799  0
H  H29  1  0.76556351  0.97076852  0.93701736  1  0  0.064118  0  0.92693  0  0  0.084954  0  0.984498  0  0  0.085306  0  0.98552  0  0  0.08916  0.084764  0  0.98381  0
H  H30  1  0.23443567  0.47076899  0.93701700  1  0  0.064114  0  0.926922  0  0  0.084953  0  0.9845  0  0  0.085306  0  0.985522  0  0  0.089159  0.084763  0  0.983815  0
H  H31  1  0.23443617  0.02923061  0.06298307  1  0  0.06411  0  0.926923  0  0  0.084952  0  0.984499  0  0  0.085304  0  0.985521  0  0  0.08916  0.084762  0  0.983813  0
H  H32  1  0.78297981  0.37813113  0.99762760  1  0  0.067424  0  0.943061  0  0  0.084959  0  1.006394  0  0  0.085769  0  1.006952  0  0  0.088554  0.084266  0  1.00635  0
H  H33  1  0.78298042  0.12186851  0.00237302  1  0  0.067431  0  0.943058  0  0  0.084964  0  1.006384  0  0  0.085774  0  1.006942  0  0  0.088567  0.08427  0  1.006342  0
H  H34  1  0.21701988  0.62186800  0.00237282  1  0  0.067426  0  0.943067  0  0  0.084965  0  1.006397  0  0  0.085774  0  1.006956  0  0  0.088563  0.084271  0  1.006354  0
H  H35  1  0.21701927  0.87813170  0.99762740  1  0  0.067436  0  0.943045  0  0  0.084977  0  1.006372  0  0  0.085787  0  1.006931  0  0  0.088571  0.084283  0  1.006329  0
C  C36  1  0.62466377  0.45058774  0.33806231  1  0  0.729069  0  3.787776  0  0  0.682332  0  4.075803  0  0  0.717001  0  4.06923  0  0  0.225513  0.658633  0  4.079234  0
C  C37  1  0.62466351  0.04941081  0.66193834  1  0  0.728996  0  3.78779  0  0  0.682258  0  4.075837  0  0  0.716926  0  4.069265  0  0  0.22546  0.658563  0  4.07927  0
C  C38  1  0.37533592  0.54941247  0.66193750  1  0  0.729005  0  3.787761  0  0  0.682271  0  4.075802  0  0  0.716941  0  4.069228  0  0  0.225456  0.658572  0  4.079235  0
C  C39  1  0.37533618  0.95058832  0.33806209  1  0  0.729001  0  3.787749  0  0  0.68227  0  4.075776  0  0  0.716942  0  4.069201  0  0  0.225472  0.658576  0  4.079209  0
C  C40  1  0.78854889  0.53814426  0.39999926  1  0  -0.287076  0  3.688418  0  0  -0.325476  0  3.937634  0  0  -0.33238  0  3.946377  0  0  -0.164486  -0.320263  0  3.931031  0
C  C41  1  0.78854882  0.96185656  0.60000089  1  0  -0.287059  0  3.688461  0  0  -0.325471  0  3.937676  0  0  -0.332373  0  3.946415  0  0  -0.164487  -0.320278  0  3.931104  0
C  C42  1  0.21145080  0.46185595  0.60000116  1  0  -0.287037  0  3.688432  0  0  -0.325441  0  3.937642  0  0  -0.332345  0  3.946384  0  0  -0.164478  -0.320232  0  3.931051  0
C  C43  1  0.21145295  0.03814365  0.39999891  1  0  -0.287215  0  3.688506  0  0  -0.325628  0  3.937737  0  0  -0.332536  0  3.946482  0  0  -0.16453  -0.320436  0  3.93117  0
C  C44  1  0.92574269  0.45154610  0.46879931  1  0  -0.07467  0  3.687296  0  0  -0.116344  0  3.947915  0  0  -0.11652  0  3.962437  0  0  -0.167285  -0.11589  0  3.937591  0
C  C45  1  0.92574260  0.04845462  0.53120006  1  0  -0.074694  0  3.68736  0  0  -0.116321  0  3.94794  0  0  -0.116488  0  3.96246  0  0  -0.167318  -0.115882  0  3.937621  0
C  C46  1  0.07425700  0.54845410  0.53119988  1  0  -0.074761  0  3.687345  0  0  -0.116403  0  3.947943  0  0  -0.116573  0  3.962468  0  0  -0.167353  -0.115967  0  3.937613  0
C  C47  1  0.07425709  0.95154559  0.46879974  1  0  -0.074635  0  3.687298  0  0  -0.116326  0  3.94794  0  0  -0.116493  0  3.962461  0  0  -0.167331  -0.115889  0  3.93762  0
C  C48  1  0.93824477  0.29010450  0.15677983  1  0  0.736019  0  3.779742  0  0  0.686942  0  4.072371  0  0  0.72203  0  4.064939  0  0  0.228373  0.662972  0  4.076619  0
C  C49  1  0.93824640  0.20989408  0.84322078  1  0  0.736004  0  3.779767  0  0  0.686946  0  4.072392  0  0  0.722037  0  4.064955  0  0  0.22842  0.662975  0  4.076638  0
C  C50  1  0.06175491  0.70989571  0.84321997  1  0  0.73598  0  3.779829  0  0  0.686931  0  4.072432  0  0  0.722017  0  4.065002  0  0  0.228372  0.662959  0  4.076677  0
C  C51  1  0.06175537  0.79010505  0.15677964  1  0  0.736006  0  3.779751  0  0  0.686911  0  4.07241  0  0  0.722  0  4.064976  0  0  0.228383  0.662939  0  4.076655  0
C  C52  1  0.09385697  0.38061853  0.09454953  1  0  -0.284863  0  3.686176  0  0  -0.322133  0  3.934655  0  0  -0.329119  0  3.944003  0  0  -0.165096  -0.317371  0  3.928105  0
C  C53  1  0.09386058  0.11938213  0.90544932  1  0  -0.284862  0  3.68619  0  0  -0.322128  0  3.934636  0  0  -0.329103  0  3.943983  0  0  -0.165096  -0.317363  0  3.928083  0
C  C54  1  0.90614271  0.61938060  0.90545027  1  0  -0.284841  0  3.686183  0  0  -0.322092  0  3.934643  0  0  -0.329078  0  3.943991  0  0  -0.16509  -0.317328  0  3.928089  0
C  C55  1  0.90614327  0.88061915  0.09454987  1  0  -0.284866  0  3.686187  0  0  -0.322145  0  3.934692  0  0  -0.329133  0  3.944039  0  0  -0.165089  -0.31738  0  3.928137  0
C  C56  1  0.91268483  0.45706840  0.03086750  1  0  -0.078008  0  3.686136  0  0  -0.119481  0  3.947582  0  0  -0.119631  0  3.962049  0  0  -0.16888  -0.119205  0  3.937461  0
C  C57  1  0.91268417  0.04293125  0.96913249  1  0  -0.078067  0  3.68611  0  0  -0.119513  0  3.947494  0  0  -0.119661  0  3.961954  0  0  -0.168891  -0.119237  0  3.937372  0
C  C58  1  0.08731486  0.54293073  0.96913230  1  0  -0.078029  0  3.686158  0  0  -0.119507  0  3.947595  0  0  -0.119657  0  3.962061  0  0  -0.168873  -0.119232  0  3.937474  0
C  C59  1  0.08731552  0.95706896  0.03086793  1  0  -0.078018  0  3.686143  0  0  -0.119504  0  3.947584  0  0  -0.119654  0  3.96205  0  0  -0.168888  -0.119229  0  3.937462  0
O  O60  1  0.60102451  0.31498159  0.34863456  1  0  -0.637923  0  2.03361  0  0  -0.566174  0  2.301499  0  0  -0.595877  0  2.287401  0  0  -0.308218  -0.545604  0  2.311164  0
O  O61  1  0.60102429  0.18501911  0.65136547  1  0  -0.637888  0  2.033626  0  0  -0.566177  0  2.301549  0  0  -0.595881  0  2.287452  0  0  -0.308207  -0.545607  0  2.311215  0
O  O62  1  0.39897310  0.68501753  0.65136524  1  0  -0.637875  0  2.033618  0  0  -0.566156  0  2.301536  0  0  -0.595858  0  2.287436  0  0  -0.308199  -0.545586  0  2.311203  0
O  O63  1  0.39897540  0.81498218  0.34863496  1  0  -0.637899  0  2.033613  0  0  -0.566159  0  2.301504  0  0  -0.595861  0  2.287403  0  0  -0.308214  -0.545587  0  2.311167  0
O  O64  1  0.51270085  0.51109137  0.27508465  1  0  -0.670783  0  2.051276  0  0  -0.599576  0  2.329585  0  0  -0.628962  0  2.311787  0  0  -0.322132  -0.578816  0  2.340967  0
O  O65  1  0.51270271  0.98890835  0.72491554  1  0  -0.670762  0  2.051251  0  0  -0.599555  0  2.329564  0  0  -0.628938  0  2.311759  0  0  -0.32213  -0.578795  0  2.340944  0
O  O66  1  0.48729884  0.48890776  0.72491577  1  0  -0.670777  0  2.051212  0  0  -0.599574  0  2.329522  0  0  -0.628957  0  2.311715  0  0  -0.322132  -0.578816  0  2.340906  0
O  O67  1  0.48729698  0.01109186  0.27508427  1  0  -0.670739  0  2.051204  0  0  -0.599542  0  2.329528  0  0  -0.628928  0  2.311728  0  0  -0.322127  -0.578783  0  2.340912  0
O  O68  1  0.67689229  0.27099165  0.14638184  1  0  -0.646907  0  2.057487  0  0  -0.571541  0  2.332083  0  0  -0.601373  0  2.316911  0  0  -0.309336  -0.550808  0  2.341979  0
O  O69  1  0.67689183  0.22900690  0.85361818  1  0  -0.646796  0  2.057426  0  0  -0.571533  0  2.332103  0  0  -0.601365  0  2.31693  0  0  -0.309354  -0.550801  0  2.341999  0
O  O70  1  0.32310740  0.72900855  0.85361859  1  0  -0.64685  0  2.057487  0  0  -0.571546  0  2.332125  0  0  -0.601377  0  2.316953  0  0  -0.309342  -0.550812  0  2.342018  0
O  O71  1  0.32310786  0.77099115  0.14638162  1  0  -0.646901  0  2.057523  0  0  -0.571534  0  2.332135  0  0  -0.601364  0  2.316959  0  0  -0.30934  -0.5508  0  2.342029  0
O  O72  1  0.06334481  0.23522964  0.21903312  1  0  -0.671581  0  2.062957  0  0  -0.60194  0  2.346388  0  0  -0.631032  0  2.328312  0  0  -0.323414  -0.581667  0  2.358279  0
O  O73  1  0.06334654  0.26477102  0.78096697  1  0  -0.6716  0  2.062961  0  0  -0.601948  0  2.346369  0  0  -0.631042  0  2.328296  0  0  -0.323447  -0.581674  0  2.358259  0
O  O74  1  0.93665488  0.76476949  0.78096730  1  0  -0.671558  0  2.062985  0  0  -0.60193  0  2.346408  0  0  -0.631024  0  2.328339  0  0  -0.323405  -0.581656  0  2.358296  0
O  O75  1  0.93665315  0.73522919  0.21903283  1  0  -0.671577  0  2.062941  0  0  -0.601924  0  2.346371  0  0  -0.631016  0  2.328296  0  0  -0.323434  -0.581649  0  2.358258  0
