# generated using pymatgen
data_Zn4H8C40N4O13F16
_symmetry_space_group_name_H-M   'P 1'
_cell_length_a   23.80020053
_cell_length_b   23.80142248
_cell_length_c   23.80033685
_cell_angle_alpha   66.84557628
_cell_angle_beta   72.34501830
_cell_angle_gamma   107.66600425
_symmetry_Int_Tables_number   1
_chemical_formula_structural   Zn4H8C40N4O13F16
_chemical_formula_sum   'Zn8 H16 C80 N8 O26 F32'
_cell_volume   10346.63122692
_cell_formula_units_Z   2
loop_
 _symmetry_equiv_pos_site_id
 _symmetry_equiv_pos_as_xyz
  1  'x, y, z'
loop_
 _atom_site_type_symbol
 _atom_site_label
 _atom_site_symmetry_multiplicity
 _atom_site_fract_x
 _atom_site_fract_y
 _atom_site_fract_z
 _atom_site_occupancy
 _atom_site_pbe_bader_charge
 _atom_site_pbe_bader_spin_density
 _atom_site_pbe_cm5_charge
 _atom_site_pbe_ddec_charge
 _atom_site_pbe_ddec_spin_density
 _atom_site_pbe_ddec_sum_bond_order
 _atom_site_pbe_magmom
Zn  Zn0  1  0.05477965  0.95473721  0.48796866  1  1.32078  0  0.679892  0.966651  0  2.369008  0
Zn  Zn1  1  0.05478381  0.10002556  0.45725880  1  1.317774  0  0.679909  0.966776  0  2.368957  0
Zn  Zn2  1  0.94521334  0.98795501  0.45474060  1  1.320741  0  0.679756  0.966494  0  2.369471  0
Zn  Zn3  1  0.94521236  0.95725244  0.60003215  1  1.317349  0  0.680053  0.966985  0  2.368694  0
Zn  Zn4  1  0.94269573  0.54272139  0.01206917  1  1.319356  0  0.679954  0.966946  0  2.369288  0
Zn  Zn5  1  0.05731199  0.51206893  0.04273711  1  1.319509  0  0.679873  0.966645  0  2.369261  0
Zn  Zn6  1  0.94271296  0.39997967  0.04522964  1  1.319571  0  0.680112  0.96695  0  2.368893  0
Zn  Zn7  1  0.05730536  0.54524805  0.89997250  1  1.319868  0  0.679898  0.966746  0  2.369243  0
H  H8  1  0.91393973  0.84047257  0.75000003  1  0.479119  0  0.292637  0.302474  0  0.997717  0
H  H9  1  0.90826079  0.80295720  0.83113237  1  0.427291  0  0.298262  0.286233  0  0.964309  0
H  H10  1  0.09041944  0.66386426  0.75004822  1  0.488302  0  0.292781  0.302832  0  0.997501  0
H  H11  1  0.13403815  0.73931548  0.66891598  1  0.430686  0  0.298144  0.286114  0  0.964769  0
H  H12  1  0.90954207  0.65952523  0.92657143  1  0.472908  0  0.292899  0.302996  0  0.997535  0
H  H13  1  0.86593589  0.69705070  0.89473273  1  0.433816  0  0.298243  0.286149  0  0.964598  0
H  H14  1  0.08606065  0.83606593  0.57348781  1  0.478402  0  0.292655  0.302461  0  0.997316  0
H  H15  1  0.09172480  0.76060911  0.60532448  1  0.426277  0  0.298291  0.286184  0  0.964068  0
H  H16  1  0.91393282  0.07347679  0.33605171  1  0.478738  0  0.292709  0.30254  0  0.997222  0
H  H17  1  0.90826794  0.10531946  0.26059676  1  0.426255  0  0.298338  0.286268  0  0.964209  0
H  H18  1  0.09044507  0.42656183  0.15956819  1  0.471454  0  0.292926  0.302804  0  0.997464  0
H  H19  1  0.13405496  0.39472813  0.19709106  1  0.433738  0  0.298251  0.286167  0  0.964656  0
H  H20  1  0.90957387  0.25004831  0.16386139  1  0.48822  0  0.29279  0.30291  0  0.997567  0
H  H21  1  0.86595442  0.16891140  0.23930112  1  0.429431  0  0.298198  0.286178  0  0.964771  0
H  H22  1  0.08606231  0.24998217  0.34049253  1  0.479215  0  0.292761  0.302748  0  0.997741  0
H  H23  1  0.09172950  0.33110237  0.30300231  1  0.428415  0  0.298139  0.286147  0  0.964322  0
C  C24  1  0.17733546  0.08866834  0.41130606  1  1.617968  0  0.230532  0.643385  0  4.150509  0
C  C25  1  0.00000126  0.13939410  0.36060209  1  1.48021  0  0.222614  0.624735  0  4.109018  0
C  C26  1  0.99998356  0.90966238  0.40968567  1  1.612764  0  0.227185  0.639941  0  4.153543  0
C  C27  1  0.82266231  0.91129850  0.58864797  1  1.618152  0  0.230602  0.643052  0  4.150393  0
C  C28  1  0.00000805  0.86061786  0.63940132  1  1.481309  0  0.222303  0.624542  0  4.10985  0
C  C29  1  0.99996430  0.09035202  0.59029700  1  1.612774  0  0.227384  0.640359  0  4.153824  0
C  C30  1  0.00002168  0.58866902  0.08869171  1  1.597683  0  0.230795  0.643749  0  4.151339  0
C  C31  1  0.00001411  0.36064317  0.13937731  1  1.473579  0  0.222568  0.624876  0  4.109208  0
C  C32  1  0.81934671  0.40964883  0.09034257  1  1.608305  0  0.227365  0.640003  0  4.153155  0
C  C33  1  0.00004000  0.41133011  0.91132317  1  1.606706  0  0.230647  0.643542  0  4.151139  0
C  C34  1  0.99998279  0.63936462  0.86064277  1  1.475797  0  0.222612  0.624912  0  4.108789  0
C  C35  1  0.18065759  0.59031630  0.90969210  1  1.608549  0  0.227307  0.639889  0  4.152958  0
C  C36  1  0.99999523  0.80458058  0.69543038  1  -0.018702  0  -0.040028  -0.252292  0  3.954817  0
C  C37  1  0.99998349  0.69537558  0.80463063  1  -0.015967  0  -0.040365  -0.252699  0  3.954341  0
C  C38  1  0.95641408  0.77725435  0.76690765  1  0.454825  0  0.079955  0.175443  0  4.052102  0
C  C39  1  0.04412613  0.72326291  0.73314705  1  0.504297  0  0.079974  0.175595  0  4.051909  0
C  C40  1  0.95584688  0.72272309  0.82088219  1  0.461609  0  0.080007  0.175708  0  4.051951  0
C  C41  1  0.04357225  0.77668299  0.67917991  1  0.38114  0  0.080081  0.175493  0  4.052215  0
C  C42  1  0.00000140  0.19541234  0.30458893  1  -0.018829  0  -0.040356  -0.252631  0  3.955027  0
C  C43  1  0.00001048  0.30462041  0.19539667  1  -0.014024  0  -0.040664  -0.252883  0  3.954288  0
C  C44  1  0.95641422  0.17916599  0.27668036  1  0.382414  0  0.080084  0.17555  0  4.052041  0
C  C45  1  0.04415004  0.32087309  0.22274637  1  0.402612  0  0.079999  0.175468  0  4.051955  0
C  C46  1  0.95586670  0.23313837  0.22326283  1  0.502894  0  0.080067  0.175788  0  4.052173  0
C  C47  1  0.04358676  0.26689220  0.27727622  1  0.514879  0  0.080021  0.175603  0  4.051719  0
C  C48  1  0.00000304  0.62640801  0.12643438  1  0.09362  0  -0.025323  -0.217217  0  3.960767  0
C  C49  1  0.95981256  0.65916070  0.13090322  1  0.626899  0  0.103437  0.17537  0  4.078322  0
C  C50  1  0.95973552  0.69403617  0.16603649  1  0.528964  0  0.100575  0.134629  0  4.06484  0
C  C51  1  0.99995327  0.69851370  0.19857096  1  0.173952  0  -0.007425  -0.03463  0  4.17682  0
C  C52  1  0.04020128  0.66601837  0.19410801  1  0.529777  0  0.100446  0.134901  0  4.064646  0
C  C53  1  0.04018515  0.63091074  0.15920331  1  0.67227  0  0.103312  0.174897  0  4.077537  0
C  C54  1  0.99994296  0.73383548  0.23391728  1  0.040986  0  -0.022123  -0.037441  0  4.092018  0
C  C55  1  0.99994527  0.76446709  0.26456480  1  -0.24943  0  -0.022873  -0.042086  0  4.095198  0
C  C56  1  0.99994956  0.79980240  0.29989842  1  0.132504  0  -0.006448  -0.033405  0  4.17322  0
C  C57  1  0.95563429  0.82726045  0.30945175  1  0.631917  0  0.100359  0.135422  0  4.060901  0
C  C58  1  0.95555910  0.86221434  0.34450019  1  0.529092  0  0.101935  0.172705  0  4.07469  0
C  C59  1  0.99997472  0.87194083  0.37198140  1  0.070055  0  -0.023664  -0.214864  0  3.956405  0
C  C60  1  0.04438274  0.84445597  0.36226274  1  0.528405  0  0.102183  0.173191  0  4.074714  0
C  C61  1  0.04427635  0.80938484  0.32734450  1  0.630859  0  0.100371  0.135592  0  4.061734  0
C  C62  1  0.00006036  0.37359388  0.87357552  1  0.148865  0  -0.02517  -0.217492  0  3.961454  0
C  C63  1  0.04023343  0.40928670  0.80063080  1  0.622661  0  0.103669  0.175752  0  4.078246  0
C  C64  1  0.04027952  0.37421463  0.76569785  1  0.578422  0  0.100379  0.134376  0  4.065005  0
C  C65  1  0.00002427  0.30146326  0.80146588  1  0.074974  0  -0.007274  -0.034505  0  4.176281  0
C  C66  1  0.95978951  0.26571358  0.87420794  1  0.577591  0  0.100256  0.134507  0  4.065421  0
C  C67  1  0.95985008  0.30065926  0.90927272  1  0.62342  0  0.103255  0.17524  0  4.078165  0
C  C68  1  0.00000416  0.26613664  0.76612437  1  0.044125  0  -0.022178  -0.037342  0  4.091352  0
C  C69  1  0.99999531  0.23550358  0.73547303  1  -0.250721  0  -0.022966  -0.042253  0  4.094721  0
C  C70  1  0.99997123  0.20016257  0.70014345  1  0.125689  0  -0.006216  -0.033391  0  4.173503  0
C  C71  1  0.04430693  0.23492500  0.62837437  1  0.631369  0  0.100192  0.135752  0  4.061747  0
C  C72  1  0.04438746  0.19996498  0.59333514  1  0.520864  0  0.102164  0.17271  0  4.075048  0
C  C73  1  0.99998900  0.12807428  0.62799660  1  0.087233  0  -0.023764  -0.214888  0  3.956838  0
C  C74  1  0.95556489  0.09338860  0.69988956  1  0.519412  0  0.102207  0.172817  0  4.073784  0
C  C75  1  0.95564934  0.12839303  0.73488234  1  0.633549  0  0.100198  0.135395  0  4.061692  0
C  C76  1  0.74391507  0.37194505  0.12805997  1  0.084112  0  -0.023654  -0.214671  0  3.955804  0
C  C77  1  0.70670362  0.40662676  0.13778431  1  0.632139  0  0.10221  0.172988  0  4.073804  0
C  C78  1  0.63670551  0.37159872  0.17270713  1  0.476096  0  0.100181  0.135498  0  4.061773  0
C  C79  1  0.59968535  0.29983240  0.20015450  1  0.160389  0  -0.006134  -0.033086  0  4.173464  0
C  C80  1  0.63670413  0.26508136  0.19059859  1  0.59344  0  0.100217  0.135482  0  4.06143  0
C  C81  1  0.70670542  0.30004771  0.15555166  1  0.563367  0  0.102157  0.172844  0  4.074312  0
C  C82  1  0.52901442  0.26449571  0.23548002  1  -0.171723  0  -0.023182  -0.042577  0  4.095618  0
C  C83  1  0.46774092  0.23384342  0.26610291  1  -0.007449  0  -0.021989  -0.037196  0  4.092218  0
C  C84  1  0.39707147  0.19850978  0.30142973  1  0.176667  0  -0.007381  -0.034562  0  4.176806  0
C  C85  1  0.36009387  0.23427521  0.30590643  1  0.525378  0  0.100424  0.135055  0  4.064609  0
C  C86  1  0.29009098  0.19936080  0.34079555  1  0.680024  0  0.103197  0.174886  0  4.077654  0
C  C87  1  0.25282585  0.12640788  0.37355341  1  0.062419  0  -0.025159  -0.217326  0  3.960874  0
C  C88  1  0.29005015  0.09069819  0.36907669  1  0.637965  0  0.103694  0.175744  0  4.078593  0
C  C89  1  0.36006816  0.12576569  0.33395287  1  0.528795  0  0.100245  0.13406  0  4.065081  0
C  C90  1  0.25608758  0.62804189  0.87196449  1  0.086896  0  -0.023533  -0.214581  0  3.956115  0
C  C91  1  0.29330662  0.63775127  0.90665669  1  0.622238  0  0.102072  0.17272  0  4.074743  0
C  C92  1  0.36330002  0.67268210  0.87162363  1  0.481852  0  0.100168  0.135511  0  4.061719  0
C  C93  1  0.40031311  0.70012423  0.79984747  1  0.159928  0  -0.006172  -0.032969  0  4.173324  0
C  C94  1  0.36327744  0.69056999  0.76510497  1  0.611427  0  0.100247  0.135203  0  4.061516  0
C  C95  1  0.29327544  0.65551518  0.80008028  1  0.545912  0  0.102205  0.173127  0  4.074559  0
C  C96  1  0.47097579  0.73544952  0.76451003  1  -0.17294  0  -0.023107  -0.042444  0  4.095123  0
C  C97  1  0.53225894  0.76609159  0.73384329  1  -0.005875  0  -0.022004  -0.037158  0  4.091841  0
C  C98  1  0.60292612  0.80142973  0.69850866  1  0.177225  0  -0.007596  -0.035127  0  4.177123  0
C  C99  1  0.63992154  0.80591236  0.73426156  1  0.526366  0  0.100447  0.135126  0  4.064675  0
C  C100  1  0.70993653  0.84080803  0.69932616  1  0.679633  0  0.10319  0.174748  0  4.078674  0
C  C101  1  0.74717199  0.87355223  0.62638855  1  0.06386  0  -0.024954  -0.216675  0  3.960407  0
C  C102  1  0.70991559  0.86907686  0.59068617  1  0.637644  0  0.103212  0.17483  0  4.078766  0
C  C103  1  0.63991175  0.83395407  0.62575313  1  0.526771  0  0.100538  0.134703  0  4.064275  0
N  N104  1  0.91142278  0.79965235  0.78901503  1  -1.228726  0  -0.60979  -0.616475  0  3.336392  0
N  N105  1  0.08861489  0.70037019  0.71103901  1  -1.238152  0  -0.609581  -0.616461  0  3.337311  0
N  N106  1  0.91134991  0.70033898  0.88826482  1  -1.24538  0  -0.609905  -0.616767  0  3.337166  0
N  N107  1  0.08856865  0.79956445  0.61179240  1  -1.22276  0  -0.609745  -0.616241  0  3.335622  0
N  N108  1  0.91142770  0.11178400  0.29955013  1  -1.223103  0  -0.609885  -0.616479  0  3.336233  0
N  N109  1  0.08864426  0.38825592  0.20037363  1  -1.243444  0  -0.60979  -0.616415  0  3.337112  0
N  N110  1  0.91137389  0.21103547  0.20036604  1  -1.237439  0  -0.609594  -0.616647  0  3.337784  0
N  N111  1  0.08857224  0.28899669  0.29968039  1  -1.230009  0  -0.60962  -0.616507  0  3.336681  0
O  O112  1  0.99999896  0.99999104  0.49999833  1  -1.233306  0  -0.579037  -1.035795  0  2.577583  0
O  O113  1  0.14865452  0.02901830  0.41992641  1  -1.153825  0  -0.311113  -0.538336  0  2.328571  0
O  O114  1  0.04759450  0.15488800  0.37631105  1  -1.18064  0  -0.318033  -0.554529  0  2.366519  0
O  O115  1  0.97523864  0.95081141  0.39732079  1  -1.152559  0  -0.310364  -0.538042  0  2.329186  0
O  O116  1  0.14867602  0.11965225  0.43136159  1  -1.151458  0  -0.311182  -0.53823  0  2.328324  0
O  O117  1  0.02472541  0.89730547  0.45083441  1  -1.152935  0  -0.310167  -0.537875  0  2.329831  0
O  O118  1  0.95241136  0.07608886  0.39268623  1  -1.184162  0  -0.317994  -0.554488  0  2.366213  0
O  O119  1  0.85132403  0.91990854  0.52899121  1  -1.153983  0  -0.311273  -0.538286  0  2.32735  0
O  O120  1  0.95243913  0.87633591  0.65490596  1  -1.180421  0  -0.317843  -0.554476  0  2.367193  0
O  O121  1  0.85131530  0.93132060  0.61965465  1  -1.152153  0  -0.311082  -0.538106  0  2.329132  0
O  O122  1  0.04757919  0.89268202  0.57611280  1  -1.184753  0  -0.317789  -0.554293  0  2.366957  0
O  O123  1  0.02476100  0.12746902  0.52439526  1  -1.152859  0  -0.310443  -0.538375  0  2.329675  0
O  O124  1  0.97520896  0.02446421  0.62739796  1  -1.152126  0  -0.310301  -0.53802  0  2.329501  0
O  O125  1  0.00000964  0.50001174  0.99999793  1  -1.233733  0  -0.579089  -1.035793  0  2.577347  0
O  O126  1  0.94898684  0.56858273  0.08008500  1  -1.153595  0  -0.311142  -0.538514  0  2.329147  0
O  O127  1  0.03121273  0.42393704  0.12367898  1  -1.180209  0  -0.317975  -0.554578  0  2.366945  0
O  O128  1  0.84813656  0.37254788  0.10265718  1  -1.152494  0  -0.310361  -0.538066  0  2.330062  0
O  O129  1  0.05105239  0.58005896  0.06864829  1  -1.155214  0  -0.311308  -0.538433  0  2.328727  0
O  O130  1  0.84812932  0.47554713  0.04922167  1  -1.160696  0  -0.310348  -0.538051  0  2.32914  0
O  O131  1  0.96881956  0.34515214  0.10727552  1  -1.180374  0  -0.317967  -0.554536  0  2.366603  0
O  O132  1  0.94901668  0.38035836  0.97096004  1  -1.15703  0  -0.311119  -0.538172  0  2.329236  0
O  O133  1  0.03118619  0.60727027  0.84514573  1  -1.180753  0  -0.318002  -0.554477  0  2.366285  0
O  O134  1  0.05108343  0.47097327  0.88035893  1  -1.157076  0  -0.31126  -0.538543  0  2.328036  0
O  O135  1  0.96876835  0.62364708  0.92394940  1  -1.180298  0  -0.318158  -0.554925  0  2.366594  0
O  O136  1  0.15187568  0.54919481  0.97558622  1  -1.161116  0  -0.310353  -0.538008  0  2.329729  0
O  O137  1  0.15186520  0.60267195  0.87258609  1  -1.152455  0  -0.310321  -0.537962  0  2.32909  0
F  F138  1  0.92082857  0.65948531  0.10013140  1  -0.613758  0  -0.08165  -0.093011  0  1.386568  0
F  F139  1  0.07919324  0.60016067  0.15952865  1  -0.613261  0  -0.081643  -0.092935  0  1.386124  0
F  F140  1  0.07938434  0.66863738  0.22462728  1  -0.616581  0  -0.082679  -0.097382  0  1.361803  0
F  F141  1  0.92055735  0.72455317  0.16864275  1  -0.615898  0  -0.082849  -0.097315  0  1.362038  0
F  F142  1  0.91200661  0.81917608  0.28444197  1  -0.61502  0  -0.08291  -0.097595  0  1.360521  0
F  F143  1  0.08790422  0.78439570  0.31924711  1  -0.615091  0  -0.082832  -0.097684  0  1.360867  0
F  F144  1  0.08985540  0.85226205  0.38498214  1  -0.608416  0  -0.08224  -0.093469  0  1.38283  0
F  F145  1  0.91011182  0.88495995  0.35226208  1  -0.608598  0  -0.082102  -0.093194  0  1.383083  0
F  F146  1  0.07923512  0.47903936  0.76132061  1  -0.615942  0  -0.081755  -0.093156  0  1.386329  0
F  F147  1  0.92084220  0.26133327  0.97902894  1  -0.615716  0  -0.081771  -0.093091  0  1.385926  0
F  F148  1  0.92059717  0.19602494  0.91076450  1  -0.617274  0  -0.082468  -0.097066  0  1.362329  0
F  F149  1  0.07946880  0.41077274  0.69600844  1  -0.617633  0  -0.082734  -0.097197  0  1.362241  0
F  F150  1  0.08795429  0.30354436  0.59283738  1  -0.612452  0  -0.082825  -0.097698  0  1.36102  0
F  F151  1  0.91202318  0.09286332  0.80350105  1  -0.612855  0  -0.082807  -0.097447  0  1.36098  0
F  F152  1  0.91009639  0.02519069  0.73758350  1  -0.608177  0  -0.082224  -0.093311  0  1.382242  0
F  F153  1  0.08986374  0.23763184  0.52514928  1  -0.608582  0  -0.082283  -0.093356  0  1.38308  0
F  F154  1  0.73722989  0.47482534  0.11504208  1  -0.608391  0  -0.08224  -0.093392  0  1.38257  0
F  F155  1  0.73721830  0.26236424  0.14777462  1  -0.61071  0  -0.082356  -0.093485  0  1.38283  0
F  F156  1  0.60362384  0.19646084  0.21559005  1  -0.613318  0  -0.082801  -0.097613  0  1.360913  0
F  F157  1  0.60363644  0.40714270  0.18079162  1  -0.615712  0  -0.082788  -0.097588  0  1.361098  0
F  F158  1  0.39323314  0.30397066  0.27538717  1  -0.62083  0  -0.082606  -0.097323  0  1.361744  0
F  F159  1  0.39317995  0.08917956  0.33134658  1  -0.617803  0  -0.082784  -0.097219  0  1.362105  0
F  F160  1  0.25961489  0.02094975  0.39983772  1  -0.620876  0  -0.081686  -0.093002  0  1.386384  0
F  F161  1  0.25966291  0.23868013  0.34049522  1  -0.61482  0  -0.081615  -0.092897  0  1.386272  0
F  F162  1  0.26279778  0.61502503  0.97484492  1  -0.608017  0  -0.08222  -0.093301  0  1.382965  0
F  F163  1  0.26274566  0.64774562  0.76240481  1  -0.610752  0  -0.082262  -0.09338  0  1.382827  0
F  F164  1  0.39634199  0.71556136  0.69648637  1  -0.613544  0  -0.082831  -0.097578  0  1.360915  0
F  F165  1  0.39639878  0.68076923  0.90715835  1  -0.614721  0  -0.082798  -0.097679  0  1.360973  0
F  F166  1  0.60679524  0.77539598  0.80396200  1  -0.620676  0  -0.082624  -0.097392  0  1.361624  0
F  F167  1  0.60677331  0.83133702  0.58918641  1  -0.617622  0  -0.082858  -0.097367  0  1.361646  0
F  F168  1  0.74034999  0.89984225  0.52093610  1  -0.620874  0  -0.081524  -0.092741  0  1.38696  0
F  F169  1  0.74036263  0.84049974  0.73864737  1  -0.614881  0  -0.081507  -0.092652  0  1.386791  0
