# generated using pymatgen
data_CdH6C4(SN4)2
_symmetry_space_group_name_H-M   'P 1'
_cell_length_a   5.30960058
_cell_length_b   7.82168875
_cell_length_c   11.48575306
_cell_angle_alpha   90.78117877
_cell_angle_beta   89.99962182
_cell_angle_gamma   89.99952062
_symmetry_Int_Tables_number   1
_chemical_formula_structural   CdH6C4(SN4)2
_chemical_formula_sum   'Cd2 H12 C8 S4 N16'
_cell_volume   476.95948502
_cell_formula_units_Z   2
loop_
 _symmetry_equiv_pos_site_id
 _symmetry_equiv_pos_as_xyz
  1  'x, y, z'
loop_
 _atom_site_type_symbol
 _atom_site_label
 _atom_site_symmetry_multiplicity
 _atom_site_fract_x
 _atom_site_fract_y
 _atom_site_fract_z
 _atom_site_occupancy
 _atom_site_hle17_bader_spin_density
 _atom_site_hle17_ddec_charge
 _atom_site_hle17_ddec_spin_density
 _atom_site_hle17_ddec_sum_bond_order
 _atom_site_hle17_magmom
 _atom_site_hse06_10hf_bader_spin_density
 _atom_site_hse06_10hf_ddec_charge
 _atom_site_hse06_10hf_ddec_spin_density
 _atom_site_hse06_10hf_ddec_sum_bond_order
 _atom_site_hse06_10hf_magmom
 _atom_site_hse06_bader_spin_density
 _atom_site_hse06_ddec_charge
 _atom_site_hse06_ddec_spin_density
 _atom_site_hse06_ddec_sum_bond_order
 _atom_site_hse06_magmom
 _atom_site_pbe_bader_spin_density
 _atom_site_pbe_cm5_charge
 _atom_site_pbe_ddec_charge
 _atom_site_pbe_ddec_spin_density
 _atom_site_pbe_ddec_sum_bond_order
 _atom_site_pbe_magmom
Cd  Cd0  1  0.50000157  0.49999862  0.49999960  1  0  0.852376  0  1.991348  0  0  0.698437  0  2.444653  0  0  0.741021  0  2.412812  0  0  0.593137  0.66837  0  2.466184  0
Cd  Cd1  1  0.00000025  0.99999999  0.50000212  1  0  0.852476  0  1.991079  0  0  0.698525  0  2.444389  0  0  0.74094  0  2.412663  0  0  0.593171  0.668456  0  2.465925  0
H  H2  1  0.88804082  0.20153702  0.85145154  1  0  0.113622  0  0.963331  0  0  0.125125  0  1.039507  0  0  0.126174  0  1.038805  0  0  0.105355  0.124257  0  1.039503  0
H  H3  1  0.38804850  0.29845317  0.14853747  1  0  0.11362  0  0.963424  0  0  0.125124  0  1.039576  0  0  0.126437  0  1.038974  0  0  0.105381  0.124255  0  1.039571  0
H  H4  1  0.11195667  0.79846534  0.14854775  1  0  0.113644  0  0.96334  0  0  0.125146  0  1.039504  0  0  0.126194  0  1.038802  0  0  0.10538  0.124275  0  1.039504  0
H  H5  1  0.61194711  0.70154540  0.85145827  1  0  0.113622  0  0.963434  0  0  0.125131  0  1.039565  0  0  0.126445  0  1.038961  0  0  0.10539  0.124262  0  1.039562  0
H  H6  1  0.69408578  0.14127797  0.97264804  1  0  0.113704  0  0.965054  0  0  0.124801  0  1.042922  0  0  0.126719  0  1.040373  0  0  0.110872  0.123309  0  1.044279  0
H  H7  1  0.19410053  0.35871194  0.02734488  1  0  0.113629  0  0.964976  0  0  0.124771  0  1.042806  0  0  0.126998  0  1.040281  0  0  0.110878  0.123276  0  1.044159  0
H  H8  1  0.30591735  0.85872691  0.02735390  1  0  0.11363  0  0.965082  0  0  0.124748  0  1.042944  0  0  0.126665  0  1.040397  0  0  0.110859  0.123253  0  1.044307  0
H  H9  1  0.80590261  0.64128403  0.97265344  1  0  0.113636  0  0.964975  0  0  0.124777  0  1.042812  0  0  0.127002  0  1.040291  0  0  0.110902  0.12328  0  1.044171  0
H  H10  1  0.64168760  0.34102721  0.90018427  1  0  0.115242  0  0.93992  0  0  0.13074  0  1.011099  0  0  0.131521  0  1.009641  0  0  0.109842  0.130092  0  1.011478  0
H  H11  1  0.14170175  0.15897061  0.09981237  1  0  0.11511  0  0.940089  0  0  0.130675  0  1.011132  0  0  0.131641  0  1.009942  0  0  0.109823  0.13003  0  1.011507  0
H  H12  1  0.35830989  0.65897515  0.09981502  1  0  0.115228  0  0.939898  0  0  0.130724  0  1.011069  0  0  0.131505  0  1.009612  0  0  0.109853  0.130076  0  1.011449  0
H  H13  1  0.85829950  0.84103305  0.90018520  1  0  0.115141  0  0.940034  0  0  0.130673  0  1.01115  0  0  0.131651  0  1.009947  0  0  0.109826  0.130025  0  1.011531  0
C  C14  1  0.50559585  0.13283600  0.69286082  1  0  0.297665  0  3.787042  0  0  0.243836  0  4.088689  0  0  0.271648  0  4.101262  0  0  0.219142  0.231668  0  4.080523  0
C  C15  1  0.00561483  0.36715984  0.30714740  1  0  0.29733  0  3.786866  0  0  0.243717  0  4.088323  0  0  0.26954  0  4.102698  0  0  0.219001  0.231544  0  4.080159  0
C  C16  1  0.49439598  0.86716121  0.30714013  1  0  0.297658  0  3.787038  0  0  0.243834  0  4.088688  0  0  0.271648  0  4.101261  0  0  0.219107  0.231656  0  4.080535  0
C  C17  1  0.99438831  0.63283738  0.69285355  1  0  0.297415  0  3.787059  0  0  0.243758  0  4.088544  0  0  0.269595  0  4.102926  0  0  0.219032  0.231578  0  4.080385  0
C  C18  1  0.69918066  0.20717937  0.88918709  1  0  -0.187079  0  3.617856  0  0  -0.303114  0  3.868629  0  0  -0.289651  0  3.880408  0  0  -0.132335  -0.305011  0  3.864385  0
C  C19  1  0.19918533  0.29281540  0.11082243  1  0  -0.187138  0  3.618879  0  0  -0.303122  0  3.869665  0  0  -0.291904  0  3.882528  0  0  -0.132287  -0.305012  0  3.865406  0
C  C20  1  0.30081871  0.79282039  0.11081477  1  0  -0.186969  0  3.617868  0  0  -0.303012  0  3.868633  0  0  -0.289546  0  3.880415  0  0  -0.132336  -0.304916  0  3.864399  0
C  C21  1  0.80080463  0.70718568  0.88917683  1  0  -0.18711  0  3.61861  0  0  -0.303112  0  3.869367  0  0  -0.291887  0  3.882226  0  0  -0.132351  -0.305009  0  3.865117  0
S  S22  1  0.72215082  0.23816609  0.60928206  1  0  -0.413015  0  2.261344  0  0  -0.378488  0  2.66218  0  0  -0.397153  0  2.650053  0  0  -0.195225  -0.364865  0  2.667749  0
S  S23  1  0.22214140  0.26184664  0.39071463  1  0  -0.412899  0  2.261995  0  0  -0.378444  0  2.662805  0  0  -0.396925  0  2.651559  0  0  -0.195207  -0.364826  0  2.668376  0
S  S24  1  0.27785043  0.76182982  0.39072148  1  0  -0.413024  0  2.261444  0  0  -0.37851  0  2.662314  0  0  -0.397176  0  2.650188  0  0  -0.195236  -0.36489  0  2.66789  0
S  S25  1  0.77786362  0.73814806  0.60928366  1  0  -0.412934  0  2.262025  0  0  -0.378449  0  2.662815  0  0  -0.396931  0  2.651565  0  0  -0.195201  -0.36483  0  2.668387  0
N  N26  1  0.29804061  0.04296121  0.66298436  1  0  -0.326114  0  3.097519  0  0  -0.271519  0  3.39764  0  0  -0.289076  0  3.408876  0  0  -0.227582  -0.259138  0  3.387197  0
N  N27  1  0.79804269  0.45704598  0.33701295  1  0  -0.326115  0  3.097444  0  0  -0.271578  0  3.397539  0  0  -0.288905  0  3.409361  0  0  -0.227639  -0.259196  0  3.387092  0
N  N28  1  0.70196064  0.95703598  0.33701920  1  0  -0.326095  0  3.097446  0  0  -0.271513  0  3.397594  0  0  -0.289072  0  3.40883  0  0  -0.227538  -0.259145  0  3.387187  0
N  N29  1  0.20196044  0.54295127  0.66298538  1  0  -0.326104  0  3.097402  0  0  -0.271553  0  3.397491  0  0  -0.288876  0  3.409303  0  0  -0.22764  -0.259188  0  3.387088  0
N  N30  1  0.19799217  0.98108544  0.76218432  1  0  -0.054229  0  3.012149  0  0  -0.055738  0  3.329416  0  0  -0.052126  0  3.336728  0  0  -0.085323  -0.057396  0  3.321587  0
N  N31  1  0.69800177  0.51891857  0.23781183  1  0  -0.054154  0  3.012284  0  0  -0.055687  0  3.329529  0  0  -0.051707  0  3.337234  0  0  -0.085279  -0.057345  0  3.321708  0
N  N32  1  0.80200155  0.01891430  0.23781928  1  0  -0.054256  0  3.012249  0  0  -0.055774  0  3.329518  0  0  -0.05216  0  3.336828  0  0  -0.085317  -0.057433  0  3.321695  0
N  N33  1  0.30199572  0.48108121  0.76218916  1  0  -0.054081  0  3.012297  0  0  -0.055604  0  3.329551  0  0  -0.051619  0  3.337247  0  0  -0.085246  -0.057261  0  3.321728  0
N  N34  1  0.33192290  0.02784527  0.85190851  1  0  -0.12026  0  2.88918  0  0  -0.120643  0  3.161638  0  0  -0.11083  0  3.178034  0  0  -0.077724  -0.120422  0  3.154625  0
N  N35  1  0.83193951  0.47215145  0.14809292  1  0  -0.120391  0  2.889194  0  0  -0.120633  0  3.161619  0  0  -0.112651  0  3.178942  0  0  -0.077711  -0.120419  0  3.154604  0
N  N36  1  0.66807459  0.97215702  0.14809513  1  0  -0.120136  0  2.889289  0  0  -0.120494  0  3.161737  0  0  -0.110686  0  3.178146  0  0  -0.077716  -0.120278  0  3.154715  0
N  N37  1  0.16805986  0.52784964  0.85190548  1  0  -0.120416  0  2.8894  0  0  -0.120714  0  3.161892  0  0  -0.112719  0  3.179225  0  0  -0.077704  -0.120504  0  3.154872  0
N  N38  1  0.52451342  0.12195518  0.81081823  1  0  0.034321  0  3.533924  0  0  0.155815  0  3.72256  0  0  0.112986  0  3.785133  0  0  -0.123553  0.163353  0  3.707573  0
N  N39  1  0.02456452  0.37802700  0.18915230  1  0  0.034717  0  3.533533  0  0  0.155902  0  3.72243  0  0  0.116303  0  3.784825  0  0  -0.123577  0.163457  0  3.707411  0
N  N40  1  0.47548595  0.87804463  0.18918014  1  0  0.034156  0  3.534119  0  0  0.155619  0  3.7228  0  0  0.112789  0  3.785366  0  0  -0.123603  0.163202  0  3.707735  0
N  N41  1  0.97544615  0.62196903  0.81084167  1  0  0.034577  0  3.533604  0  0  0.155826  0  3.722482  0  0  0.116176  0  3.784945  0  0  -0.123625  0.163411  0  3.707407  0
