# generated using pymatgen
data_Sm2H18C21N3O11
_symmetry_space_group_name_H-M   'P 1'
_cell_length_a   7.60253997
_cell_length_b   11.53077586
_cell_length_c   14.14726417
_cell_angle_alpha   103.35792150
_cell_angle_beta   91.50401771
_cell_angle_gamma   104.59621549
_symmetry_Int_Tables_number   1
_chemical_formula_structural   Sm2H18C21N3O11
_chemical_formula_sum   'Sm4 H36 C42 N6 O22'
_cell_volume   1162.98985568
_cell_formula_units_Z   2
loop_
 _symmetry_equiv_pos_site_id
 _symmetry_equiv_pos_as_xyz
  1  'x, y, z'
loop_
 _atom_site_type_symbol
 _atom_site_label
 _atom_site_symmetry_multiplicity
 _atom_site_fract_x
 _atom_site_fract_y
 _atom_site_fract_z
 _atom_site_occupancy
 _atom_site_pbe_bader_charge
 _atom_site_pbe_bader_spin_density
 _atom_site_pbe_cm5_charge
 _atom_site_pbe_ddec_charge
 _atom_site_pbe_ddec_spin_density
 _atom_site_pbe_ddec_sum_bond_order
 _atom_site_pbe_magmom
Sm  Sm0  1  0.31970775  0.00520728  0.87609760  1  2.158774  0  1.518759  2.048167  0  2.252182  0
Sm  Sm1  1  0.68029828  0.99478359  0.12390479  1  2.158803  0  1.518715  2.048115  0  2.252173  0
Sm  Sm2  1  0.87093342  0.11938508  0.92537154  1  2.191394  0  1.489757  2.114713  0  2.169051  0
Sm  Sm3  1  0.12907706  0.88061413  0.07463112  1  2.191541  0  1.489746  2.114688  0  2.168943  0
H  H4  1  0.16119702  0.62669059  0.62781546  1  0.113537  0  0.113317  0.117463  0  0.988713  0
H  H5  1  0.83877629  0.37331283  0.37217410  1  0.113664  0  0.11327  0.117472  0  0.988711  0
H  H6  1  0.02889321  0.39863977  0.54770454  1  0.081586  0  0.106224  0.111074  0  1.020508  0
H  H7  1  0.97109235  0.60135826  0.45228865  1  0.081645  0  0.106271  0.111087  0  1.020478  0
H  H8  1  0.86173283  0.26315692  0.65138561  1  0.114586  0  0.116881  0.090172  0  1.022609  0
H  H9  1  0.13826593  0.73684216  0.34861384  1  0.114604  0  0.116879  0.090144  0  1.022666  0
H  H10  1  0.92854333  0.56087342  0.89044851  1  0.116045  0  0.127385  0.10197  0  0.988435  0
H  H11  1  0.07144122  0.43913287  0.10954759  1  0.115614  0  0.127428  0.101975  0  0.988483  0
H  H12  1  0.40212681  0.91341371  0.54458902  1  0.085247  0  0.113314  0.113574  0  1.002658  0
H  H13  1  0.59788788  0.08661412  0.45541344  1  0.08527  0  0.113283  0.113606  0  1.002646  0
H  H14  1  0.45197774  0.75667680  0.39790559  1  0.078389  0  0.10723  0.110662  0  1.021706  0
H  H15  1  0.54801553  0.24334616  0.60209388  1  0.078591  0  0.107222  0.110721  0  1.021623  0
H  H16  1  0.65969351  0.62592378  0.42067930  1  0.077604  0  0.106468  0.069307  0  1.020788  0
H  H17  1  0.34026912  0.37407582  0.57931064  1  0.077543  0  0.106454  0.069358  0  1.020731  0
H  H18  1  0.77473522  0.80013725  0.71479820  1  0.084225  0  0.124562  0.101021  0  0.981055  0
H  H19  1  0.22524562  0.19985520  0.28519450  1  0.084055  0  0.124611  0.101067  0  0.980982  0
H  H20  1  0.48428644  0.34292046  0.74611937  1  0.08843  0  0.108727  0.107509  0  1.005697  0
H  H21  1  0.51569639  0.65707752  0.25387514  1  0.088443  0  0.10869  0.107421  0  1.005846  0
H  H22  1  0.62411021  0.55012413  0.71015552  1  0.083311  0  0.10168  0.105248  0  1.023175  0
H  H23  1  0.37585910  0.44987645  0.28983905  1  0.083236  0  0.101659  0.105258  0  1.023215  0
H  H24  1  0.25635553  0.53568534  0.98955074  1  0.07983  0  0.114179  0.08819  0  1.011458  0
H  H25  1  0.74366051  0.46430839  0.01045674  1  0.079905  0  0.114161  0.088112  0  1.011573  0
H  H26  1  0.21657643  0.05059915  0.64139292  1  0.086994  0  0.110772  0.139179  0  1.001089  0
H  H27  1  0.78343484  0.94937884  0.35861713  1  0.087256  0  0.110843  0.139213  0  1.001032  0
H  H28  1  0.05390784  0.90924084  0.62370900  1  0.038963  0  0.107239  0.12644  0  0.98078  0
H  H29  1  0.94610478  0.09075188  0.37630525  1  0.039007  0  0.107265  0.126559  0  0.980536  0
H  H30  1  0.82761243  0.01173134  0.55122653  1  0.032234  0  0.083029  0.070294  0  1.02814  0
H  H31  1  0.17241954  0.98825804  0.44877356  1  0.031952  0  0.082963  0.070207  0  1.028048  0
H  H32  1  0.01916171  0.13548074  0.55201482  1  -0.007756  0  0.086544  0.077098  0  1.000735  0
H  H33  1  0.98087321  0.86450312  0.44798928  1  -0.007795  0  0.086586  0.077071  0  1.000697  0
H  H34  1  0.58603725  0.74125565  0.82702930  1  0.104192  0  0.120373  0.088494  0  1.013455  0
H  H35  1  0.41392615  0.25873742  0.17297288  1  0.103733  0  0.120431  0.088662  0  1.013301  0
H  H36  1  0.59581295  0.26171482  0.88745246  1  0.641356  0  0.298862  0.388902  0  0.958077  0
H  H37  1  0.40419775  0.73828163  0.11255111  1  0.641297  0  0.298871  0.388924  0  0.958046  0
H  H38  1  0.78521056  0.31608584  0.84224891  1  0.646637  0  0.286654  0.347415  0  1.017  0
H  H39  1  0.21480230  0.68391616  0.15775364  1  0.646643  0  0.286618  0.347412  0  1.017026  0
C  C40  1  0.13787382  0.74222700  0.81210732  1  1.585741  0  0.222107  0.626294  0  4.18699  0
C  C41  1  0.86211658  0.25777664  0.18788423  1  1.585652  0  0.222111  0.626379  0  4.186777  0
C  C42  1  0.05504499  0.60910266  0.76455658  1  -0.02744  0  -0.007323  -0.079637  0  3.95034  0
C  C43  1  0.94494051  0.39090184  0.23543427  1  -0.027708  0  -0.007375  -0.079861  0  3.950643  0
C  C44  1  0.08210235  0.56312518  0.66693098  1  -0.001147  0  -0.056663  -0.036585  0  3.928482  0
C  C45  1  0.91787518  0.43687921  0.33306031  1  -0.000963  0  -0.056557  -0.036441  0  3.928436  0
C  C46  1  0.00943851  0.43804868  0.62336380  1  -0.050671  0  -0.086185  -0.143327  0  3.997136  0
C  C47  1  0.99055182  0.56195127  0.37662777  1  -0.050807  0  -0.086279  -0.143411  0  3.996994  0
C  C48  1  0.91438724  0.36282520  0.67982400  1  0.467166  0  0.050388  0.08846  0  3.946315  0
C  C49  1  0.08561080  0.63717482  0.32017136  1  0.466988  0  0.050332  0.08846  0  3.946277  0
C  C50  1  0.95452566  0.52741204  0.81472543  1  0.524401  0  0.067984  0.085108  0  3.908189  0
C  C51  1  0.04546319  0.47259523  0.18527098  1  0.525097  0  0.068006  0.08528  0  3.90856  0
C  C52  1  0.55616437  0.95883653  0.72816111  1  1.550159  0  0.204169  0.598945  0  4.231421  0
C  C53  1  0.44385690  0.04117387  0.27184184  1  1.549941  0  0.204006  0.598863  0  4.231582  0
C  C54  1  0.49291325  0.85515492  0.54994767  1  0.001635  0  -0.058676  -0.041088  0  3.919432  0
C  C55  1  0.50708159  0.14485794  0.45004997  1  0.002027  0  -0.058579  -0.041133  0  3.919334  0
C  C56  1  0.51967106  0.76800518  0.46952883  1  -0.079574  0  -0.085667  -0.137164  0  3.984626  0
C  C57  1  0.48031917  0.23200946  0.53046900  1  -0.079754  0  -0.085723  -0.137387  0  3.984876  0
C  C58  1  0.63625996  0.69550332  0.48244535  1  0.484852  0  0.046036  0.09512  0  3.987741  0
C  C59  1  0.36372510  0.30450391  0.51754811  1  0.484947  0  0.046067  0.095171  0  3.988207  0
C  C60  1  0.69979243  0.79105606  0.64539859  1  0.524009  0  0.056847  0.085149  0  3.912442  0
C  C61  1  0.30019136  0.20893734  0.35459509  1  0.523944  0  0.056864  0.085117  0  3.912363  0
C  C62  1  0.27551019  0.30388814  0.89543659  1  1.573875  0  0.241523  0.653213  0  4.154963  0
C  C63  1  0.72450504  0.69610740  0.10457403  1  1.573577  0  0.24142  0.653037  0  4.155029  0
C  C64  1  0.36065218  0.42367600  0.87088371  1  -0.037939  0  -0.014327  -0.090667  0  3.962281  0
C  C65  1  0.63935672  0.57632316  0.12912314  1  -0.037383  0  -0.014296  -0.09058  0  3.962231  0
C  C66  1  0.46545364  0.42841583  0.79138861  1  -0.057858  0  -0.070629  -0.058782  0  3.956607  0
C  C67  1  0.53453716  0.57157947  0.20860989  1  -0.057931  0  -0.070624  -0.058719  0  3.956697  0
C  C68  1  0.54416763  0.54272811  0.77244162  1  -0.027324  0  -0.093587  -0.148491  0  4.009477  0
C  C69  1  0.45580932  0.45726886  0.22755676  1  -0.027369  0  -0.093475  -0.148382  0  4.009423  0
C  C70  1  0.58537054  0.86802809  0.64019911  1  0.012171  0  -0.002293  -0.061788  0  3.920834  0
C  C71  1  0.41462559  0.13198111  0.35979789  1  0.012506  0  -0.002385  -0.061665  0  3.920755  0
C  C72  1  0.33994173  0.53534216  0.92797465  1  0.558226  0  0.050358  0.068225  0  3.952961  0
C  C73  1  0.66005701  0.46465045  0.07202854  1  0.558231  0  0.050395  0.068208  0  3.952916  0
C  C74  1  0.00075664  0.05408228  0.73091671  1  1.493115  0  0.209418  0.655745  0  4.141911  0
C  C75  1  0.99925734  0.94591605  0.26908802  1  1.493497  0  0.20943  0.65586  0  4.141864  0
C  C76  1  0.06804362  0.00886602  0.63421573  1  -0.011983  0  -0.166456  -0.319404  0  3.938752  0
C  C77  1  0.93197137  0.99112493  0.36579190  1  -0.012343  0  -0.166594  -0.319609  0  3.938516  0
C  C78  1  0.97639917  0.03577390  0.54809441  1  -0.008191  0  -0.170921  -0.122093  0  3.969184  0
C  C79  1  0.02363446  0.96421362  0.45191034  1  0.020805  0  -0.170771  -0.121765  0  3.968845  0
C  C80  1  0.52241917  0.64908677  0.83674778  1  0.474628  0  0.055868  0.09918  0  3.939085  0
C  C81  1  0.47756018  0.35090652  0.16325352  1  0.475099  0  0.055857  0.098913  0  3.939063  0
N  N82  1  0.88672160  0.40653532  0.77328051  1  -1.225504  0  -0.298391  -0.221157  0  3.41236  0
N  N83  1  0.11326905  0.59346923  0.22671263  1  -1.225466  0  -0.298359  -0.221205  0  3.412458  0
N  N84  1  0.72580093  0.70591837  0.56845811  1  -1.19229  0  -0.329199  -0.289671  0  3.31731  0
N  N85  1  0.27417258  0.29407582  0.43153610  1  -1.192514  0  -0.329199  -0.289684  0  3.317458  0
N  N86  1  0.42239114  0.64590408  0.91333478  1  -1.18418  0  -0.301222  -0.23407  0  3.331917  0
N  N87  1  0.57759918  0.35409116  0.08667147  1  -1.18422  0  -0.301311  -0.233966  0  3.332086  0
O  O88  1  0.23862276  0.80602582  0.76197839  1  -1.181759  0  -0.382899  -0.618732  0  2.254563  0
O  O89  1  0.76137561  0.19397792  0.23801272  1  -1.181491  0  -0.3829  -0.618703  0  2.254541  0
O  O90  1  0.62569441  0.96007390  0.81275256  1  -1.210181  0  -0.406532  -0.728555  0  2.366585  0
O  O91  1  0.37432211  0.03991988  0.18724716  1  -1.210206  0  -0.40645  -0.728512  0  2.366608  0
O  O92  1  0.45177287  0.02656785  0.71976018  1  -1.170942  0  -0.360936  -0.60105  0  2.224239  0
O  O93  1  0.54826907  0.97345659  0.28025028  1  -1.171042  0  -0.360841  -0.601082  0  2.224369  0
O  O94  1  0.35971686  0.21909947  0.87464376  1  -1.204221  0  -0.377691  -0.672079  0  2.351381  0
O  O95  1  0.64030478  0.78089981  0.12537128  1  -1.204371  0  -0.37764  -0.67202  0  2.351476  0
O  O96  1  0.03751975  0.00838278  0.80291925  1  -1.225015  0  -0.478406  -0.778005  0  2.420927  0
O  O97  1  0.96248876  0.99161913  0.19708951  1  -1.224921  0  -0.478378  -0.778087  0  2.420917  0
O  O98  1  0.09495490  0.04231228  0.00437013  1  -0.692044  0  -0.503088  -0.686173  0  2.085865  0
O  O99  1  0.90505951  0.95768697  0.99563337  1  -0.695277  0  -0.503028  -0.686138  0  2.085824  0
O  O100  1  0.44701304  0.93293109  0.99425804  1  -0.694385  0  -0.523538  -0.698745  0  2.133268  0
O  O101  1  0.55299267  0.06706621  0.00574624  1  -0.698462  0  -0.523515  -0.69872  0  2.133266  0
O  O102  1  0.10675915  0.78983435  0.89898741  1  -1.210354  0  -0.396339  -0.699931  0  2.343851  0
O  O103  1  0.89324106  0.21016756  0.10100553  1  -1.210491  0  -0.396341  -0.699999  0  2.343851  0
O  O104  1  0.72849973  0.26844792  0.89148841  1  -1.30978  0  -0.663272  -0.886013  0  2.183719  0
O  O105  1  0.27151513  0.73155596  0.10851455  1  -1.30973  0  -0.663258  -0.886022  0  2.183568  0
O  O106  1  0.12604361  0.29215461  0.93435512  1  -1.195249  0  -0.38442  -0.645611  0  2.268065  0
O  O107  1  0.87397252  0.70783912  0.06565094  1  -1.195403  0  -0.384385  -0.64555  0  2.267897  0
O  O108  1  0.90974875  0.13252670  0.74479140  1  -1.158383  0  -0.328082  -0.573634  0  2.212587  0
O  O109  1  0.09027272  0.86748005  0.25520735  1  -1.158609  0  -0.328099  -0.573598  0  2.212563  0
