# generated using pymatgen
data_Zr3H24C49(BrO13)2
_symmetry_space_group_name_H-M   'P 1'
_cell_length_a   19.09857026
_cell_length_b   19.06627972
_cell_length_c   19.11348172
_cell_angle_alpha   59.62367398
_cell_angle_beta   59.86354504
_cell_angle_gamma   60.10997704
_symmetry_Int_Tables_number   1
_chemical_formula_structural   Zr3H24C49(BrO13)2
_chemical_formula_sum   'Zr6 H48 C98 Br4 O52'
_cell_volume   4906.26167707
_cell_formula_units_Z   2
loop_
 _symmetry_equiv_pos_site_id
 _symmetry_equiv_pos_as_xyz
  1  'x, y, z'
loop_
 _atom_site_type_symbol
 _atom_site_label
 _atom_site_symmetry_multiplicity
 _atom_site_fract_x
 _atom_site_fract_y
 _atom_site_fract_z
 _atom_site_occupancy
 _atom_site_pbe_bader_charge
 _atom_site_pbe_bader_spin_density
 _atom_site_pbe_cm5_charge
 _atom_site_pbe_ddec_charge
 _atom_site_pbe_ddec_spin_density
 _atom_site_pbe_ddec_sum_bond_order
 _atom_site_pbe_magmom
Zr  Zr0  1  0.90476654  0.40896903  0.58971023  1  2.635914  0  1.630887  2.378213  0  2.742763  0
Zr  Zr1  1  0.09654061  0.58937785  0.40930900  1  2.637566  0  1.630495  2.377679  0  2.743746  0
Zr  Zr2  1  0.08977583  0.40299635  0.59590687  1  2.638615  0  1.630405  2.376305  0  2.74809  0
Zr  Zr3  1  0.91131430  0.59556293  0.40333453  1  2.639388  0  1.630268  2.376431  0  2.748446  0
Zr  Zr4  1  0.90820062  0.59162509  0.59195568  1  2.635982  0  1.634284  2.38114  0  2.747567  0
Zr  Zr5  1  0.09297405  0.40685157  0.40719615  1  2.640228  0  1.63219  2.379575  0  2.754753  0
H  H6  1  0.92280708  0.42541742  0.71867403  1  0.606349  0  0.329781  0.419192  0  0.863842  0
H  H7  1  0.93308352  0.71832210  0.42573204  1  0.608812  0  0.329589  0.419026  0  0.864736  0
H  H8  1  0.21886203  0.42174767  0.43184291  1  0.599437  0  0.326673  0.414135  0  0.871379  0
H  H9  1  0.92752740  0.43150729  0.42210682  1  0.605007  0  0.326367  0.413899  0  0.871809  0
H  H10  1  0.44037357  0.62346945  0.03489289  1  0.075457  0  0.111677  0.117377  0  0.999338  0
H  H11  1  0.52418335  0.41245251  0.92902496  1  0.072498  0  0.112052  0.119203  0  0.994987  0
H  H12  1  0.68524702  0.60510389  0.82299315  1  0.15634  0  0.111702  0.123127  0  1.014376  0
H  H13  1  0.56298735  0.59967678  0.95823022  1  0.049105  0  0.108168  0.108966  0  0.99873  0
H  H14  1  0.32541438  0.38271395  0.18346142  1  0.124563  0  0.111524  0.122977  0  1.012764  0
H  H15  1  0.45607646  0.37960573  0.05627445  1  0.090175  0  0.110136  0.11234  0  0.995147  0
H  H16  1  0.13422510  0.92880034  0.41272579  1  0.124526  0  0.112151  0.117218  0  0.997445  0
H  H17  1  0.90115239  0.03465081  0.62371954  1  0.081011  0  0.11171  0.117249  0  0.998985  0
H  H18  1  0.10831258  0.18321956  0.38295836  1  0.107846  0  0.111533  0.123207  0  1.012948  0
H  H19  1  0.10784005  0.05612128  0.37979378  1  0.079958  0  0.110318  0.112451  0  0.994958  0
H  H20  1  0.88655389  0.82277307  0.60526663  1  0.126113  0  0.111764  0.123048  0  1.014956  0
H  H21  1  0.87893663  0.95801538  0.59985560  1  0.048291  0  0.108312  0.109151  0  0.997977  0
H  H22  1  0.43266996  0.02873752  0.40717643  1  0.064944  0  0.113238  0.118721  0  0.99539  0
H  H23  1  0.53138078  0.93013417  0.62927433  1  0.077221  0  0.110276  0.114768  0  1.001853  0
H  H24  1  0.68644275  0.82816544  0.38117064  1  0.151897  0  0.113615  0.12389  0  0.99694  0
H  H25  1  0.55790539  0.95682446  0.37943071  1  0.080909  0  0.109453  0.110073  0  0.99852  0
H  H26  1  0.32227369  0.17811410  0.60979365  1  0.127793  0  0.109366  0.118405  0  1.00754  0
H  H27  1  0.45537891  0.05365126  0.60678349  1  0.074871  0  0.10754  0.108812  0  1.001143  0
H  H28  1  0.90933288  0.62909807  0.93030937  1  0.043164  0  0.110296  0.114921  0  1.002193  0
H  H29  1  0.13153130  0.40690804  0.02900692  1  0.080357  0  0.113384  0.119036  0  0.995517  0
H  H30  1  0.88994320  0.60957978  0.17830645  1  0.123118  0  0.109595  0.118998  0  1.007105  0
H  H31  1  0.88441405  0.60666056  0.05373520  1  0.084127  0  0.107447  0.108645  0  1.001353  0
H  H32  1  0.10431715  0.38101383  0.82833654  1  0.110836  0  0.113601  0.124028  0  0.997078  0
H  H33  1  0.10601163  0.37929014  0.95694974  1  0.075264  0  0.109616  0.110287  0  0.998561  0
H  H34  1  0.12266850  0.82301426  0.17079177  1  0.1239  0  0.100811  0.119314  0  1.057122  0
H  H35  1  0.89626723  0.81513897  0.18290424  1  0.128966  0  0.098644  0.112172  0  1.049432  0
H  H36  1  0.88349307  0.17047672  0.82337723  1  0.118616  0  0.100616  0.119195  0  1.056962  0
H  H37  1  0.10570948  0.18255561  0.81548475  1  0.132693  0  0.098926  0.112521  0  1.049433  0
H  H38  1  0.43694437  0.40251954  0.63162204  1  0.069767  0  0.111594  0.116597  0  1.000114  0
H  H39  1  0.52888646  0.63128198  0.40294792  1  0.092238  0  0.111662  0.116557  0  1.000612  0
H  H40  1  0.68403643  0.39233321  0.60319939  1  0.153609  0  0.111709  0.122567  0  1.016842  0
H  H41  1  0.55704158  0.38490540  0.60808195  1  0.090821  0  0.10961  0.11147  0  0.99625  0
H  H42  1  0.32039963  0.60281319  0.39275893  1  0.119415  0  0.111351  0.122005  0  1.017255  0
H  H43  1  0.44990558  0.60776189  0.38530279  1  0.071719  0  0.109298  0.111022  0  0.996107  0
H  H44  1  0.36738473  0.57694315  0.25240844  1  0.61124  0  0.333704  0.361681  0  0.884661  0
H  H45  1  0.74048011  0.30907354  0.83399023  1  0.612671  0  0.333054  0.367093  0  0.883868  0
H  H46  1  0.11641977  0.83366112  0.30934179  1  0.608765  0  0.333009  0.3671  0  0.884014  0
H  H47  1  0.80325105  0.25204084  0.57738789  1  0.611054  0  0.333736  0.362004  0  0.884656  0
H  H48  1  0.34507402  0.25264863  0.31238890  1  0.590041  0  0.33323  0.362929  0  0.886854  0
H  H49  1  0.75806142  0.84850958  0.58208059  1  0.605635  0  0.333586  0.36313  0  0.885348  0
H  H50  1  0.81137604  0.58186664  0.84879524  1  0.626176  0  0.333313  0.36323  0  0.886294  0
H  H51  1  0.08972838  0.31215849  0.25297980  1  0.594583  0  0.333765  0.364279  0  0.8859  0
H  H52  1  0.35808266  0.30426225  0.58270718  1  0.60249  0  0.33281  0.36354  0  0.885591  0
H  H53  1  0.75506117  0.58240573  0.30468039  1  0.590524  0  0.332663  0.364292  0  0.885746  0
C  C54  1  0.75871206  0.50586564  0.72777105  1  1.522444  0  0.2342  0.636195  0  4.115736  0
C  C55  1  0.00761958  0.72746735  0.50616301  1  1.544439  0  0.2337  0.636091  0  4.116436  0
C  C56  1  0.23686734  0.49766743  0.26504454  1  1.522719  0  0.233111  0.634526  0  4.118252  0
C  C57  1  0.00038859  0.26472563  0.49801347  1  1.543879  0  0.233162  0.633623  0  4.121029  0
C  C58  1  0.99404067  0.26103817  0.73382853  1  1.538674  0  0.239142  0.646327  0  4.078481  0
C  C59  1  0.76293265  0.50875575  0.49496692  1  1.544335  0  0.232692  0.63381  0  4.118122  0
C  C60  1  0.01108731  0.73350483  0.26140480  1  1.529869  0  0.239299  0.646066  0  4.0799  0
C  C61  1  0.23331865  0.49463526  0.50911601  1  1.545234  0  0.232815  0.632961  0  4.118921  0
C  C62  1  0.00125566  0.49822830  0.73490329  1  1.539554  0  0.235174  0.635498  0  4.114802  0
C  C63  1  0.22869020  0.25662012  0.50748227  1  1.536638  0  0.230694  0.632021  0  4.126775  0
C  C64  1  0.00718653  0.50716802  0.25695360  1  1.570351  0  0.230692  0.631208  0  4.125949  0
C  C65  1  0.76563871  0.73463108  0.49849456  1  1.541048  0  0.235681  0.638012  0  4.111308  0
C  C66  1  0.31388795  0.49948584  0.18634955  1  -0.05832  0  -0.019104  -0.080012  0  3.973319  0
C  C67  1  0.68000375  0.50560139  0.80477288  1  -0.0039  0  -0.016646  -0.074161  0  3.964077  0
C  C68  1  0.34708343  0.56760842  0.14377445  1  -0.01739  0  -0.008399  -0.057999  0  4.000185  0
C  C69  1  0.41831798  0.56816575  0.06886883  1  -0.025793  0  -0.081483  -0.154092  0  3.942953  0
C  C70  1  0.63346628  0.45153084  0.83468454  1  -0.049674  0  -0.0061  -0.053128  0  3.982123  0
C  C71  1  0.56151573  0.45179310  0.90906082  1  -0.030442  0  -0.0794  -0.152622  0  3.934528  0
C  C72  1  0.65188482  0.55992502  0.84937870  1  -0.012169  0  -0.075318  -0.068873  0  3.96414  0
C  C73  1  0.58167427  0.55785408  0.92444113  1  -0.044931  0  -0.081563  -0.12093  0  3.95495  0
C  C74  1  0.35366382  0.43313670  0.15265730  1  0.024145  0  -0.076058  -0.069514  0  3.962646  0
C  C75  1  0.42605598  0.43308345  0.07954814  1  -0.095215  0  -0.080075  -0.118956  0  3.948065  0
C  C76  1  0.45968693  0.50101773  0.03566883  1  0.04344  0  0.004444  0.084858  0  3.985429  0
C  C77  1  0.53518528  0.50320639  0.95626212  1  0.038635  0  0.00313  0.083081  0  3.987599  0
C  C78  1  0.00953654  0.80453212  0.50584263  1  0.079129  0  -0.016905  -0.074602  0  3.965156  0
C  C79  1  0.00021906  0.18605089  0.49981197  1  0.031289  0  -0.019462  -0.080215  0  3.974017  0
C  C80  1  0.08022586  0.83444961  0.45178688  1  -0.109216  0  -0.005735  -0.052802  0  3.981194  0
C  C81  1  0.07751864  0.90884654  0.45202713  1  -0.069952  0  -0.079921  -0.151259  0  3.935088  0
C  C82  1  0.94148208  0.14346247  0.56794143  1  -0.104911  0  -0.008207  -0.057123  0  3.998418  0
C  C83  1  0.94454278  0.06861325  0.56842669  1  -0.02809  0  -0.081744  -0.154575  0  3.942639  0
C  C84  1  0.06043173  0.15242138  0.43339884  1  -0.016769  0  -0.075387  -0.068995  0  3.962688  0
C  C85  1  0.06114522  0.07936185  0.43329791  1  -0.075603  0  -0.080752  -0.119554  0  3.948632  0
C  C86  1  0.93870082  0.84915448  0.56012299  1  -0.056157  0  -0.075205  -0.068723  0  3.964898  0
C  C87  1  0.93589437  0.92422653  0.55804791  1  -0.011695  0  -0.0819  -0.120897  0  3.953856  0
C  C88  1  0.00520983  0.95606057  0.50340458  1  0.040883  0  0.002781  0.082229  0  3.986814  0
C  C89  1  0.00347817  0.03546328  0.50123652  1  0.034486  0  0.004803  0.085649  0  3.986315  0
C  C90  1  0.30611110  0.17825695  0.50636219  1  0.019947  0  -0.019413  -0.077716  0  3.973912  0
C  C91  1  0.68604437  0.81063279  0.50163258  1  0.004185  0  -0.0155  -0.076648  0  3.958313  0
C  C92  1  0.33827647  0.13570354  0.44851565  1  -0.053675  0  -0.006141  -0.054813  0  3.983297  0
C  C93  1  0.41128725  0.06258350  0.44993257  1  -0.011991  0  -0.078154  -0.148301  0  3.929562  0
C  C94  1  0.64173337  0.84042950  0.57180087  1  -0.03503  0  -0.007072  -0.056136  0  3.985653  0
C  C95  1  0.56637364  0.91089518  0.57256652  1  0.011535  0  -0.080968  -0.152762  0  3.942879  0
C  C96  1  0.65333069  0.85301812  0.43395308  1  -0.034725  0  -0.070467  -0.05869  0  3.949203  0
C  C97  1  0.57986822  0.92471482  0.43426588  1  -0.024876  0  -0.079226  -0.119022  0  3.946149  0
C  C98  1  0.34878971  0.14598237  0.56391310  1  -0.057536  0  -0.081305  -0.082241  0  3.986317  0
C  C99  1  0.42289142  0.07501757  0.56271742  1  -0.024302  0  -0.084652  -0.126437  0  3.965664  0
C  C100  1  0.45590373  0.03143495  0.50553562  1  -0.005055  0  0.00481  0.087532  0  3.980798  0
C  C101  1  0.53456597  0.95532551  0.50384787  1  -0.054231  0  0.002841  0.081782  0  3.98663  0
C  C102  1  0.00176181  0.50143556  0.81083481  1  -0.014744  0  -0.015536  -0.075949  0  3.959172  0
C  C103  1  0.00933475  0.50608813  0.17852622  1  -0.088519  0  -0.019161  -0.076945  0  3.972389  0
C  C104  1  0.94611918  0.57159920  0.84063477  1  -0.039027  0  -0.006712  -0.055413  0  3.984734  0
C  C105  1  0.95027955  0.57237981  0.91108398  1  0.070382  0  -0.080829  -0.152771  0  3.942445  0
C  C106  1  0.07757722  0.44822596  0.13599062  1  -0.007628  0  -0.006377  -0.054901  0  3.982563  0
C  C107  1  0.07631631  0.44969562  0.06281537  1  -0.024479  0  -0.078114  -0.148451  0  3.929997  0
C  C108  1  0.94143674  0.56369383  0.14618440  1  -0.024409  0  -0.081532  -0.083144  0  3.986407  0
C  C109  1  0.93954858  0.56253981  0.07517154  1  -0.069785  0  -0.084468  -0.125684  0  3.965705  0
C  C110  1  0.05979314  0.43378214  0.85319334  1  -0.015501  0  -0.070291  -0.059104  0  3.949644  0
C  C111  1  0.06128517  0.43409768  0.92486841  1  0.038227  0  -0.079575  -0.119014  0  3.945423  0
C  C112  1  0.00640238  0.50367591  0.95549132  1  -0.121353  0  0.002287  0.08122  0  3.986765  0
C  C113  1  0.00729659  0.50534593  0.03160232  1  0.064823  0  0.005044  0.087093  0  3.981228  0
C  C114  1  0.07026603  0.85300030  0.14599743  1  -0.005743  0  -0.082528  -0.130828  0  3.913181  0
C  C115  1  0.06626520  0.92902328  0.07438310  1  0.041024  0  -0.007613  0.047433  0  3.996647  0
C  C116  1  0.12701805  0.97366631  0.03440398  1  -0.04634  0  -0.021522  0.00736  0  3.951953  0
C  C117  1  0.94305056  0.84772339  0.15142963  1  -0.043923  0  -0.084288  -0.129274  0  3.932625  0
C  C118  1  0.93709298  0.92278147  0.07955983  1  0.05681  0  -0.010029  0.046215  0  4.019955  0
C  C119  1  0.86886927  0.96096567  0.04536502  1  -0.064437  0  -0.023483  0.005709  0  3.95171  0
C  C120  1  0.93074135  0.14564234  0.85333935  1  -0.001798  0  -0.082329  -0.131171  0  3.912813  0
C  C121  1  0.93032474  0.07403450  0.92936679  1  0.075719  0  -0.007562  0.048291  0  3.996341  0
C  C122  1  0.86490417  0.03406410  0.97403595  1  -0.073447  0  -0.021706  0.00751  0  3.951567  0
C  C123  1  0.05783812  0.15105341  0.84804786  1  0.011542  0  -0.084416  -0.129814  0  3.9317  0
C  C124  1  0.06058712  0.07918782  0.92310953  1  0.030777  0  -0.009984  0.045739  0  4.019558  0
C  C125  1  0.12483345  0.04498317  0.96129257  1  -0.044945  0  -0.023685  0.006198  0  3.951657  0
C  C126  1  0.00896600  0.81319507  0.18390329  1  0.00507  0  -0.018651  -0.030604  0  3.993842  0
C  C127  1  0.99993009  0.96414131  0.03919631  1  -0.022513  0  0.005863  0.015389  0  3.910654  0
C  C128  1  0.99397423  0.18352577  0.81351236  1  -0.01434  0  -0.018654  -0.03033  0  3.9925  0
C  C129  1  0.99673216  0.03885196  0.96446775  1  -0.075231  0  0.006096  0.016164  0  3.910207  0
C  C130  1  0.31012957  0.49516873  0.51075574  1  0.007614  0  -0.019274  -0.081734  0  3.969172  0
C  C131  1  0.68394141  0.51038234  0.49554353  1  0.010833  0  -0.019312  -0.083397  0  3.969914  0
C  C132  1  0.34375072  0.43825353  0.57859248  1  -0.055321  0  -0.00772  -0.058063  0  3.984825  0
C  C133  1  0.41449928  0.44462467  0.57672022  1  -0.023178  0  -0.080129  -0.150928  0  3.928598  0
C  C134  1  0.63938180  0.57821526  0.43864991  1  -0.040457  0  -0.007182  -0.055725  0  3.983757  0
C  C135  1  0.56412678  0.57635936  0.44503941  1  -0.019408  0  -0.079705  -0.150501  0  3.928815  0
C  C136  1  0.65168732  0.44238847  0.55682530  1  -0.023731  0  -0.075421  -0.063743  0  3.964388  0
C  C137  1  0.57869440  0.43981781  0.56038175  1  -0.069793  0  -0.080423  -0.118688  0  3.947054  0
C  C138  1  0.34909045  0.55645171  0.44278279  1  0.030777  0  -0.075029  -0.063712  0  3.964849  0
C  C139  1  0.42108176  0.56002598  0.44021363  1  -0.066793  0  -0.080728  -0.118648  0  3.946463  0
C  C140  1  0.45562706  0.50406340  0.50723441  1  0.001468  0  0.00494  0.085227  0  3.979278  0
C  C141  1  0.53306839  0.50685788  0.50445299  1  -0.032336  0  0.004022  0.083585  0  3.979975  0
C  C142  1  0.30748761  0.64482664  0.17079742  1  1.545679  0  0.234711  0.587661  0  4.118779  0
C  C143  1  0.65028055  0.39765790  0.78770471  1  1.549514  0  0.235417  0.589535  0  4.120653  0
C  C144  1  0.16426627  0.78739532  0.39798465  1  1.552054  0  0.235399  0.589414  0  4.119489  0
C  C145  1  0.87689611  0.17042968  0.64521576  1  1.581298  0  0.234671  0.588213  0  4.120184  0
C  C146  1  0.29742948  0.16061811  0.38547720  1  1.554303  0  0.23535  0.588542  0  4.117956  0
C  C147  1  0.66681641  0.80027193  0.65065484  1  1.540702  0  0.235005  0.588774  0  4.116366  0
C  C148  1  0.88229899  0.65045427  0.80050224  1  1.561882  0  0.235147  0.588928  0  4.117748  0
C  C149  1  0.15649128  0.38507901  0.16097350  1  1.548729  0  0.235471  0.588861  0  4.117888  0
C  C150  1  0.30781002  0.36997709  0.65626613  1  1.544579  0  0.235877  0.592232  0  4.109731  0
C  C151  1  0.66586871  0.65591304  0.37040043  1  1.555433  0  0.234035  0.589271  0  4.110554  0
Br  Br152  1  0.20551239  0.10274885  0.90834734  1  -0.028051  0  0.039509  -0.039096  0  1.46611  0
Br  Br153  1  0.20817042  0.93234516  0.08710523  1  -0.003013  0  0.051958  -0.018615  0  1.534569  0
Br  Br154  1  0.77232387  0.08677580  0.93277372  1  -0.007837  0  0.052023  -0.018675  0  1.534176  0
Br  Br155  1  0.78335063  0.90802767  0.10316116  1  -0.034189  0  0.039483  -0.039037  0  1.466102  0
O  O156  1  0.78825972  0.44762009  0.69588177  1  -1.182055  0  -0.352067  -0.621421  0  2.331397  0
O  O157  1  0.06822907  0.69554865  0.44794242  1  -1.178872  0  -0.351608  -0.621062  0  2.331583  0
O  O158  1  0.20628164  0.55704219  0.29575792  1  -1.17201  0  -0.347892  -0.616593  0  2.331191  0
O  O159  1  0.94088663  0.29542218  0.55739597  1  -1.176383  0  -0.348099  -0.616231  0  2.332459  0
O  O160  1  0.05505947  0.29055508  0.70193531  1  -1.179989  0  -0.361508  -0.617136  0  2.303519  0
O  O161  1  0.79459523  0.56841206  0.43574381  1  -1.178601  0  -0.348906  -0.618353  0  2.309639  0
O  O162  1  0.95245833  0.70159305  0.29092197  1  -1.17837  0  -0.361787  -0.616914  0  2.30391  0
O  O163  1  0.20118243  0.43545102  0.56878798  1  -1.174108  0  -0.348919  -0.618218  0  2.310301  0
O  O164  1  0.94263135  0.55830009  0.70298882  1  -1.178091  0  -0.352429  -0.622964  0  2.334308  0
O  O165  1  0.19777832  0.28827521  0.44791167  1  -1.182241  0  -0.348881  -0.617842  0  2.333342  0
O  O166  1  0.06597495  0.44756835  0.28865155  1  -1.192313  0  -0.349108  -0.617726  0  2.332812  0
O  O167  1  0.79606907  0.70270621  0.55860163  1  -1.189037  0  -0.352406  -0.623582  0  2.333609  0
O  O168  1  0.20033606  0.28766320  0.56584829  1  -1.180591  0  -0.350408  -0.609013  0  2.279619  0
O  O169  1  0.94610197  0.56552866  0.28799816  1  -1.184071  0  -0.350521  -0.608624  0  2.279597  0
O  O170  1  0.79869550  0.70747389  0.43616516  1  -1.176514  0  -0.349415  -0.603595  0  2.271326  0
O  O171  1  0.05765019  0.43586743  0.70779471  1  -1.178719  0  -0.349292  -0.602401  0  2.271979  0
O  O172  1  0.93341016  0.29387718  0.70414446  1  -1.172657  0  -0.348898  -0.605986  0  2.260221  0
O  O173  1  0.20605797  0.55280977  0.44679450  1  -1.179708  0  -0.354015  -0.606935  0  2.30568  0
O  O174  1  0.06855864  0.70382203  0.29424652  1  -1.173881  0  -0.348449  -0.605723  0  2.261222  0
O  O175  1  0.79434597  0.44644785  0.55313610  1  -1.181941  0  -0.353986  -0.60704  0  2.305627  0
O  O176  1  0.05860132  0.29700972  0.43671950  1  -1.177824  0  -0.354248  -0.609137  0  2.29509  0
O  O177  1  0.79285705  0.56189090  0.70065323  1  -1.16691  0  -0.351877  -0.605969  0  2.293198  0
O  O178  1  0.94458662  0.70032439  0.56222244  1  -1.174291  0  -0.351502  -0.605714  0  2.293455  0
O  O179  1  0.20767872  0.43635982  0.29733771  1  -1.176838  0  -0.354513  -0.609498  0  2.294117  0
O  O180  1  0.94860259  0.45107727  0.44351836  1  -1.237809  0  -0.695429  -1.070175  0  2.38078  0
O  O181  1  0.15680675  0.44318196  0.45139851  1  -1.234135  0  -0.695648  -1.07026  0  2.38084  0
O  O182  1  0.95239016  0.65597808  0.44694262  1  -1.238644  0  -0.695389  -1.072558  0  2.376707  0
O  O183  1  0.94467880  0.44660651  0.65632978  1  -1.235252  0  -0.695515  -1.072678  0  2.374752  0
O  O184  1  0.03922483  0.53489384  0.54033840  1  -1.198929  0  -0.789929  -1.146746  0  2.119459  0
O  O185  1  0.88550811  0.54000432  0.53523562  1  -1.198007  0  -0.789838  -1.147527  0  2.120572  0
O  O186  1  0.04187626  0.53806887  0.38399713  1  -1.199176  0  -0.790579  -1.14834  0  2.124561  0
O  O187  1  0.03604025  0.38365233  0.53841269  1  -1.197751  0  -0.790836  -1.148378  0  2.123499  0
O  O188  1  0.33473715  0.63711061  0.22890287  1  -1.098715  0  -0.333842  -0.468365  0  2.232854  0
O  O189  1  0.26111165  0.71333384  0.13731602  1  -1.110442  0  -0.266107  -0.435241  0  2.123172  0
O  O190  1  0.70669444  0.31645910  0.80430305  1  -1.105616  0  -0.332113  -0.473489  0  2.269726  0
O  O191  1  0.60851278  0.42192143  0.74346667  1  -1.106007  0  -0.271741  -0.440045  0  2.068111  0
O  O192  1  0.17249053  0.80394091  0.31677154  1  -1.096356  0  -0.332049  -0.473723  0  2.268935  0
O  O193  1  0.22595210  0.74313215  0.42231042  1  -1.113875  0  -0.271661  -0.439463  0  2.068655  0
O  O194  1  0.79926888  0.22856469  0.63754176  1  -1.108902  0  -0.333398  -0.468484  0  2.234333  0
O  O195  1  0.88831012  0.13687178  0.71370199  1  -1.111661  0  -0.266355  -0.436039  0  2.123918  0
O  O196  1  0.31874413  0.22274070  0.30830897  1  -1.079785  0  -0.331624  -0.468106  0  2.242008  0
O  O197  1  0.25560075  0.12166445  0.39762627  1  -1.104283  0  -0.2702  -0.437571  0  2.065654  0
O  O198  1  0.72864131  0.82251531  0.64299909  1  -1.095667  0  -0.333908  -0.471088  0  2.239679  0
O  O199  1  0.62818202  0.75867931  0.72027923  1  -1.107765  0  -0.271898  -0.439184  0  2.065344  0
O  O200  1  0.80587452  0.64278699  0.82278837  1  -1.114969  0  -0.333698  -0.471318  0  2.240738  0
O  O201  1  0.89289247  0.72008297  0.75888017  1  -1.110652  0  -0.271731  -0.439257  0  2.06609  0
O  O202  1  0.15007522  0.30795933  0.22310896  1  -1.084662  0  -0.332401  -0.46982  0  2.241545  0
O  O203  1  0.22518865  0.39709242  0.12205720  1  -1.114944  0  -0.269967  -0.437734  0  2.065886  0
O  O204  1  0.33163173  0.29519927  0.64425716  1  -1.097811  0  -0.341856  -0.485308  0  2.229313  0
O  O205  1  0.26777348  0.37507840  0.72775031  1  -1.11101  0  -0.2733  -0.441176  0  2.057745  0
O  O206  1  0.72888859  0.64395839  0.29560704  1  -1.088686  0  -0.341467  -0.485714  0  2.228718  0
O  O207  1  0.62922982  0.72740922  0.37547984  1  -1.117267  0  -0.272541  -0.440002  0  2.057939  0
