# generated using pymatgen
data_ZnH13C17NClO4
_symmetry_space_group_name_H-M   'P 1'
_cell_length_a   11.56727275
_cell_length_b   11.56726613
_cell_length_c   14.57278353
_cell_angle_alpha   68.87497706
_cell_angle_beta   68.87507818
_cell_angle_gamma   68.06940338
_symmetry_Int_Tables_number   1
_chemical_formula_structural   ZnH13C17NClO4
_chemical_formula_sum   'Zn4 H52 C68 N4 Cl4 O16'
_cell_volume   1628.75241371
_cell_formula_units_Z   4
loop_
 _symmetry_equiv_pos_site_id
 _symmetry_equiv_pos_as_xyz
  1  'x, y, z'
loop_
 _atom_site_type_symbol
 _atom_site_label
 _atom_site_symmetry_multiplicity
 _atom_site_fract_x
 _atom_site_fract_y
 _atom_site_fract_z
 _atom_site_occupancy
 _atom_site_hle17_bader_spin_density
 _atom_site_hle17_ddec_charge
 _atom_site_hle17_ddec_spin_density
 _atom_site_hle17_ddec_sum_bond_order
 _atom_site_hle17_magmom
 _atom_site_hse06_10hf_bader_spin_density
 _atom_site_hse06_10hf_ddec_charge
 _atom_site_hse06_10hf_ddec_spin_density
 _atom_site_hse06_10hf_ddec_sum_bond_order
 _atom_site_hse06_10hf_magmom
 _atom_site_hse06_bader_spin_density
 _atom_site_hse06_ddec_charge
 _atom_site_hse06_ddec_spin_density
 _atom_site_hse06_ddec_sum_bond_order
 _atom_site_hse06_magmom
 _atom_site_pbe_bader_spin_density
 _atom_site_pbe_cm5_charge
 _atom_site_pbe_ddec_charge
 _atom_site_pbe_ddec_spin_density
 _atom_site_pbe_ddec_sum_bond_order
 _atom_site_pbe_magmom
Zn  Zn0  1  0.26605833  0.62977043  0.82013360  1  0  1.037666  0  1.883023  0  0  0.868667  0  2.353629  0  0  0.920714  0  2.288137  0  0  0.673028  0.832424  0  2.398488  0
Zn  Zn1  1  0.62976898  0.26605845  0.32013411  1  0  1.037652  0  1.883043  0  0  0.868648  0  2.353647  0  0  0.920696  0  2.288156  0  0  0.673018  0.832406  0  2.398516  0
Zn  Zn2  1  0.99532498  0.63353039  0.90014174  1  0  1.036086  0  1.878777  0  0  0.865735  0  2.349471  0  0  0.918469  0  2.283561  0  0  0.670402  0.828965  0  2.394618  0
Zn  Zn3  1  0.63353045  0.99532537  0.40014134  1  0  1.03612  0  1.878731  0  0  0.865767  0  2.349419  0  0  0.918501  0  2.283508  0  0  0.670421  0.828995  0  2.394577  0
H  H4  1  0.52154431  0.43381582  0.82042569  1  0  0.084132  0  0.938171  0  0  0.093192  0  1.001444  0  0  0.09498  0  1.000348  0  0  0.117707  0.091676  0  1.002619  0
H  H5  1  0.43381577  0.52154543  0.32042389  1  0  0.084116  0  0.938167  0  0  0.093174  0  1.001444  0  0  0.094961  0  1.000349  0  0  0.117699  0.091659  0  1.002627  0
H  H6  1  0.75344225  0.42989820  0.75113322  1  0  0.101913  0  0.955571  0  0  0.115602  0  1.011139  0  0  0.117725  0  1.01209  0  0  0.10451  0.113994  0  1.010804  0
H  H7  1  0.42989712  0.75344384  0.25113213  1  0  0.101917  0  0.955547  0  0  0.115602  0  1.011131  0  0  0.117725  0  1.012082  0  0  0.104514  0.113993  0  1.010795  0
H  H8  1  0.62929750  0.84636382  0.65247636  1  0  0.117739  0  0.95703  0  0  0.126057  0  1.020849  0  0  0.129228  0  1.019933  0  0  0.104793  0.123508  0  1.02218  0
H  H9  1  0.84636364  0.62929834  0.15247691  1  0  0.117747  0  0.95701  0  0  0.126066  0  1.020824  0  0  0.129236  0  1.019909  0  0  0.104797  0.123515  0  1.022157  0
H  H10  1  0.40225345  0.83352094  0.72766521  1  0  0.091052  0  0.917274  0  0  0.102201  0  0.974557  0  0  0.104652  0  0.972041  0  0  0.123987  0.100289  0  0.976542  0
H  H11  1  0.83352039  0.40225362  0.22766480  1  0  0.091052  0  0.917277  0  0  0.102211  0  0.974552  0  0  0.104663  0  0.972035  0  0  0.123989  0.100295  0  0.976538  0
H  H12  1  0.83954692  0.44270365  0.99813142  1  0  0.080096  0  0.943493  0  0  0.090581  0  1.006131  0  0  0.09252  0  1.003862  0  0  0.118667  0.089074  0  1.007868  0
H  H13  1  0.44270472  0.83954752  0.49813270  1  0  0.080081  0  0.943542  0  0  0.090564  0  1.006183  0  0  0.092503  0  1.003915  0  0  0.118646  0.089061  0  1.007918  0
H  H14  1  0.60764686  0.44796866  0.05591681  1  0  0.121799  0  0.930795  0  0  0.135471  0  0.983683  0  0  0.138446  0  0.983214  0  0  0.112873  0.133202  0  0.984438  0
H  H15  1  0.44796875  0.60764861  0.55591557  1  0  0.121751  0  0.930777  0  0  0.135431  0  0.983672  0  0  0.138406  0  0.983203  0  0  0.112861  0.133163  0  0.984425  0
H  H16  1  0.75466003  0.83854991  0.87589228  1  0  0.085725  0  0.942767  0  0  0.09273  0  1.008855  0  0  0.09497  0  1.006868  0  0  0.116792  0.09101  0  1.010363  0
H  H17  1  0.83854989  0.75465966  0.37589168  1  0  0.085725  0  0.94277  0  0  0.092732  0  1.008852  0  0  0.094972  0  1.006866  0  0  0.116791  0.091008  0  1.01036  0
H  H18  1  0.51780531  0.86128696  0.92798102  1  0  0.095765  0  0.990712  0  0  0.100605  0  1.061421  0  0  0.103785  0  1.060773  0  0  0.094576  0.098327  0  1.06197  0
H  H19  1  0.86128786  0.51780398  0.42798126  1  0  0.095764  0  0.990688  0  0  0.100604  0  1.0614  0  0  0.103782  0  1.060754  0  0  0.09456  0.098325  0  1.061943  0
H  H20  1  0.37662640  0.60318726  0.00699198  1  0  0.137478  0  0.956932  0  0  0.155874  0  1.021174  0  0  0.157743  0  1.020467  0  0  0.097027  0.154421  0  1.021825  0
H  H21  1  0.60318620  0.37662611  0.50699257  1  0  0.137447  0  0.956957  0  0  0.155849  0  1.0212  0  0  0.157719  0  1.020492  0  0  0.097021  0.154395  0  1.021854  0
H  H22  1  0.34159110  0.76540644  0.00923413  1  0  0.119153  0  0.939609  0  0  0.140252  0  0.997912  0  0  0.141853  0  0.997485  0  0  0.091725  0.13913  0  0.998123  0
H  H23  1  0.76540577  0.34159122  0.50923461  1  0  0.119146  0  0.939625  0  0  0.140242  0  0.997931  0  0  0.141844  0  0.997504  0  0  0.091728  0.13912  0  0.998139  0
H  H24  1  0.37111508  0.63575457  0.11814669  1  0  0.112093  0  0.949988  0  0  0.131766  0  1.015685  0  0  0.132346  0  1.01671  0  0  0.090928  0.131335  0  1.015015  0
H  H25  1  0.63575413  0.37111532  0.61814629  1  0  0.112076  0  0.950026  0  0  0.131754  0  1.015722  0  0  0.132333  0  1.016747  0  0  0.090914  0.131323  0  1.015049  0
H  H26  1  0.85897704  0.72498582  0.58376681  1  0  0.122937  0  0.950834  0  0  0.143391  0  1.011893  0  0  0.144788  0  1.011885  0  0  0.095111  0.142333  0  1.011943  0
H  H27  1  0.72498673  0.85897786  0.08376754  1  0  0.122942  0  0.950826  0  0  0.143372  0  1.011911  0  0  0.144775  0  1.011897  0  0  0.095106  0.142313  0  1.011967  0
H  H28  1  0.91085931  0.55306117  0.62522480  1  0  0.111687  0  0.950334  0  0  0.131834  0  1.013325  0  0  0.13271  0  1.014189  0  0  0.090117  0.131178  0  1.012718  0
H  H29  1  0.55306128  0.91085922  0.12522452  1  0  0.111634  0  0.950281  0  0  0.131776  0  1.013287  0  0  0.132653  0  1.014151  0  0  0.090088  0.13112  0  1.012677  0
H  H30  1  0.88938121  0.64698960  0.70572181  1  0  0.137664  0  0.935725  0  0  0.158671  0  0.994653  0  0  0.159941  0  0.994931  0  0  0.099914  0.157662  0  0.994627  0
H  H31  1  0.64698848  0.88938166  0.20572248  1  0  0.137659  0  0.935699  0  0  0.158664  0  0.994633  0  0  0.159932  0  0.994912  0  0  0.099902  0.157655  0  0.994605  0
H  H32  1  0.89624663  0.87500255  0.11468486  1  0  0.101232  0  0.971177  0  0  0.105799  0  1.045743  0  0  0.110053  0  1.041808  0  0  0.101042  0.102667  0  1.048669  0
H  H33  1  0.87500275  0.89624631  0.61468496  1  0  0.101235  0  0.971163  0  0  0.105807  0  1.045714  0  0  0.110062  0  1.04178  0  0  0.101042  0.102675  0  1.048639  0
H  H34  1  0.18672722  0.01073988  0.85637683  1  0  0.102075  0  0.948516  0  0  0.110642  0  1.011339  0  0  0.114344  0  1.008676  0  0  0.101236  0.107887  0  1.013417  0
H  H35  1  0.01073948  0.18672710  0.35637681  1  0  0.102065  0  0.948516  0  0  0.110633  0  1.011336  0  0  0.114334  0  1.008674  0  0  0.101229  0.107876  0  1.013417  0
H  H36  1  0.12159254  0.21439936  0.90921656  1  0  0.092335  0  0.970667  0  0  0.101984  0  1.031905  0  0  0.104219  0  1.032236  0  0  0.095785  0.100259  0  1.032076  0
H  H37  1  0.21439963  0.12159273  0.40921641  1  0  0.092347  0  0.970705  0  0  0.10199  0  1.031951  0  0  0.104224  0  1.032283  0  0  0.095789  0.100261  0  1.032123  0
H  H38  1  0.93763633  0.24861140  0.06200817  1  0  0.097649  0  0.961413  0  0  0.107056  0  1.025035  0  0  0.110848  0  1.021362  0  0  0.104648  0.10428  0  1.027823  0
H  H39  1  0.24861104  0.93763700  0.56200776  1  0  0.097674  0  0.961379  0  0  0.10708  0  1.025004  0  0  0.110871  0  1.021332  0  0  0.104643  0.1043  0  1.027794  0
H  H40  1  0.34326565  0.40389548  0.13456462  1  0  0.107  0  0.950554  0  0  0.113153  0  1.021511  0  0  0.117314  0  1.017752  0  0  0.10375  0.110183  0  1.024192  0
H  H41  1  0.40389515  0.34326613  0.63456468  1  0  0.106968  0  0.95058  0  0  0.11312  0  1.021537  0  0  0.117283  0  1.017776  0  0  0.10375  0.110155  0  1.024221  0
H  H42  1  0.36902834  0.00186464  0.27312573  1  0  0.097436  0  0.953138  0  0  0.107413  0  1.015033  0  0  0.111195  0  1.011983  0  0  0.10354  0.104635  0  1.017331  0
H  H43  1  0.00186472  0.36902811  0.77312563  1  0  0.097394  0  0.953085  0  0  0.107375  0  1.014979  0  0  0.111157  0  1.01193  0  0  0.103515  0.104596  0  1.017278  0
H  H44  1  0.20566075  0.01880870  0.18918395  1  0  0.086631  0  0.951737  0  0  0.099859  0  1.008116  0  0  0.102698  0  1.007478  0  0  0.098739  0.097901  0  1.008546  0
H  H45  1  0.01880931  0.20566105  0.68918366  1  0  0.086645  0  0.95173  0  0  0.099873  0  1.008107  0  0  0.102712  0  1.00747  0  0  0.098742  0.097914  0  1.008538  0
H  H46  1  0.11108165  0.23155423  0.08065611  1  0  0.087698  0  1.003467  0  0  0.096579  0  1.070466  0  0  0.099034  0  1.069083  0  0  0.097627  0.094777  0  1.071565  0
H  H47  1  0.23155483  0.11108155  0.58065611  1  0  0.087644  0  1.003523  0  0  0.096545  0  1.070506  0  0  0.098998  0  1.069126  0  0  0.097611  0.094742  0  1.0716  0
H  H48  1  0.10072799  0.84535488  0.22517347  1  0  0.111484  0  0.946677  0  0  0.121177  0  1.007418  0  0  0.12387  0  1.006518  0  0  0.105386  0.119369  0  1.008  0
H  H49  1  0.84535564  0.10072799  0.72517306  1  0  0.111487  0  0.946657  0  0  0.121178  0  1.007405  0  0  0.123874  0  1.006493  0  0  0.105398  0.11937  0  1.007985  0
H  H50  1  0.18701117  0.46895811  0.51963614  1  0  0.105115  0  0.991006  0  0  0.113039  0  1.05583  0  0  0.114285  0  1.057839  0  0  0.100448  0.112217  0  1.054431  0
H  H51  1  0.46895964  0.18700863  0.01963583  1  0  0.105144  0  0.990998  0  0  0.113062  0  1.055831  0  0  0.11431  0  1.057833  0  0  0.100459  0.112239  0  1.054429  0
H  H52  1  0.20475688  0.68067769  0.51179310  1  0  0.101797  0  0.943254  0  0  0.11256  0  1.000092  0  0  0.115204  0  0.999383  0  0  0.105366  0.110689  0  1.000778  0
H  H53  1  0.68067721  0.20475826  0.01179236  1  0  0.101807  0  0.943283  0  0  0.112562  0  1.000117  0  0  0.115207  0  0.999406  0  0  0.105363  0.110686  0  1.000805  0
H  H54  1  0.15928818  0.87032944  0.36499242  1  0  0.091086  0  0.967962  0  0  0.100878  0  1.031439  0  0  0.102287  0  1.032748  0  0  0.100215  0.099863  0  1.030509  0
H  H55  1  0.87032883  0.15929219  0.86499056  1  0  0.091107  0  0.96794  0  0  0.100896  0  1.031412  0  0  0.102304  0  1.032723  0  0  0.100227  0.099877  0  1.030487  0
C  C56  1  0.55008059  0.52302416  0.78311806  1  0  0.135509  0  3.704702  0  0  0.102986  0  3.956509  0  0  0.110976  0  3.975232  0  0  0.048223  0.097846  0  3.944109  0
C  C57  1  0.52302390  0.55008122  0.28311718  1  0  0.135574  0  3.704758  0  0  0.10304  0  3.95657  0  0  0.111029  0  3.975294  0  0  0.048241  0.097894  0  3.944182  0
C  C58  1  0.67897247  0.52213064  0.74427416  1  0  -0.188605  0  3.716714  0  0  -0.203401  0  3.956556  0  0  -0.212874  0  3.979935  0  0  -0.086022  -0.197463  0  3.941218  0
C  C59  1  0.52213074  0.67897204  0.24427409  1  0  -0.18864  0  3.716704  0  0  -0.203461  0  3.956541  0  0  -0.212933  0  3.979919  0  0  -0.086036  -0.197513  0  3.9412  0
C  C60  1  0.71220703  0.63861247  0.69505576  1  0  0.213531  0  3.715381  0  0  0.234038  0  3.950402  0  0  0.240456  0  3.972342  0  0  0.019517  0.229777  0  3.935379  0
C  C61  1  0.63861289  0.71220708  0.19505551  1  0  0.213437  0  3.715413  0  0  0.234011  0  3.950343  0  0  0.240428  0  3.972286  0  0  0.019483  0.229744  0  3.935326  0
C  C62  1  0.61024570  0.75266533  0.69031151  1  0  -0.178814  0  3.69069  0  0  -0.198245  0  3.940034  0  0  -0.207284  0  3.962501  0  0  -0.084015  -0.192416  0  3.925353  0
C  C63  1  0.75266464  0.61024577  0.19031170  1  0  -0.178773  0  3.690718  0  0  -0.198223  0  3.940048  0  0  -0.207263  0  3.962517  0  0  -0.084007  -0.192393  0  3.925362  0
C  C64  1  0.48346662  0.74652218  0.73126548  1  0  0.140752  0  3.693334  0  0  0.107434  0  3.948035  0  0  0.115356  0  3.966155  0  0  0.052117  0.102478  0  3.935566  0
C  C65  1  0.74652124  0.48346746  0.23126490  1  0  0.140741  0  3.693298  0  0  0.107404  0  3.948001  0  0  0.115324  0  3.966122  0  0  0.052112  0.102456  0  3.935519  0
C  C66  1  0.76467198  0.53334086  0.98402213  1  0  0.133413  0  3.717496  0  0  0.100478  0  3.972006  0  0  0.108187  0  3.991401  0  0  0.048376  0.095557  0  3.958872  0
C  C67  1  0.53334166  0.76467139  0.48402255  1  0  0.133421  0  3.717513  0  0  0.10049  0  3.972011  0  0  0.108199  0  3.991406  0  0  0.048395  0.095562  0  3.958884  0
C  C68  1  0.63513121  0.53741302  0.01549413  1  0  -0.18066  0  3.691254  0  0  -0.199727  0  3.937881  0  0  -0.208811  0  3.960473  0  0  -0.083801  -0.194038  0  3.923002  0
C  C69  1  0.53741337  0.63513334  0.51549276  1  0  -0.180566  0  3.691154  0  0  -0.199644  0  3.937793  0  0  -0.208728  0  3.960387  0  0  -0.083772  -0.193953  0  3.922917  0
C  C70  1  0.54135787  0.65661208  0.99769027  1  0  0.213435  0  3.721634  0  0  0.235789  0  3.953861  0  0  0.242215  0  3.976083  0  0  0.019923  0.231653  0  3.938568  0
C  C71  1  0.65661307  0.54135723  0.49768879  1  0  0.213418  0  3.721684  0  0  0.235777  0  3.953915  0  0  0.242203  0  3.976138  0  0  0.019945  0.23164  0  3.938623  0
C  C72  1  0.71713921  0.75495365  0.91621194  1  0  0.141876  0  3.689703  0  0  0.11004  0  3.940086  0  0  0.118395  0  3.95837  0  0  0.049059  0.104656  0  3.927634  0
C  C73  1  0.75495414  0.71713825  0.41621202  1  0  0.141909  0  3.689722  0  0  0.110075  0  3.940098  0  0  0.118431  0  3.958382  0  0  0.049088  0.104696  0  3.927639  0
C  C74  1  0.45589362  0.18875611  0.26631422  1  0  0.65823  0  3.893634  0  0  0.608635  0  4.180178  0  0  0.643899  0  4.173398  0  0  0.209341  0.584724  0  4.183879  0
C  C75  1  0.18875605  0.45589338  0.76631491  1  0  0.658131  0  3.89372  0  0  0.608546  0  4.180288  0  0  0.643807  0  4.173509  0  0  0.209305  0.584621  0  4.184003  0
C  C76  1  0.07506165  0.81770960  0.94143247  1  0  0.662313  0  3.886221  0  0  0.611024  0  4.174109  0  0  0.646595  0  4.166778  0  0  0.211898  0.586971  0  4.178204  0
C  C77  1  0.81770931  0.07506067  0.44143250  1  0  0.662348  0  3.886189  0  0  0.611058  0  4.174066  0  0  0.646629  0  4.166735  0  0  0.211912  0.587001  0  4.178164  0
C  C78  1  0.80519243  0.08505039  0.19374987  1  0  0.660853  0  3.893892  0  0  0.610203  0  4.181095  0  0  0.645464  0  4.174006  0  0  0.211096  0.5863  0  4.185197  0
C  C79  1  0.08505156  0.80519144  0.69374948  1  0  0.660762  0  3.893954  0  0  0.610128  0  4.181149  0  0  0.64539  0  4.174061  0  0  0.211067  0.586228  0  4.185247  0
C  C80  1  0.90879715  0.06284837  0.09895071  1  0  -0.068366  0  3.768417  0  0  -0.040763  0  3.99935  0  0  -0.049847  0  4.022218  0  0  -0.019834  -0.03497  0  3.984031  0
C  C81  1  0.06284809  0.90879704  0.59895042  1  0  -0.068339  0  3.768462  0  0  -0.040742  0  3.99939  0  0  -0.049829  0  4.022263  0  0  -0.019833  -0.034954  0  3.984072  0
C  C82  1  0.17577154  0.44939236  0.02152584  1  0  0.66348  0  3.888479  0  0  0.61018  0  4.181737  0  0  0.645826  0  4.173944  0  0  0.210575  0.585976  0  4.186229  0
C  C83  1  0.44939278  0.17577132  0.52152463  1  0  0.663467  0  3.888556  0  0  0.61019  0  4.18179  0  0  0.645837  0  4.173993  0  0  0.210573  0.585991  0  4.186275  0
C  C84  1  0.22232147  0.32974819  0.09927111  1  0  -0.065169  0  3.762189  0  0  -0.040499  0  3.999817  0  0  -0.049357  0  4.021276  0  0  -0.018699  -0.034932  0  3.98545  0
C  C85  1  0.32974861  0.22232157  0.59927178  1  0  -0.065227  0  3.76223  0  0  -0.040582  0  3.999887  0  0  -0.04944  0  4.021344  0  0  -0.018743  -0.03501  0  3.985517  0
C  C86  1  0.58587362  0.76633103  0.94541469  1  0  -0.186217  0  3.710222  0  0  -0.199682  0  3.950361  0  0  -0.209538  0  3.973268  0  0  -0.088397  -0.193177  0  3.934942  0
C  C87  1  0.76633039  0.58587474  0.44541458  1  0  -0.18622  0  3.710338  0  0  -0.199696  0  3.950486  0  0  -0.209551  0  3.973394  0  0  -0.088387  -0.193191  0  3.935059  0
C  C88  1  0.40030496  0.66643535  0.03434406  1  0  -0.357066  0  3.696486  0  0  -0.437274  0  3.928222  0  0  -0.440172  0  3.936291  0  0  -0.242859  -0.434939  0  3.922564  0
C  C89  1  0.66643503  0.40030507  0.53434365  1  0  -0.356997  0  3.696595  0  0  -0.437214  0  3.928322  0  0  -0.440113  0  3.936394  0  0  -0.242842  -0.434875  0  3.92266  0
C  C90  1  0.85002459  0.64112141  0.64954803  1  0  -0.354437  0  3.681692  0  0  -0.43386  0  3.911467  0  0  -0.437074  0  3.920165  0  0  -0.240218  -0.431259  0  3.90541  0
C  C91  1  0.64112154  0.85002488  0.14954772  1  0  -0.35434  0  3.681587  0  0  -0.433753  0  3.911339  0  0  -0.436972  0  3.920033  0  0  -0.240164  -0.431153  0  3.905285  0
C  C92  1  0.04298279  0.93249963  0.98034592  1  0  -0.07181  0  3.763092  0  0  -0.045753  0  3.997153  0  0  -0.054754  0  4.01958  0  0  -0.020894  -0.04008  0  3.982002  0
C  C93  1  0.93249918  0.04298297  0.48034574  1  0  -0.071934  0  3.763174  0  0  -0.045878  0  3.99724  0  0  -0.054879  0  4.019665  0  0  -0.020921  -0.040204  0  3.982087  0
C  C94  1  0.94497632  0.94951644  0.06923036  1  0  -0.076785  0  3.716784  0  0  -0.115951  0  3.969972  0  0  -0.1128  0  3.987687  0  0  -0.079462  -0.117659  0  3.958038  0
C  C95  1  0.94951634  0.94497591  0.56923059  1  0  -0.076746  0  3.716797  0  0  -0.115912  0  3.969989  0  0  -0.112762  0  3.987707  0  0  -0.07947  -0.117624  0  3.958055  0
C  C96  1  0.10897916  0.02658823  0.92421086  1  0  -0.065603  0  3.728682  0  0  -0.093013  0  3.977191  0  0  -0.090903  0  3.995476  0  0  -0.084464  -0.094116  0  3.964898  0
C  C97  1  0.02658792  0.10897993  0.42421061  1  0  -0.065576  0  3.728682  0  0  -0.092987  0  3.977185  0  0  -0.090876  0  3.99547  0  0  -0.084463  -0.094089  0  3.964892  0
C  C98  1  0.07197671  0.14020982  0.95341857  1  0  -0.086517  0  3.789512  0  0  -0.096442  0  4.042987  0  0  -0.101029  0  4.065293  0  0  -0.098509  -0.093709  0  4.028366  0
C  C99  1  0.14020960  0.07197832  0.45341814  1  0  -0.086473  0  3.789437  0  0  -0.09639  0  4.042897  0  0  -0.100976  0  4.065204  0  0  -0.098481  -0.093654  0  4.028272  0
C  C100  1  0.97013878  0.15956540  0.03888167  1  0  -0.068512  0  3.734562  0  0  -0.093396  0  3.979422  0  0  -0.09176  0  3.997968  0  0  -0.08395  -0.09418  0  3.966887  0
C  C101  1  0.15956466  0.97013906  0.53888210  1  0  -0.068568  0  3.734519  0  0  -0.093455  0  3.979388  0  0  -0.091819  0  3.997934  0  0  -0.083958  -0.094233  0  3.966847  0
C  C102  1  0.36222399  0.20234143  0.21138309  1  0  -0.080846  0  3.761198  0  0  -0.055564  0  3.996601  0  0  -0.065037  0  4.018726  0  0  -0.024222  -0.049545  0  3.981731  0
C  C103  1  0.20234197  0.36222339  0.71138378  1  0  -0.080779  0  3.761119  0  0  -0.055565  0  3.996611  0  0  -0.065027  0  4.018723  0  0  -0.024196  -0.049536  0  3.981741  0
C  C104  1  0.31204417  0.32026002  0.14713116  1  0  -0.074923  0  3.709765  0  0  -0.114944  0  3.965894  0  0  -0.110779  0  3.981628  0  0  -0.081235  -0.117385  0  3.955233  0
C  C105  1  0.32026127  0.31204386  0.64713097  1  0  -0.074814  0  3.709692  0  0  -0.114801  0  3.96583  0  0  -0.110639  0  3.981559  0  0  -0.081192  -0.117256  0  3.955187  0
C  C106  1  0.32588695  0.09304618  0.22465535  1  0  -0.067963  0  3.752584  0  0  -0.09506  0  4.005118  0  0  -0.092469  0  4.023069  0  0  -0.083517  -0.096476  0  3.992839  0
C  C107  1  0.09304666  0.32588583  0.72465548  1  0  -0.067957  0  3.752557  0  0  -0.095039  0  4.005117  0  0  -0.09245  0  4.023065  0  0  -0.083521  -0.096452  0  3.992837  0
C  C108  1  0.23513344  0.10305794  0.17835991  1  0  -0.082857  0  3.794822  0  0  -0.093838  0  4.050698  0  0  -0.098479  0  4.071633  0  0  -0.095656  -0.090889  0  4.036369  0
C  C109  1  0.10305834  0.23513358  0.67835975  1  0  -0.082888  0  3.79481  0  0  -0.093867  0  4.050684  0  0  -0.098509  0  4.071621  0  0  -0.095658  -0.090921  0  4.036356  0
C  C110  1  0.18182707  0.22187442  0.11747823  1  0  -0.060974  0  3.742654  0  0  -0.090208  0  3.991526  0  0  -0.08762  0  4.010368  0  0  -0.085098  -0.091582  0  3.978773  0
C  C111  1  0.22187498  0.18182711  0.61747884  1  0  -0.060937  0  3.742629  0  0  -0.090179  0  3.991492  0  0  -0.087591  0  4.010335  0  0  -0.085096  -0.091548  0  3.978728  0
C  C112  1  0.11288880  0.64422001  0.29383509  1  0  0.060102  0  3.817046  0  0  0.066412  0  4.083661  0  0  0.068381  0  4.105172  0  0  0.005073  0.065061  0  4.069099  0
C  C113  1  0.64421855  0.11288878  0.79383589  1  0  0.060051  0  3.816982  0  0  0.066376  0  4.083598  0  0  0.068339  0  4.105116  0  0  0.005049  0.065018  0  4.069044  0
C  C114  1  0.13534301  0.53857260  0.37785399  1  0  0.06648  0  3.805413  0  0  0.072402  0  4.071245  0  0  0.074539  0  4.091698  0  0  0.00544  0.070882  0  4.057527  0
C  C115  1  0.53857343  0.13534230  0.87785358  1  0  0.066497  0  3.805419  0  0  0.072399  0  4.071277  0  0  0.074537  0  4.091732  0  0  0.005419  0.070871  0  4.057568  0
C  C116  1  0.12174276  0.76358116  0.28964121  1  0  -0.125602  0  3.758486  0  0  -0.148143  0  4.012969  0  0  -0.14995  0  4.031938  0  0  -0.095764  -0.146944  0  3.999879  0
C  C117  1  0.76358219  0.12174033  0.78964136  1  0  -0.125491  0  3.758381  0  0  -0.148035  0  4.012869  0  0  -0.149838  0  4.031841  0  0  -0.095717  -0.146829  0  3.999772  0
C  C118  1  0.16911432  0.55213923  0.45555742  1  0  -0.116  0  3.749347  0  0  -0.135605  0  3.996485  0  0  -0.137129  0  4.01677  0  0  -0.093563  -0.134601  0  3.982697  0
C  C119  1  0.55213804  0.16911483  0.95555653  1  0  -0.116096  0  3.749325  0  0  -0.135699  0  3.996476  0  0  -0.137222  0  4.016761  0  0  -0.093591  -0.134688  0  3.982677  0
C  C120  1  0.17914581  0.67082041  0.45047143  1  0  -0.054095  0  3.743821  0  0  -0.06896  0  3.995399  0  0  -0.070268  0  4.015158  0  0  -0.08832  -0.068033  0  3.98214  0
C  C121  1  0.67082172  0.17914684  0.95047043  1  0  -0.054017  0  3.743839  0  0  -0.068865  0  3.99538  0  0  -0.070173  0  4.015141  0  0  -0.088274  -0.067934  0  3.982114  0
C  C122  1  0.15452532  0.77670386  0.36788068  1  0  -0.06272  0  3.768217  0  0  -0.079425  0  4.023537  0  0  -0.080328  0  4.044509  0  0  -0.092761  -0.078615  0  4.009143  0
C  C123  1  0.77670446  0.15452640  0.86787926  1  0  -0.062824  0  3.768286  0  0  -0.079527  0  4.023613  0  0  -0.08043  0  4.044588  0  0  -0.0928  -0.078718  0  4.009218  0
N  N124  1  0.45327405  0.63353002  0.77605645  1  0  -0.32962  0  3.293249  0  0  -0.247821  0  3.568841  0  0  -0.268617  0  3.584027  0  0  -0.334095  -0.233822  0  3.55841  0
N  N125  1  0.63352931  0.45327381  0.27605606  1  0  -0.329628  0  3.293248  0  0  -0.247797  0  3.568813  0  0  -0.26859  0  3.583998  0  0  -0.334082  -0.233801  0  3.558386  0
N  N126  1  0.80568904  0.64026012  0.93604011  1  0  -0.331244  0  3.296338  0  0  -0.24906  0  3.570515  0  0  -0.270098  0  3.585683  0  0  -0.335382  -0.234879  0  3.560108  0
N  N127  1  0.64026095  0.80568891  0.43604043  1  0  -0.331315  0  3.29626  0  0  -0.249127  0  3.570442  0  0  -0.270165  0  3.58561  0  0  -0.335433  -0.234947  0  3.56004  0
Cl  Cl128  1  0.07351804  0.62900992  0.19618348  1  0  -0.046747  0  1.433147  0  0  -0.026295  0  1.676165  0  0  -0.030588  0  1.672465  0  0  0.03896  -0.022895  0  1.678948  0
Cl  Cl129  1  0.62900892  0.07351625  0.69618467  1  0  -0.046757  0  1.433126  0  0  -0.026311  0  1.676144  0  0  -0.030603  0  1.672446  0  0  0.038945  -0.022909  0  1.678929  0
Cl  Cl130  1  0.11934637  0.39179932  0.38792537  1  0  -0.069914  0  1.43268  0  0  -0.052171  0  1.671396  0  0  -0.056901  0  1.668198  0  0  0.024613  -0.04895  0  1.673755  0
Cl  Cl131  1  0.39179988  0.11934416  0.88792607  1  0  -0.069909  0  1.432689  0  0  -0.05216  0  1.671417  0  0  -0.05689  0  1.668218  0  0  0.024625  -0.048934  0  1.673779  0
O  O132  1  0.06151565  0.47575771  0.01473815  1  0  -0.625377  0  2.025373  0  0  -0.563015  0  2.283426  0  0  -0.591334  0  2.270761  0  0  -0.317267  -0.543288  0  2.291616  0
O  O133  1  0.47575718  0.06151589  0.51473786  1  0  -0.625344  0  2.025429  0  0  -0.562988  0  2.283473  0  0  -0.591307  0  2.270806  0  0  -0.317237  -0.543259  0  2.291658  0
O  O134  1  0.25763820  0.51253455  0.96533635  1  0  -0.639381  0  2.091542  0  0  -0.573059  0  2.358435  0  0  -0.60179  0  2.344687  0  0  -0.314534  -0.55287  0  2.367006  0
O  O135  1  0.51253438  0.25763818  0.46533648  1  0  -0.63939  0  2.091573  0  0  -0.57308  0  2.358462  0  0  -0.601813  0  2.344713  0  0  -0.314547  -0.552896  0  2.367042  0
O  O136  1  0.51040438  0.07299885  0.30878677  1  0  -0.646252  0  2.114766  0  0  -0.577799  0  2.37885  0  0  -0.607109  0  2.365665  0  0  -0.318535  -0.557204  0  2.387104  0
O  O137  1  0.07299806  0.51040345  0.80878709  1  0  -0.646245  0  2.114774  0  0  -0.577792  0  2.378852  0  0  -0.607102  0  2.365669  0  0  -0.318537  -0.557192  0  2.387106  0
O  O138  1  0.47387638  0.29029905  0.26727302  1  0  -0.623566  0  2.031368  0  0  -0.563335  0  2.286914  0  0  -0.591119  0  2.274477  0  0  -0.318335  -0.543982  0  2.29487  0
O  O139  1  0.29029659  0.47387785  0.76727396  1  0  -0.623512  0  2.031403  0  0  -0.563276  0  2.286948  0  0  -0.59106  0  2.274509  0  0  -0.318305  -0.543918  0  2.294902  0
O  O140  1  0.98993075  0.75668182  0.97427253  1  0  -0.634828  0  2.063069  0  0  -0.570278  0  2.329513  0  0  -0.598905  0  2.316141  0  0  -0.319099  -0.550316  0  2.33801  0
O  O141  1  0.75668296  0.98993049  0.47427276  1  0  -0.634858  0  2.063142  0  0  -0.570289  0  2.32957  0  0  -0.598917  0  2.3162  0  0  -0.319107  -0.550327  0  2.338066  0
O  O142  1  0.18321090  0.79211723  0.87676396  1  0  -0.634156  0  2.076074  0  0  -0.569265  0  2.335327  0  0  -0.59805  0  2.322927  0  0  -0.31369  -0.54917  0  2.342972  0
O  O143  1  0.79211670  0.18321110  0.37676365  1  0  -0.634142  0  2.076028  0  0  -0.569262  0  2.335285  0  0  -0.598047  0  2.322886  0  0  -0.313694  -0.549163  0  2.342929  0
O  O144  1  0.78672740  0.98681028  0.26678600  1  0  -0.630084  0  2.05836  0  0  -0.565588  0  2.314636  0  0  -0.594027  0  2.302985  0  0  -0.311852  -0.54579  0  2.32192  0
O  O145  1  0.98681039  0.78672604  0.76678517  1  0  -0.630088  0  2.058431  0  0  -0.565576  0  2.314667  0  0  -0.594014  0  2.303016  0  0  -0.311861  -0.545779  0  2.321948  0
O  O146  1  0.74495199  0.20294545  0.19282030  1  0  -0.638769  0  2.07028  0  0  -0.57494  0  2.333342  0  0  -0.603704  0  2.320146  0  0  -0.320085  -0.554949  0  2.341783  0
O  O147  1  0.20294499  0.74495228  0.69282080  1  0  -0.638726  0  2.070301  0  0  -0.574908  0  2.333364  0  0  -0.60367  0  2.320167  0  0  -0.320078  -0.554921  0  2.341806  0
