# generated using pymatgen
data_CdH19C17N2O7
_symmetry_space_group_name_H-M   'P 1'
_cell_length_a   10.17251023
_cell_length_b   10.13778357
_cell_length_c   10.09513827
_cell_angle_alpha   81.71196745
_cell_angle_beta   73.91929539
_cell_angle_gamma   62.80278397
_symmetry_Int_Tables_number   1
_chemical_formula_structural   CdH19C17N2O7
_chemical_formula_sum   'Cd2 H38 C34 N4 O14'
_cell_volume   889.55655615
_cell_formula_units_Z   2
loop_
 _symmetry_equiv_pos_site_id
 _symmetry_equiv_pos_as_xyz
  1  'x, y, z'
loop_
 _atom_site_type_symbol
 _atom_site_label
 _atom_site_symmetry_multiplicity
 _atom_site_fract_x
 _atom_site_fract_y
 _atom_site_fract_z
 _atom_site_occupancy
 _atom_site_hle17_bader_spin_density
 _atom_site_hle17_ddec_charge
 _atom_site_hle17_ddec_spin_density
 _atom_site_hle17_ddec_sum_bond_order
 _atom_site_hle17_magmom
 _atom_site_hse06_10hf_bader_spin_density
 _atom_site_hse06_10hf_ddec_charge
 _atom_site_hse06_10hf_ddec_spin_density
 _atom_site_hse06_10hf_ddec_sum_bond_order
 _atom_site_hse06_10hf_magmom
 _atom_site_hse06_bader_spin_density
 _atom_site_hse06_ddec_charge
 _atom_site_hse06_ddec_spin_density
 _atom_site_hse06_ddec_sum_bond_order
 _atom_site_hse06_magmom
 _atom_site_pbe_bader_spin_density
 _atom_site_pbe_cm5_charge
 _atom_site_pbe_ddec_charge
 _atom_site_pbe_ddec_spin_density
 _atom_site_pbe_ddec_sum_bond_order
 _atom_site_pbe_magmom
Cd  Cd0  1  0.34868136  0.31722142  0.48766879  1  0  1.206565  0  1.583012  0  0  1.023892  0  2.021916  0  0  1.08125  0  1.965873  0  0  0.772191  0.978481  0  2.064131  0
Cd  Cd1  1  0.65131626  0.68277852  0.51233536  1  0  1.206549  0  1.583065  0  0  1.02387  0  2.021968  0  0  1.081226  0  1.965921  0  0  0.772179  0.978461  0  2.064185  0
H  H2  1  0.37909099  0.16085651  0.74266797  1  0  0.395479  0  0.871925  0  0  0.373935  0  0.938853  0  0  0.381953  0  0.929815  0  0  0.301109  0.368228  0  0.945209  0
H  H3  1  0.62091568  0.83914349  0.25733880  1  0  0.395486  0  0.871962  0  0  0.373947  0  0.938872  0  0  0.381962  0  0.929837  0  0  0.301122  0.36824  0  0.94523  0
H  H4  1  0.49944179  0.03143645  0.64438915  1  0  0.441254  0  0.85559  0  0  0.40915  0  0.920681  0  0  0.420226  0  0.904659  0  0  0.292864  0.401297  0  0.932049  0
H  H5  1  0.50055330  0.96856461  0.35561356  1  0  0.441298  0  0.855531  0  0  0.409221  0  0.920569  0  0  0.420297  0  0.904544  0  0  0.292897  0.401371  0  0.931933  0
H  H6  1  0.27653850  0.56112396  0.25189173  1  0  0.439913  0  0.852641  0  0  0.409965  0  0.914175  0  0  0.420804  0  0.898242  0  0  0.292372  0.401354  0  0.926956  0
H  H7  1  0.72346170  0.43887268  0.74811211  1  0  0.439928  0  0.852598  0  0  0.409988  0  0.914121  0  0  0.420824  0  0.898193  0  0  0.29242  0.40138  0  0.926898  0
H  H8  1  0.32972610  0.60330185  0.36963240  1  0  0.428269  0  0.879615  0  0  0.396595  0  0.945495  0  0  0.407882  0  0.929006  0  0  0.283254  0.388407  0  0.957485  0
H  H9  1  0.67027002  0.39669689  0.63037326  1  0  0.428234  0  0.879666  0  0  0.396567  0  0.945533  0  0  0.407852  0  0.929045  0  0  0.283244  0.388377  0  0.957527  0
H  H10  1  0.38652634  0.69567692  0.79749883  1  0  0.295042  0  0.94115  0  0  0.274805  0  1.009204  0  0  0.282532  0  1.004225  0  0  0.30209  0.269318  0  1.01284  0
H  H11  1  0.61347344  0.30431402  0.20250771  1  0  0.295047  0  0.941118  0  0  0.274747  0  1.009237  0  0  0.282473  0  1.004261  0  0  0.302047  0.269258  0  1.012865  0
H  H12  1  0.40044954  0.46766119  0.72773150  1  0  0.093744  0  0.955751  0  0  0.097915  0  1.030111  0  0  0.101346  0  1.026412  0  0  0.118139  0.095295  0  1.033038  0
H  H13  1  0.59954611  0.53233652  0.27227141  1  0  0.093688  0  0.955755  0  0  0.097868  0  1.030118  0  0  0.101298  0  1.02642  0  0  0.118114  0.095246  0  1.033041  0
H  H14  1  0.96383523  0.70689257  0.00410845  1  0  0.104669  0  0.919422  0  0  0.118439  0  0.971623  0  0  0.121485  0  0.969629  0  0  0.114841  0.116408  0  0.972795  0
H  H15  1  0.03615820  0.29311876  0.99588763  1  0  0.104695  0  0.919386  0  0  0.118423  0  0.971633  0  0  0.121469  0  0.969638  0  0  0.114839  0.116394  0  0.972806  0
H  H16  1  0.84839621  0.62252560  0.86102081  1  0  0.106848  0  0.945395  0  0  0.116177  0  1.005925  0  0  0.119523  0  1.004874  0  0  0.110141  0.113975  0  1.006553  0
H  H17  1  0.15159826  0.37748348  0.13897624  1  0  0.106857  0  0.945391  0  0  0.11621  0  1.005912  0  0  0.119557  0  1.004858  0  0  0.110161  0.114008  0  1.006538  0
H  H18  1  0.02018253  0.45903564  0.66147393  1  0  0.106368  0  0.937805  0  0  0.113737  0  1.000035  0  0  0.117324  0  0.99598  0  0  0.124712  0.11106  0  1.003063  0
H  H19  1  0.97981104  0.54096661  0.33852606  1  0  0.106452  0  0.937767  0  0  0.113746  0  1.000067  0  0  0.117332  0  0.996014  0  0  0.12471  0.111071  0  1.003092  0
H  H20  1  0.57756388  0.64713882  0.92705637  1  0  0.059161  0  0.931899  0  0  0.077373  0  0.99329  0  0  0.07704  0  0.994064  0  0  0.103078  0.077743  0  0.992468  0
H  H21  1  0.42244381  0.35283567  0.07294493  1  0  0.059082  0  0.931859  0  0  0.077216  0  0.993364  0  0  0.076876  0  0.994146  0  0  0.103  0.077585  0  0.992544  0
H  H22  1  0.42972705  0.68428795  0.08055778  1  0  0.065335  0  0.92879  0  0  0.082933  0  0.989211  0  0  0.083545  0  0.988979  0  0  0.107868  0.082119  0  0.990017  0
H  H23  1  0.57028143  0.31569768  0.91944510  1  0  0.06533  0  0.928729  0  0  0.082901  0  0.989179  0  0  0.083517  0  0.988944  0  0  0.107846  0.082084  0  0.989991  0
H  H24  1  0.29769171  0.94534643  0.00123102  1  0  0.063866  0  0.950903  0  0  0.082488  0  1.013265  0  0  0.082646  0  1.01452  0  0  0.087204  0.082317  0  1.012185  0
H  H25  1  0.70233495  0.05464212  0.99876191  1  0  0.063839  0  0.950902  0  0  0.082456  0  1.01335  0  0  0.082627  0  1.014579  0  0  0.087226  0.082278  0  1.012279  0
H  H26  1  0.43001130  0.90625586  0.83893280  1  0  0.087996  0  0.95686  0  0  0.104975  0  1.019213  0  0  0.106596  0  1.018543  0  0  0.095263  0.103656  0  1.020029  0
H  H27  1  0.57002264  0.09371924  0.16106466  1  0  0.087969  0  0.956945  0  0  0.104968  0  1.019327  0  0  0.106565  0  1.018687  0  0  0.095276  0.103651  0  1.020137  0
H  H28  1  0.64004732  0.85663996  0.94513233  1  0  0.060026  0  0.942181  0  0  0.079093  0  1.005873  0  0  0.079427  0  1.00704  0  0  0.086966  0.078614  0  1.005396  0
H  H29  1  0.35998370  0.14332826  0.05486859  1  0  0.059947  0  0.942222  0  0  0.079022  0  1.005897  0  0  0.079357  0  1.007059  0  0  0.086877  0.078542  0  1.005429  0
H  H30  1  0.51720967  0.87838236  0.11227109  1  0  0.038374  0  0.968655  0  0  0.061904  0  1.029412  0  0  0.062273  0  1.029268  0  0  0.084341  0.061407  0  1.029875  0
H  H31  1  0.48281985  0.12158469  0.88773034  1  0  0.038306  0  0.968799  0  0  0.061813  0  1.029567  0  0  0.062177  0  1.029427  0  0  0.084374  0.061332  0  1.030009  0
H  H32  1  0.89562957  0.28171038  0.50518416  1  0  0.100052  0  0.972558  0  0  0.106811  0  1.042709  0  0  0.110499  0  1.039332  0  0  0.104847  0.104258  0  1.045196  0
H  H33  1  0.10436945  0.71829275  0.49482524  1  0  0.100007  0  0.97264  0  0  0.106818  0  1.042725  0  0  0.110507  0  1.039342  0  0  0.104819  0.104266  0  1.045209  0
H  H34  1  0.28146367  0.95629847  0.24078249  1  0  0.09209  0  0.966644  0  0  0.1014  0  1.033519  0  0  0.10455  0  1.031147  0  0  0.100613  0.099041  0  1.035504  0
H  H35  1  0.71852467  0.04371984  0.75920325  1  0  0.092047  0  0.966725  0  0  0.101383  0  1.033572  0  0  0.104533  0  1.031201  0  0  0.100613  0.099025  0  1.035559  0
H  H36  1  0.11147147  0.87292868  0.17510182  1  0  0.096496  0  0.972538  0  0  0.106265  0  1.031094  0  0  0.109682  0  1.029964  0  0  0.097316  0.104047  0  1.031406  0
H  H37  1  0.88851108  0.12710670  0.82487270  1  0  0.096325  0  0.972766  0  0  0.106221  0  1.031181  0  0  0.109603  0  1.030087  0  0  0.097255  0.104001  0  1.0315  0
H  H38  1  0.83010886  0.00432160  0.26891373  1  0  0.105438  0  0.940445  0  0  0.11522  0  1.001835  0  0  0.119142  0  0.998569  0  0  0.104832  0.11252  0  1.003671  0
H  H39  1  0.16987465  0.99570864  0.73107992  1  0  0.105354  0  0.940429  0  0  0.115106  0  1.001846  0  0  0.119024  0  0.998585  0  0  0.104803  0.112414  0  1.003687  0
C  C40  1  0.27748302  0.50503648  0.76182745  1  0  0.093856  0  3.689255  0  0  0.051721  0  3.944085  0  0  0.060504  0  3.961075  0  0  0.04537  0.046235  0  3.93201  0
C  C41  1  0.72251411  0.49496231  0.23817695  1  0  0.093825  0  3.68931  0  0  0.051672  0  3.944149  0  0  0.060455  0  3.961142  0  0  0.045369  0.046187  0  3.932068  0
C  C42  1  0.19024123  0.59379600  0.87731331  1  0  -0.097719  0  3.759287  0  0  -0.072208  0  3.999282  0  0  -0.08333  0  4.023854  0  0  -0.007046  -0.065139  0  3.982699  0
C  C43  1  0.80975077  0.40620961  0.12268573  1  0  -0.097631  0  3.759279  0  0  -0.072104  0  3.999253  0  0  -0.083227  0  4.023827  0  0  -0.007016  -0.065032  0  3.982669  0
C  C44  1  0.03307357  0.63807711  0.91406498  1  0  -0.011413  0  3.700141  0  0  -0.040882  0  3.948494  0  0  -0.036033  0  3.966364  0  0  -0.055489  -0.043753  0  3.936331  0
C  C45  1  0.96691948  0.36192625  0.08593503  1  0  -0.01151  0  3.700062  0  0  -0.04094  0  3.948445  0  0  -0.036093  0  3.966317  0  0  -0.055542  -0.043818  0  3.936292  0
C  C46  1  0.96977957  0.59149455  0.83595933  1  0  -0.107245  0  3.738159  0  0  -0.120869  0  3.998663  0  0  -0.128282  0  4.019229  0  0  -0.076892  -0.116432  0  3.985081  0
C  C47  1  0.03021952  0.40851135  0.16403488  1  0  -0.107157  0  3.737751  0  0  -0.120831  0  3.998273  0  0  -0.128243  0  4.018839  0  0  -0.076881  -0.116391  0  3.984692  0
C  C48  1  0.06449223  0.50009136  0.72434254  1  0  0.147454  0  3.655661  0  0  0.111455  0  3.909866  0  0  0.120877  0  3.924991  0  0  0.056775  0.105325  0  3.898971  0
C  C49  1  0.93549923  0.49991287  0.27566373  1  0  0.147231  0  3.655625  0  0  0.111322  0  3.909821  0  0  0.120743  0  3.924947  0  0  0.056722  0.105185  0  3.898927  0
C  C50  1  0.26107687  0.63333474  0.96775522  1  0  0.535747  0  3.879002  0  0  0.481459  0  4.17586  0  0  0.511201  0  4.176195  0  0  0.240922  0.461403  0  4.174863  0
C  C51  1  0.73891734  0.36665717  0.03225265  1  0  0.535688  0  3.879225  0  0  0.481405  0  4.176056  0  0  0.511145  0  4.176397  0  0  0.240902  0.46134  0  4.175065  0
C  C52  1  0.45533974  0.71432504  0.97068544  1  0  0.069401  0  3.639566  0  0  0.010543  0  3.902522  0  0  0.016069  0  3.914287  0  0  -0.060577  0.006723  0  3.894531  0
C  C53  1  0.54466984  0.28565613  0.02931764  1  0  0.069542  0  3.639576  0  0  0.010786  0  3.902487  0  0  0.016315  0  3.914246  0  0  -0.060442  0.006967  0  3.894493  0
C  C54  1  0.41761582  0.87874354  0.94957302  1  0  -0.151224  0  3.686637  0  0  -0.191208  0  3.944966  0  0  -0.193447  0  3.959282  0  0  -0.171806  -0.189456  0  3.935188  0
C  C55  1  0.58240899  0.12123360  0.05042557  1  0  -0.151139  0  3.686752  0  0  -0.19129  0  3.94528  0  0  -0.193513  0  3.959593  0  0  -0.171926  -0.189535  0  3.935503  0
C  C56  1  0.52140530  0.91719700  0.00382528  1  0  -0.095169  0  3.707062  0  0  -0.136953  0  3.971831  0  0  -0.137935  0  3.98739  0  0  -0.164283  -0.136072  0  3.961292  0
C  C57  1  0.47862514  0.08277454  0.99617643  1  0  -0.094907  0  3.707102  0  0  -0.136586  0  3.971836  0  0  -0.137567  0  3.987397  0  0  -0.164141  -0.135716  0  3.961298  0
C  C58  1  0.67581273  0.22830439  0.44897243  1  0  0.651645  0  3.900975  0  0  0.596279  0  4.196306  0  0  0.630792  0  4.190267  0  0  0.207098  0.57258  0  4.199932  0
C  C59  1  0.32418182  0.77169774  0.55103129  1  0  0.651756  0  3.900814  0  0  0.596382  0  4.196187  0  0  0.630893  0  4.190146  0  0  0.207128  0.572676  0  4.199824  0
C  C60  1  0.84447897  0.15180331  0.39223205  1  0  -0.089264  0  3.777705  0  0  -0.061381  0  4.012895  0  0  -0.072172  0  4.038621  0  0  -0.023757  -0.054477  0  3.99644  0
C  C61  1  0.15551188  0.84821132  0.60776435  1  0  -0.089228  0  3.777538  0  0  -0.061404  0  4.012781  0  0  -0.072196  0  4.038512  0  0  -0.023761  -0.054492  0  3.996323  0
C  C62  1  0.94091732  0.19389720  0.43155078  1  0  -0.057754  0  3.702653  0  0  -0.092308  0  3.944215  0  0  -0.089937  0  3.96604  0  0  -0.075028  -0.094226  0  3.930843  0
C  C63  1  0.05907662  0.80611049  0.56845349  1  0  -0.057752  0  3.702886  0  0  -0.092311  0  3.944429  0  0  -0.089948  0  3.966252  0  0  -0.075  -0.094234  0  3.931053  0
C  C64  1  0.09776876  0.12657434  0.37358608  1  0  -0.08099  0  3.778949  0  0  -0.052045  0  4.008688  0  0  -0.062693  0  4.033818  0  0  -0.021949  -0.045881  0  3.99313  0
C  C65  1  0.90222419  0.87343343  0.62641546  1  0  -0.08099  0  3.778938  0  0  -0.052065  0  4.008708  0  0  -0.06269  0  4.033807  0  0  -0.021943  -0.045893  0  3.99314  0
C  C66  1  0.15869987  0.01100014  0.28115726  1  0  -0.050917  0  3.723041  0  0  -0.082555  0  3.978376  0  0  -0.079602  0  3.997153  0  0  -0.081449  -0.083909  0  3.966012  0
C  C67  1  0.84129044  0.98901802  0.71883395  1  0  -0.050821  0  3.723021  0  0  -0.082491  0  3.978394  0  0  -0.079543  0  3.997155  0  0  -0.081424  -0.083839  0  3.966028  0
C  C68  1  0.06337027  0.96600671  0.24378180  1  0  -0.08849  0  3.762233  0  0  -0.096376  0  4.015324  0  0  -0.101733  0  4.036401  0  0  -0.095949  -0.092508  0  3.999564  0
C  C69  1  0.93661592  0.03401827  0.75620379  1  0  -0.088507  0  3.762317  0  0  -0.096489  0  4.015382  0  0  -0.10182  0  4.036476  0  0  -0.095956  -0.092629  0  3.999641  0
C  C70  1  0.90636343  0.03789567  0.29695423  1  0  -0.044717  0  3.695525  0  0  -0.075007  0  3.947387  0  0  -0.072259  0  3.965823  0  0  -0.079552  -0.075872  0  3.933442  0
C  C71  1  0.09362323  0.96212793  0.70303932  1  0  -0.044545  0  3.695329  0  0  -0.07478  0  3.947201  0  0  -0.072023  0  3.965622  0  0  -0.079511  -0.075653  0  3.93327  0
C  C72  1  0.19657088  0.18392861  0.40665162  1  0  0.639259  0  3.924005  0  0  0.588994  0  4.21099  0  0  0.623143  0  4.206343  0  0  0.199394  0.565985  0  4.212967  0
C  C73  1  0.80342669  0.81607353  0.59335330  1  0  0.639362  0  3.923751  0  0  0.589078  0  4.21077  0  0  0.623225  0  4.206118  0  0  0.199399  0.566066  0  4.212748  0
N  N74  1  0.21554802  0.45859552  0.68748652  1  0  -0.352965  0  3.264872  0  0  -0.26986  0  3.530296  0  0  -0.291857  0  3.54968  0  0  -0.328456  -0.253523  0  3.515645  0
N  N75  1  0.78444091  0.54141221  0.31251408  1  0  -0.352817  0  3.265183  0  0  -0.269723  0  3.530575  0  0  -0.291718  0  3.549958  0  0  -0.328393  -0.253385  0  3.515924  0
N  N76  1  0.37110335  0.67380438  0.90236906  1  0  -0.411559  0  3.325978  0  0  -0.350406  0  3.576305  0  0  -0.372897  0  3.586923  0  0  -0.411408  -0.334933  0  3.568809  0
N  N77  1  0.62889694  0.32618780  0.09763424  1  0  -0.41152  0  3.326169  0  0  -0.35026  0  3.576406  0  0  -0.372748  0  3.587028  0  0  -0.411259  -0.33477  0  3.568888  0
O  O78  1  0.59411596  0.22016356  0.37573053  1  0  -0.654395  0  2.063388  0  0  -0.575964  0  2.311724  0  0  -0.606342  0  2.301309  0  0  -0.324116  -0.554138  0  2.319509  0
O  O79  1  0.40588108  0.77983969  0.62427441  1  0  -0.654504  0  2.063338  0  0  -0.576057  0  2.311652  0  0  -0.606429  0  2.301224  0  0  -0.324107  -0.554235  0  2.319447  0
O  O80  1  0.61776110  0.29663173  0.56149715  1  0  -0.648001  0  1.975073  0  0  -0.589586  0  2.206691  0  0  -0.615697  0  2.196502  0  0  -0.320479  -0.570584  0  2.213636  0
O  O81  1  0.38222830  0.70337464  0.43851041  1  0  -0.647979  0  1.975052  0  0  -0.589564  0  2.2067  0  0  -0.615675  0  2.196508  0  0  -0.320481  -0.570559  0  2.213649  0
O  O82  1  0.33984922  0.12458561  0.35331424  1  0  -0.664284  0  1.982489  0  0  -0.595782  0  2.210973  0  0  -0.62338  0  2.201293  0  0  -0.327113  -0.575261  0  2.217857  0
O  O83  1  0.66015045  0.87541210  0.64669062  1  0  -0.664317  0  1.982389  0  0  -0.595794  0  2.210884  0  0  -0.623395  0  2.201206  0  0  -0.327111  -0.575274  0  2.217773  0
O  O84  1  0.13244034  0.29698772  0.48346178  1  0  -0.635156  0  1.97826  0  0  -0.568875  0  2.219128  0  0  -0.599285  0  2.210658  0  0  -0.322147  -0.546809  0  2.223798  0
O  O85  1  0.86755728  0.70300979  0.51654759  1  0  -0.635257  0  1.978117  0  0  -0.568965  0  2.219006  0  0  -0.599356  0  2.210492  0  0  -0.322186  -0.546895  0  2.223671  0
O  O86  1  0.39596712  0.11709962  0.65634559  1  0  -0.812931  0  1.850027  0  0  -0.762089  0  2.044586  0  0  -0.782408  0  2.016389  0  0  -0.579972  -0.747483  0  2.064324  0
O  O87  1  0.60402991  0.88290357  0.34366134  1  0  -0.813003  0  1.850072  0  0  -0.762172  0  2.044649  0  0  -0.782485  0  2.016454  0  0  -0.580029  -0.747565  0  2.064388  0
O  O88  1  0.31836779  0.52262536  0.33433119  1  0  -0.874356  0  1.817666  0  0  -0.81318  0  2.015206  0  0  -0.834273  0  1.97866  0  0  -0.601446  -0.797429  0  2.042954  0
O  O89  1  0.68163752  0.47736924  0.66566957  1  0  -0.874354  0  1.81763  0  0  -0.81318  0  2.015152  0  0  -0.834287  0  1.978652  0  0  -0.601498  -0.797429  0  2.042905  0
O  O90  1  0.21575735  0.62428044  0.09646834  1  0  -0.59584  0  1.958502  0  0  -0.546025  0  2.182885  0  0  -0.568793  0  2.175056  0  0  -0.304683  -0.529953  0  2.188216  0
O  O91  1  0.78423727  0.37571962  0.90353062  1  0  -0.595865  0  1.958342  0  0  -0.546092  0  2.182757  0  0  -0.568854  0  2.17493  0  0  -0.304737  -0.530015  0  2.188092  0
