# generated using pymatgen
data_CdH10C14N2O5
_symmetry_space_group_name_H-M   'P 1'
_cell_length_a   6.26972656
_cell_length_b   7.16361475
_cell_length_c   14.94629000
_cell_angle_alpha   92.52954297
_cell_angle_beta   88.44425839
_cell_angle_gamma   85.76570319
_symmetry_Int_Tables_number   1
_chemical_formula_structural   CdH10C14N2O5
_chemical_formula_sum   'Cd2 H20 C28 N4 O10'
_cell_volume   668.50001644
_cell_formula_units_Z   2
loop_
 _symmetry_equiv_pos_site_id
 _symmetry_equiv_pos_as_xyz
  1  'x, y, z'
loop_
 _atom_site_type_symbol
 _atom_site_label
 _atom_site_symmetry_multiplicity
 _atom_site_fract_x
 _atom_site_fract_y
 _atom_site_fract_z
 _atom_site_occupancy
 _atom_site_hle17_bader_spin_density
 _atom_site_hle17_ddec_charge
 _atom_site_hle17_ddec_spin_density
 _atom_site_hle17_ddec_sum_bond_order
 _atom_site_hle17_magmom
 _atom_site_hse06_10hf_bader_spin_density
 _atom_site_hse06_10hf_ddec_charge
 _atom_site_hse06_10hf_ddec_spin_density
 _atom_site_hse06_10hf_ddec_sum_bond_order
 _atom_site_hse06_10hf_magmom
 _atom_site_hse06_bader_spin_density
 _atom_site_hse06_ddec_charge
 _atom_site_hse06_ddec_spin_density
 _atom_site_hse06_ddec_sum_bond_order
 _atom_site_hse06_magmom
 _atom_site_pbe_bader_spin_density
 _atom_site_pbe_cm5_charge
 _atom_site_pbe_ddec_charge
 _atom_site_pbe_ddec_spin_density
 _atom_site_pbe_ddec_sum_bond_order
 _atom_site_pbe_magmom
Cd  Cd0  1  0.67704456  0.24943271  0.49653271  1  0  1.285512  0  1.556771  0  0  1.109008  0  2.003268  0  0  1.166966  0  1.941842  0  0  0.790338  1.067244  0  2.045892  0
Cd  Cd1  1  0.32256084  0.75055979  0.50355919  1  0  1.285602  0  1.55851  0  0  1.109166  0  2.005142  0  0  1.167071  0  1.943697  0  0  0.790345  1.067443  0  2.047779  0
H  H2  1  0.01031431  0.54360009  0.31363084  1  0  0.105686  0  0.932474  0  0  0.116726  0  0.989191  0  0  0.120192  0  0.986914  0  0  0.106307  0.114201  0  0.990928  0
H  H3  1  0.04310432  0.96667633  0.68545792  1  0  0.110337  0  0.945181  0  0  0.118396  0  1.007711  0  0  0.122161  0  1.004793  0  0  0.105677  0.115685  0  1.009826  0
H  H4  1  0.98914240  0.45657561  0.68604835  1  0  0.105373  0  0.933374  0  0  0.116089  0  0.990477  0  0  0.119558  0  0.988166  0  0  0.106123  0.113563  0  0.992226  0
H  H5  1  0.95727782  0.03336935  0.31461879  1  0  0.110497  0  0.944154  0  0  0.118704  0  1.006573  0  0  0.122449  0  1.00371  0  0  0.10588  0.116  0  1.008671  0
H  H6  1  0.86730025  0.57744311  0.16024336  1  0  0.104243  0  0.979001  0  0  0.107536  0  1.052058  0  0  0.11027  0  1.05181  0  0  0.103628  0.105472  0  1.052557  0
H  H7  1  0.89393886  0.92384715  0.83987784  1  0  0.105214  0  0.967102  0  0  0.110825  0  1.036206  0  0  0.113635  0  1.035843  0  0  0.104838  0.108719  0  1.036759  0
H  H8  1  0.13283636  0.42244981  0.83931463  1  0  0.103696  0  0.979042  0  0  0.10748  0  1.051867  0  0  0.110174  0  1.051657  0  0  0.103694  0.105422  0  1.05239  0
H  H9  1  0.10630630  0.07606101  0.16009999  1  0  0.105768  0  0.967182  0  0  0.11116  0  1.036481  0  0  0.113974  0  1.036111  0  0  0.105079  0.109073  0  1.037013  0
H  H10  1  0.48281391  0.37433503  0.04497995  1  0  0.103963  0  0.962651  0  0  0.109696  0  1.033261  0  0  0.11309  0  1.030949  0  0  0.105232  0.107283  0  1.034981  0
H  H11  1  0.46731400  0.11866723  0.95225846  1  0  0.101764  0  0.968367  0  0  0.106978  0  1.041132  0  0  0.11036  0  1.03875  0  0  0.104393  0.104561  0  1.042927  0
H  H12  1  0.51780372  0.62536666  0.95494183  1  0  0.104127  0  0.963162  0  0  0.110311  0  1.033128  0  0  0.113706  0  1.030828  0  0  0.105424  0.107893  0  1.034859  0
H  H13  1  0.53272225  0.88100655  0.04781758  1  0  0.102381  0  0.967486  0  0  0.107432  0  1.040425  0  0  0.110877  0  1.03799  0  0  0.104743  0.104998  0  1.042234  0
H  H14  1  0.62284137  0.33321981  0.19838480  1  0  0.103719  0  0.962134  0  0  0.112017  0  1.025914  0  0  0.114541  0  1.025523  0  0  0.104416  0.110103  0  1.026462  0
H  H15  1  0.61164843  0.16917440  0.79855677  1  0  0.106544  0  0.953003  0  0  0.115509  0  1.014412  0  0  0.11804  0  1.014139  0  0  0.105894  0.113539  0  1.014924  0
H  H16  1  0.37708910  0.66677909  0.80171263  1  0  0.104311  0  0.961719  0  0  0.112589  0  1.025395  0  0  0.115119  0  1.025  0  0  0.10463  0.11063  0  1.025993  0
H  H17  1  0.38851761  0.83068605  0.20161891  1  0  0.106388  0  0.953033  0  0  0.115465  0  1.0144  0  0  0.118052  0  1.014039  0  0  0.105917  0.113524  0  1.014877  0
H  H18  1  0.12133458  0.15333780  0.51699986  1  0  0.435337  0  0.868606  0  0  0.404381  0  0.932262  0  0  0.415062  0  0.916754  0  0  0.292425  0.396831  0  0.943201  0
H  H19  1  0.10944249  0.31492872  0.44937400  1  0  0.434738  0  0.868506  0  0  0.404552  0  0.930042  0  0  0.415325  0  0.9145  0  0  0.290881  0.396935  0  0.94101  0
H  H20  1  0.87838331  0.84717187  0.48338061  1  0  0.434638  0  0.869835  0  0  0.403654  0  0.933437  0  0  0.414342  0  0.917927  0  0  0.292088  0.396101  0  0.944373  0
H  H21  1  0.89019814  0.68550961  0.55088677  1  0  0.43446  0  0.869045  0  0  0.404338  0  0.930392  0  0  0.415113  0  0.914856  0  0  0.290852  0.396725  0  0.941344  0
C  C22  1  0.41402167  0.41475392  0.35580373  1  0  0.66136  0  3.890695  0  0  0.606277  0  4.182662  0  0  0.642568  0  4.175014  0  0  0.210124  0.581576  0  4.186962  0
C  C23  1  0.42524500  0.10166374  0.64196029  1  0  0.665574  0  3.884498  0  0  0.611368  0  4.173322  0  0  0.647571  0  4.166114  0  0  0.212511  0.586739  0  4.177251  0
C  C24  1  0.58534848  0.58561401  0.64414242  1  0  0.662945  0  3.887698  0  0  0.607753  0  4.179751  0  0  0.644026  0  4.172102  0  0  0.211059  0.583069  0  4.184053  0
C  C25  1  0.57505977  0.89845719  0.35817552  1  0  0.66671  0  3.884187  0  0  0.612299  0  4.173073  0  0  0.648512  0  4.165825  0  0  0.212879  0.587662  0  4.17703  0
C  C26  1  0.32523720  0.43469516  0.26507356  1  0  -0.063032  0  3.727736  0  0  -0.039705  0  3.960023  0  0  -0.049379  0  3.983706  0  0  -0.014238  -0.033399  0  3.944042  0
C  C27  1  0.33531737  0.07292491  0.73309093  1  0  -0.069061  0  3.734702  0  0  -0.044857  0  3.96575  0  0  -0.054854  0  3.989799  0  0  -0.015683  -0.038316  0  3.949425  0
C  C28  1  0.67453554  0.56537169  0.73476681  1  0  -0.063216  0  3.727613  0  0  -0.039858  0  3.959633  0  0  -0.049528  0  3.983299  0  0  -0.01427  -0.033553  0  3.943645  0
C  C29  1  0.66491049  0.92706417  0.26700461  1  0  -0.068984  0  3.734245  0  0  -0.044284  0  3.964735  0  0  -0.054281  0  3.988798  0  0  -0.015388  -0.037744  0  3.948419  0
C  C30  1  0.11172356  0.50364848  0.25449637  1  0  -0.036704  0  3.695827  0  0  -0.060201  0  3.943125  0  0  -0.05922  0  3.962432  0  0  -0.074622  -0.060586  0  3.929949  0
C  C31  1  0.13285377  0.00283876  0.74439096  1  0  -0.037376  0  3.697135  0  0  -0.061825  0  3.945926  0  0  -0.060451  0  3.964575  0  0  -0.074449  -0.06244  0  3.933161  0
C  C32  1  0.88798776  0.49628902  0.74521601  1  0  -0.036083  0  3.697593  0  0  -0.059282  0  3.944883  0  0  -0.05827  0  3.964162  0  0  -0.074602  -0.059681  0  3.931702  0
C  C33  1  0.86746859  0.99713535  0.25566700  1  0  -0.037553  0  3.69569  0  0  -0.062219  0  3.944518  0  0  -0.060856  0  3.963159  0  0  -0.074633  -0.062837  0  3.931775  0
C  C34  1  0.03141318  0.52265565  0.16955350  1  0  -0.130857  0  3.706193  0  0  -0.149434  0  3.955149  0  0  -0.153905  0  3.97798  0  0  -0.081215  -0.146564  0  3.93997  0
C  C35  1  0.04969557  0.97885813  0.82977637  1  0  -0.130195  0  3.695757  0  0  -0.148952  0  3.943084  0  0  -0.153312  0  3.964995  0  0  -0.080819  -0.14618  0  3.9285  0
C  C36  1  0.96859454  0.47720037  0.83009706  1  0  -0.130621  0  3.704539  0  0  -0.149857  0  3.953409  0  0  -0.154282  0  3.976291  0  0  -0.081553  -0.147017  0  3.938191  0
C  C37  1  0.95055827  0.02103186  0.17025601  1  0  -0.130661  0  3.696288  0  0  -0.149301  0  3.943888  0  0  -0.15365  0  3.965812  0  0  -0.080982  -0.146548  0  3.9293  0
C  C38  1  0.16537226  0.47385090  0.09360525  1  0  0.167794  0  3.790818  0  0  0.171924  0  4.040059  0  0  0.173391  0  4.063423  0  0  0.091846  0.170993  0  4.024242  0
C  C39  1  0.16962287  0.02390365  0.90511330  1  0  0.16897  0  3.793909  0  0  0.173181  0  4.042964  0  0  0.174671  0  4.066446  0  0  0.093465  0.172238  0  4.027072  0
C  C40  1  0.83482683  0.52580312  0.90615368  1  0  0.168136  0  3.791147  0  0  0.172403  0  4.040419  0  0  0.173835  0  4.063816  0  0  0.092851  0.171499  0  4.02455  0
C  C41  1  0.83046528  0.97595309  0.09495973  1  0  0.168266  0  3.792097  0  0  0.172523  0  4.041221  0  0  0.173977  0  4.064757  0  0  0.093315  0.171622  0  4.025281  0
C  C42  1  0.37966736  0.40829530  0.10410934  1  0  -0.125505  0  3.703382  0  0  -0.146688  0  3.95753  0  0  -0.151995  0  3.979142  0  0  -0.07793  -0.143174  0  3.942912  0
C  C43  1  0.37426592  0.08850522  0.89368407  1  0  -0.125066  0  3.715057  0  0  -0.147746  0  3.970982  0  0  -0.152847  0  3.992137  0  0  -0.078694  -0.144381  0  3.956742  0
C  C44  1  0.62058426  0.59144748  0.89576767  1  0  -0.125993  0  3.705566  0  0  -0.147631  0  3.959389  0  0  -0.15294  0  3.981005  0  0  -0.078819  -0.144119  0  3.944758  0
C  C45  1  0.62581976  0.91125580  0.10641100  1  0  -0.125279  0  3.712758  0  0  -0.14796  0  3.969238  0  0  -0.153105  0  3.990375  0  0  -0.078924  -0.144603  0  3.955017  0
C  C46  1  0.45796914  0.38614899  0.18927749  1  0  -0.05333  0  3.721212  0  0  -0.076594  0  3.966958  0  0  -0.075637  0  3.988761  0  0  -0.079367  -0.077035  0  3.952317  0
C  C47  1  0.45493727  0.11585822  0.80825727  1  0  -0.054771  0  3.723693  0  0  -0.077125  0  3.968188  0  0  -0.075858  0  3.989064  0  0  -0.078443  -0.077732  0  3.954174  0
C  C48  1  0.54196854  0.61360870  0.81066182  1  0  -0.053774  0  3.720663  0  0  -0.076887  0  3.966427  0  0  -0.075942  0  3.988234  0  0  -0.079082  -0.077294  0  3.951801  0
C  C49  1  0.54525415  0.88396540  0.19187958  1  0  -0.054646  0  3.723638  0  0  -0.077217  0  3.968105  0  0  -0.075979  0  3.988956  0  0  -0.078351  -0.07784  0  3.954108  0
N  N50  1  0.10061745  0.49144518  0.00436913  1  0  -0.142733  0  2.982993  0  0  -0.11957  0  3.267607  0  0  -0.119089  0  3.275758  0  0  -0.141215  -0.119599  0  3.261758  0
N  N51  1  0.10017949  0.00400486  0.99463206  1  0  -0.142142  0  2.980151  0  0  -0.119113  0  3.26425  0  0  -0.118571  0  3.272073  0  0  -0.140726  -0.119145  0  3.25861  0
N  N52  1  0.89970833  0.50812838  0.99534305  1  0  -0.142306  0  2.983984  0  0  -0.118824  0  3.26818  0  0  -0.118334  0  3.276341  0  0  -0.140668  -0.118855  0  3.262319  0
N  N53  1  0.89992406  0.99577413  0.00542637  1  0  -0.142326  0  2.979266  0  0  -0.119233  0  3.263405  0  0  -0.118676  0  3.271233  0  0  -0.140893  -0.119283  0  3.257756  0
O  O54  1  0.60926013  0.35433208  0.36110151  1  0  -0.621519  0  2.003899  0  0  -0.55151  0  2.252996  0  0  -0.583088  0  2.244421  0  0  -0.310546  -0.529408  0  2.258067  0
O  O55  1  0.60562963  0.17253403  0.63606223  1  0  -0.621268  0  2.010979  0  0  -0.549624  0  2.258901  0  0  -0.581714  0  2.249953  0  0  -0.308547  -0.527143  0  2.264213  0
O  O56  1  0.38990530  0.64558058  0.63894564  1  0  -0.622318  0  2.003173  0  0  -0.552239  0  2.252289  0  0  -0.583814  0  2.243735  0  0  -0.311097  -0.530124  0  2.257299  0
O  O57  1  0.39466009  0.82765112  0.36419573  1  0  -0.621662  0  2.010606  0  0  -0.549967  0  2.25871  0  0  -0.58203  0  2.249696  0  0  -0.308686  -0.527506  0  2.264074  0
O  O58  1  0.29249719  0.45517262  0.42601081  1  0  -0.730897  0  2.099032  0  0  -0.656391  0  2.353088  0  0  -0.684686  0  2.335195  0  0  -0.337154  -0.636376  0  2.36471  0
O  O59  1  0.32068130  0.05798972  0.57247635  1  0  -0.723981  0  2.122909  0  0  -0.647911  0  2.378135  0  0  -0.677349  0  2.362671  0  0  -0.334427  -0.627071  0  2.388045  0
O  O60  1  0.70672046  0.54562650  0.57386152  1  0  -0.731319  0  2.098102  0  0  -0.656811  0  2.352039  0  0  -0.685083  0  2.334121  0  0  -0.337461  -0.636816  0  2.36367  0
O  O61  1  0.67980723  0.94228416  0.42757227  1  0  -0.724356  0  2.125057  0  0  -0.648388  0  2.380418  0  0  -0.677819  0  2.364929  0  0  -0.334959  -0.62755  0  2.390335  0
O  O62  1  0.02943284  0.20859749  0.47026654  1  0  -0.852602  0  1.846978  0  0  -0.781748  0  2.04439  0  0  -0.806508  0  2.009603  0  0  -0.594405  -0.7642  0  2.068486  0
O  O63  1  0.97032078  0.79187848  0.53009582  1  0  -0.851915  0  1.847902  0  0  -0.780785  0  2.045455  0  0  -0.805574  0  2.010676  0  0  -0.594006  -0.763221  0  2.069537  0
