# generated using pymatgen
data_CdH5C5N3O5
_symmetry_space_group_name_H-M   'P 1'
_cell_length_a   7.19736507
_cell_length_b   10.01393766
_cell_length_c   11.63046899
_cell_angle_alpha   89.99997085
_cell_angle_beta   90.00021855
_cell_angle_gamma   106.72273272
_symmetry_Int_Tables_number   1
_chemical_formula_structural   CdH5C5N3O5
_chemical_formula_sum   'Cd4 H20 C20 N12 O20'
_cell_volume   802.80291740
_cell_formula_units_Z   4
loop_
 _symmetry_equiv_pos_site_id
 _symmetry_equiv_pos_as_xyz
  1  'x, y, z'
loop_
 _atom_site_type_symbol
 _atom_site_label
 _atom_site_symmetry_multiplicity
 _atom_site_fract_x
 _atom_site_fract_y
 _atom_site_fract_z
 _atom_site_occupancy
 _atom_site_hle17_bader_spin_density
 _atom_site_hle17_ddec_charge
 _atom_site_hle17_ddec_spin_density
 _atom_site_hle17_ddec_sum_bond_order
 _atom_site_hle17_magmom
 _atom_site_hse06_10hf_bader_spin_density
 _atom_site_hse06_10hf_ddec_charge
 _atom_site_hse06_10hf_ddec_spin_density
 _atom_site_hse06_10hf_ddec_sum_bond_order
 _atom_site_hse06_10hf_magmom
 _atom_site_hse06_bader_spin_density
 _atom_site_hse06_ddec_charge
 _atom_site_hse06_ddec_spin_density
 _atom_site_hse06_ddec_sum_bond_order
 _atom_site_hse06_magmom
 _atom_site_pbe_bader_spin_density
 _atom_site_pbe_cm5_charge
 _atom_site_pbe_ddec_charge
 _atom_site_pbe_ddec_spin_density
 _atom_site_pbe_ddec_sum_bond_order
 _atom_site_pbe_magmom
Cd  Cd0  1  0.35001759  0.87331110  0.38177416  1  0  1.205337  0  1.631013  0  0  1.017399  0  2.082329  0  0  1.075572  0  2.026692  0  0  0.782222  0.975648  0  2.120729  0
Cd  Cd1  1  0.14998156  0.62668936  0.88177359  1  0  1.205362  0  1.630956  0  0  1.017399  0  2.082269  0  0  1.075575  0  2.026634  0  0  0.782262  0.97567  0  2.120681  0
Cd  Cd2  1  0.64998170  0.12668868  0.61822602  1  0  1.205339  0  1.631012  0  0  1.017401  0  2.08233  0  0  1.075575  0  2.026693  0  0  0.782225  0.975654  0  2.120736  0
Cd  Cd3  1  0.85001814  0.37331146  0.11822659  1  0  1.205382  0  1.630979  0  0  1.017418  0  2.082294  0  0  1.075594  0  2.026657  0  0  0.782258  0.975687  0  2.120708  0
H  H4  1  0.73780849  0.49277400  0.65186097  1  0  0.130551  0  0.948027  0  0  0.137806  0  1.010785  0  0  0.142004  0  1.005994  0  0  0.144879  0.134577  0  1.014452  0
H  H5  1  0.76219059  0.00722720  0.15185978  1  0  0.13056  0  0.948042  0  0  0.137815  0  1.010792  0  0  0.142013  0  1.005999  0  0  0.144888  0.134584  0  1.014452  0
H  H6  1  0.26219218  0.50722577  0.34813921  1  0  0.130542  0  0.948025  0  0  0.137798  0  1.010784  0  0  0.141996  0  1.005991  0  0  0.144882  0.134568  0  1.014448  0
H  H7  1  0.23780911  0.99277362  0.84813955  1  0  0.130563  0  0.94805  0  0  0.137813  0  1.010796  0  0  0.14201  0  1.006006  0  0  0.144888  0.134583  0  1.014455  0
H  H8  1  0.65417155  0.50672191  0.44235083  1  0  0.121405  0  0.925998  0  0  0.130554  0  0.990712  0  0  0.132836  0  0.989548  0  0  0.120101  0.128778  0  0.9918  0
H  H9  1  0.84582796  0.99327667  0.94235057  1  0  0.121382  0  0.925989  0  0  0.130555  0  0.990709  0  0  0.132837  0  0.989544  0  0  0.12011  0.128785  0  0.991794  0
H  H10  1  0.34582731  0.49327682  0.55765021  1  0  0.121378  0  0.926024  0  0  0.130561  0  0.990723  0  0  0.13285  0  0.989557  0  0  0.120093  0.128793  0  0.991803  0
H  H11  1  0.15417270  0.00672311  0.05764876  1  0  0.121372  0  0.92601  0  0  0.130547  0  0.990716  0  0  0.13283  0  0.98955  0  0  0.120097  0.128774  0  0.991802  0
H  H12  1  0.83908763  0.60823831  0.34730499  1  0  0.148001  0  0.940486  0  0  0.155712  0  1.006966  0  0  0.159187  0  1.004119  0  0  0.12611  0.153219  0  1.008987  0
H  H13  1  0.66091211  0.89176228  0.84730433  1  0  0.147997  0  0.940477  0  0  0.155771  0  1.006924  0  0  0.159247  0  1.004075  0  0  0.126143  0.153283  0  1.008943  0
H  H14  1  0.16091304  0.39176147  0.65269519  1  0  0.148014  0  0.940499  0  0  0.15575  0  1.006978  0  0  0.159224  0  1.004132  0  0  0.126137  0.153259  0  1.009006  0
H  H15  1  0.33908759  0.10823854  0.15269499  1  0  0.147979  0  0.94048  0  0  0.155704  0  1.006967  0  0  0.159178  0  1.004121  0  0  0.12612  0.153213  0  1.008985  0
H  H16  1  0.99914209  0.94073518  0.38441109  1  0  0.425354  0  0.874328  0  0  0.39341  0  0.939361  0  0  0.404197  0  0.923848  0  0  0.288084  0.385702  0  0.950426  0
H  H17  1  0.50085789  0.55926544  0.88441106  1  0  0.42534  0  0.874345  0  0  0.393394  0  0.939379  0  0  0.404182  0  0.923865  0  0  0.288087  0.385692  0  0.950437  0
H  H18  1  0.00085719  0.05926459  0.61558909  1  0  0.425354  0  0.874331  0  0  0.393412  0  0.939359  0  0  0.404199  0  0.923845  0  0  0.28809  0.385705  0  0.950424  0
H  H19  1  0.49914320  0.44073538  0.11558912  1  0  0.425363  0  0.874324  0  0  0.393418  0  0.939356  0  0  0.404205  0  0.923842  0  0  0.288095  0.385714  0  0.950417  0
H  H20  1  0.16757732  0.06586421  0.43366111  1  0  0.420863  0  0.879506  0  0  0.389221  0  0.944225  0  0  0.399296  0  0.929806  0  0  0.289487  0.382082  0  0.954439  0
H  H21  1  0.33242234  0.43413601  0.93366084  1  0  0.420872  0  0.879489  0  0  0.389233  0  0.944203  0  0  0.399308  0  0.929785  0  0  0.289504  0.382098  0  0.954416  0
H  H22  1  0.83242335  0.93413557  0.56633907  1  0  0.420868  0  0.879498  0  0  0.389229  0  0.944213  0  0  0.399304  0  0.929795  0  0  0.289495  0.382092  0  0.954426  0
H  H23  1  0.66757735  0.56586481  0.06633848  1  0  0.420866  0  0.879502  0  0  0.389219  0  0.944223  0  0  0.399295  0  0.929803  0  0  0.289498  0.382087  0  0.95443  0
C  C24  1  0.14852764  0.72113490  0.62125441  1  0  0.172425  0  3.800259  0  0  0.152446  0  4.074956  0  0  0.158649  0  4.089473  0  0  0.206818  0.148168  0  4.065621  0
C  C25  1  0.35147315  0.77886328  0.12125416  1  0  0.17239  0  3.800414  0  0  0.152412  0  4.075106  0  0  0.158615  0  4.089622  0  0  0.206827  0.148129  0  4.065792  0
C  C26  1  0.85147261  0.27886384  0.37874663  1  0  0.172479  0  3.800255  0  0  0.152464  0  4.075017  0  0  0.158666  0  4.089534  0  0  0.206838  0.148192  0  4.06568  0
C  C27  1  0.64852432  0.22113546  0.87874602  1  0  0.172369  0  3.80048  0  0  0.152422  0  4.075148  0  0  0.158626  0  4.089666  0  0  0.206832  0.148138  0  4.065826  0
C  C28  1  0.34168104  0.81191426  0.65796853  1  0  0.627986  0  3.934194  0  0  0.576964  0  4.226554  0  0  0.611985  0  4.217122  0  0  0.215052  0.552953  0  4.232754  0
C  C29  1  0.15832096  0.68808290  0.15795841  1  0  0.628057  0  3.934001  0  0  0.577044  0  4.22633  0  0  0.612066  0  4.216894  0  0  0.21513  0.553023  0  4.232543  0
C  C30  1  0.65831921  0.18808448  0.34203165  1  0  0.628018  0  3.934165  0  0  0.576987  0  4.226564  0  0  0.612009  0  4.217132  0  0  0.215058  0.552969  0  4.232768  0
C  C31  1  0.84168055  0.31191896  0.84204005  1  0  0.628072  0  3.934046  0  0  0.577058  0  4.22638  0  0  0.61208  0  4.216946  0  0  0.215152  0.553052  0  4.232576  0
C  C32  1  0.86939564  0.57355202  0.62886032  1  0  0.202252  0  3.557407  0  0  0.121362  0  3.829551  0  0  0.136383  0  3.837877  0  0  0.172319  0.111655  0  3.823835  0
C  C33  1  0.63060588  0.92644944  0.12885863  1  0  0.202223  0  3.557298  0  0  0.121379  0  3.829442  0  0  0.136404  0  3.837764  0  0  0.172331  0.111679  0  3.823705  0
C  C34  1  0.13060364  0.42644775  0.37113986  1  0  0.202296  0  3.557369  0  0  0.121444  0  3.829522  0  0  0.13647  0  3.837844  0  0  0.17235  0.11174  0  3.823798  0
C  C35  1  0.36939381  0.07355138  0.87114070  1  0  0.202211  0  3.557318  0  0  0.121387  0  3.829431  0  0  0.13641  0  3.837753  0  0  0.172328  0.111684  0  3.8237  0
C  C36  1  0.76009717  0.60836139  0.42825864  1  0  -0.193245  0  3.585045  0  0  -0.263898  0  3.830143  0  0  -0.265614  0  3.834727  0  0  -0.054008  -0.262337  0  3.826821  0
C  C37  1  0.73990267  0.89163822  0.92825817  1  0  -0.193194  0  3.58494  0  0  -0.263967  0  3.830194  0  0  -0.26568  0  3.834773  0  0  -0.05404  -0.262409  0  3.826872  0
C  C38  1  0.23990169  0.39163734  0.57174154  1  0  -0.193244  0  3.585016  0  0  -0.263961  0  3.830251  0  0  -0.265681  0  3.834838  0  0  -0.054016  -0.262404  0  3.826939  0
C  C39  1  0.26009800  0.10836156  0.07174116  1  0  -0.193176  0  3.584937  0  0  -0.263894  0  3.830155  0  0  -0.265608  0  3.834737  0  0  -0.054003  -0.262334  0  3.826827  0
C  C40  1  0.66044692  0.72476896  0.42144794  1  0  0.705275  0  3.841531  0  0  0.653871  0  4.146348  0  0  0.68724  0  4.13951  0  0  0.21475  0.631167  0  4.15  0
C  C41  1  0.83955149  0.77523065  0.92144861  1  0  0.705259  0  3.841618  0  0  0.653887  0  4.146419  0  0  0.68726  0  4.139575  0  0  0.214746  0.631185  0  4.150068  0
C  C42  1  0.33955236  0.27523082  0.57855310  1  0  0.705357  0  3.841441  0  0  0.653925  0  4.146337  0  0  0.687297  0  4.139494  0  0  0.214732  0.631215  0  4.149997  0
C  C43  1  0.16044820  0.22477017  0.07855157  1  0  0.705252  0  3.841594  0  0  0.653868  0  4.146404  0  0  0.687239  0  4.139561  0  0  0.214724  0.631168  0  4.150049  0
N  N44  1  0.07576674  0.72563603  0.51675037  1  0  -0.28383  0  2.967872  0  0  -0.270587  0  3.234829  0  0  -0.280086  0  3.248323  0  0  -0.208321  -0.264125  0  3.226097  0
N  N45  1  0.42423338  0.77436206  0.01675116  1  0  -0.283869  0  2.967917  0  0  -0.270582  0  3.234888  0  0  -0.280078  0  3.248383  0  0  -0.208313  -0.264124  0  3.226177  0
N  N46  1  0.92423351  0.27436270  0.48324895  1  0  -0.283849  0  2.967981  0  0  -0.270562  0  3.234979  0  0  -0.280056  0  3.248473  0  0  -0.208292  -0.26411  0  3.226258  0
N  N47  1  0.57576771  0.22563876  0.98324817  1  0  -0.283882  0  2.967965  0  0  -0.270642  0  3.234967  0  0  -0.280139  0  3.248462  0  0  -0.208357  -0.264184  0  3.22625  0
N  N48  1  0.89853838  0.63107220  0.52249920  1  0  0.090462  0  3.532863  0  0  0.201785  0  3.728739  0  0  0.193855  0  3.74949  0  0  -0.122465  0.206574  0  3.714869  0
N  N49  1  0.60146120  0.86892606  0.02249918  1  0  0.090501  0  3.53275  0  0  0.201741  0  3.72877  0  0  0.193794  0  3.749552  0  0  -0.122491  0.206531  0  3.714902  0
N  N50  1  0.10146187  0.36892653  0.47750099  1  0  0.090496  0  3.532806  0  0  0.201743  0  3.72881  0  0  0.193792  0  3.749602  0  0  -0.122498  0.206539  0  3.714934  0
N  N51  1  0.39853947  0.13107372  0.97750101  1  0  0.09053  0  3.532715  0  0  0.201778  0  3.728701  0  0  0.193838  0  3.749471  0  0  -0.122476  0.206572  0  3.714827  0
N  N52  1  0.02667659  0.62806663  0.69255236  1  0  -0.409834  0  3.176952  0  0  -0.348689  0  3.466008  0  0  -0.369352  0  3.4794  0  0  -0.3332  -0.334735  0  3.456628  0
N  N53  1  0.47332508  0.87193264  0.19255322  1  0  -0.409772  0  3.176806  0  0  -0.348636  0  3.465848  0  0  -0.369296  0  3.479236  0  0  -0.333178  -0.334665  0  3.456445  0
N  N54  1  0.97332505  0.37193211  0.30744696  1  0  -0.409904  0  3.176895  0  0  -0.348747  0  3.465971  0  0  -0.369409  0  3.47936  0  0  -0.333225  -0.334791  0  3.456586  0
N  N55  1  0.52667600  0.12806818  0.80744697  1  0  -0.409793  0  3.176884  0  0  -0.348672  0  3.46592  0  0  -0.369334  0  3.479308  0  0  -0.33319  -0.334709  0  3.456526  0
O  O56  1  0.47785695  0.68478356  0.40579488  1  0  -0.648965  0  2.015438  0  0  -0.586874  0  2.267716  0  0  -0.618545  0  2.260357  0  0  -0.319203  -0.564659  0  2.272237  0
O  O57  1  0.02214193  0.81521587  0.90579479  1  0  -0.648953  0  2.015419  0  0  -0.586865  0  2.26768  0  0  -0.618534  0  2.260318  0  0  -0.319188  -0.564638  0  2.272192  0
O  O58  1  0.52214233  0.31521621  0.59420530  1  0  -0.648999  0  2.015384  0  0  -0.586883  0  2.267675  0  0  -0.618554  0  2.260314  0  0  -0.319196  -0.56466  0  2.272193  0
O  O59  1  0.97785735  0.18478391  0.09420368  1  0  -0.648981  0  2.015435  0  0  -0.586877  0  2.267695  0  0  -0.618546  0  2.260333  0  0  -0.319186  -0.564654  0  2.272209  0
O  O60  1  0.76308597  0.85024409  0.42969619  1  0  -0.656529  0  2.003408  0  0  -0.593322  0  2.224611  0  0  -0.619386  0  2.215268  0  0  -0.315055  -0.574722  0  2.230495  0
O  O61  1  0.73691389  0.64975552  0.92969582  1  0  -0.656521  0  2.003486  0  0  -0.59331  0  2.224664  0  0  -0.619377  0  2.215322  0  0  -0.315033  -0.574702  0  2.230546  0
O  O62  1  0.23691331  0.14975568  0.57030485  1  0  -0.656579  0  2.003379  0  0  -0.593342  0  2.224589  0  0  -0.619409  0  2.215246  0  0  -0.315044  -0.574737  0  2.230474  0
O  O63  1  0.26308539  0.35024426  0.07030436  1  0  -0.656519  0  2.003499  0  0  -0.593308  0  2.224686  0  0  -0.619371  0  2.215343  0  0  -0.315027  -0.574701  0  2.230567  0
O  O64  1  0.39629543  0.79483859  0.75818468  1  0  -0.591553  0  1.9939  0  0  -0.538841  0  2.233545  0  0  -0.565272  0  2.224342  0  0  -0.301417  -0.520184  0  2.239274  0
O  O65  1  0.10370375  0.70516386  0.25819076  1  0  -0.591657  0  1.993275  0  0  -0.538976  0  2.232944  0  0  -0.565413  0  2.22374  0  0  -0.301527  -0.520303  0  2.238682  0
O  O66  1  0.60370566  0.20516223  0.24181551  1  0  -0.591565  0  1.993906  0  0  -0.538832  0  2.233552  0  0  -0.565265  0  2.224348  0  0  -0.301409  -0.520167  0  2.239268  0
O  O67  1  0.89629691  0.29483592  0.74180943  1  0  -0.591652  0  1.993321  0  0  -0.538981  0  2.233015  0  0  -0.565416  0  2.223808  0  0  -0.301526  -0.520315  0  2.23875  0
O  O68  1  0.13081695  0.00307774  0.36643250  1  0  -0.816906  0  1.839665  0  0  -0.754805  0  2.021648  0  0  -0.778071  0  1.989669  0  0  -0.586894  -0.738391  0  2.043957  0
O  O69  1  0.36918228  0.49692243  0.86643228  1  0  -0.816885  0  1.839655  0  0  -0.754783  0  2.021639  0  0  -0.77805  0  1.989662  0  0  -0.586877  -0.738359  0  2.04394  0
O  O70  1  0.86918233  0.99692204  0.63356769  1  0  -0.816916  0  1.839685  0  0  -0.75481  0  2.021652  0  0  -0.778077  0  1.989672  0  0  -0.586898  -0.738394  0  2.043959  0
O  O71  1  0.63081839  0.50307735  0.13356790  1  0  -0.816904  0  1.839672  0  0  -0.754794  0  2.02166  0  0  -0.778063  0  1.98968  0  0  -0.586881  -0.738373  0  2.043961  0
O  O72  1  0.43313990  0.90131396  0.58405500  1  0  -0.649076  0  2.128662  0  0  -0.573542  0  2.396325  0  0  -0.604903  0  2.38342  0  0  -0.319342  -0.551449  0  2.404739  0
O  O73  1  0.06686371  0.59868836  0.08405846  1  0  -0.649067  0  2.129076  0  0  -0.573487  0  2.396689  0  0  -0.604849  0  2.383796  0  0  -0.319308  -0.551399  0  2.40512  0
O  O74  1  0.56686077  0.09868582  0.41594518  1  0  -0.649105  0  2.128661  0  0  -0.573557  0  2.396341  0  0  -0.604913  0  2.383424  0  0  -0.319346  -0.551461  0  2.404754  0
O  O75  1  0.93313695  0.40131142  0.91594172  1  0  -0.649027  0  2.129095  0  0  -0.573476  0  2.396747  0  0  -0.60484  0  2.383859  0  0  -0.319311  -0.551391  0  2.40517  0
