# generated using pymatgen
data_AgH14C18(NO)2
_symmetry_space_group_name_H-M   'P 1'
_cell_length_a   9.24935671
_cell_length_b   12.39683270
_cell_length_c   14.27339918
_cell_angle_alpha   86.93265705
_cell_angle_beta   81.80986160
_cell_angle_gamma   68.09229089
_symmetry_Int_Tables_number   1
_chemical_formula_structural   AgH14C18(NO)2
_chemical_formula_sum   'Ag4 H56 C72 N8 O8'
_cell_volume   1502.95257359
_cell_formula_units_Z   4
loop_
 _symmetry_equiv_pos_site_id
 _symmetry_equiv_pos_as_xyz
  1  'x, y, z'
loop_
 _atom_site_type_symbol
 _atom_site_label
 _atom_site_symmetry_multiplicity
 _atom_site_fract_x
 _atom_site_fract_y
 _atom_site_fract_z
 _atom_site_occupancy
 _atom_site_hle17_bader_spin_density
 _atom_site_hle17_ddec_charge
 _atom_site_hle17_ddec_spin_density
 _atom_site_hle17_ddec_sum_bond_order
 _atom_site_hle17_magmom
 _atom_site_hse06_10hf_bader_spin_density
 _atom_site_hse06_10hf_ddec_charge
 _atom_site_hse06_10hf_ddec_spin_density
 _atom_site_hse06_10hf_ddec_sum_bond_order
 _atom_site_hse06_10hf_magmom
 _atom_site_hse06_bader_spin_density
 _atom_site_hse06_ddec_charge
 _atom_site_hse06_ddec_spin_density
 _atom_site_hse06_ddec_sum_bond_order
 _atom_site_hse06_magmom
 _atom_site_pbe_bader_spin_density
 _atom_site_pbe_cm5_charge
 _atom_site_pbe_ddec_charge
 _atom_site_pbe_ddec_spin_density
 _atom_site_pbe_ddec_sum_bond_order
 _atom_site_pbe_magmom
Ag  Ag0  1  0.27289097  0.24033129  0.33158937  1  0  0.53693  0  1.497651  0  0  0.409501  0  1.977243  0  0  0.444469  0  1.917536  0  0  0.429625  0.384591  0  2.019041  0
Ag  Ag1  1  0.48701988  0.24003743  0.16828149  1  0  0.53722  0  1.499456  0  0  0.410116  0  1.979207  0  0  0.444918  0  1.919701  0  0  0.430416  0.385412  0  2.020768  0
Ag  Ag2  1  0.72710903  0.75967101  0.66840955  1  0  0.536936  0  1.497619  0  0  0.409522  0  1.977187  0  0  0.444481  0  1.9175  0  0  0.429636  0.384614  0  2.018989  0
Ag  Ag3  1  0.51298185  0.75996139  0.83171743  1  0  0.537221  0  1.499512  0  0  0.410111  0  1.979277  0  0  0.444903  0  1.919785  0  0  0.430435  0.385408  0  2.020838  0
H  H4  1  0.92424903  0.30844620  0.35909099  1  0  0.147726  0  0.936693  0  0  0.169284  0  0.99428  0  0  0.17128  0  0.993028  0  0  0.106745  0.167831  0  0.99516  0
H  H5  1  0.76745667  0.30838862  0.14109806  1  0  0.14762  0  0.936374  0  0  0.168956  0  0.994453  0  0  0.17098  0  0.993164  0  0  0.106616  0.167453  0  0.995397  0
H  H6  1  0.07574855  0.69155436  0.64090891  1  0  0.147713  0  0.936689  0  0  0.169278  0  0.994269  0  0  0.171274  0  0.993017  0  0  0.106746  0.167825  0  0.995148  0
H  H7  1  0.23254117  0.69161107  0.85890815  1  0  0.147622  0  0.936433  0  0  0.168965  0  0.994493  0  0  0.170994  0  0.993196  0  0  0.10661  0.167451  0  0.995449  0
H  H8  1  0.76009338  0.43450747  0.33809038  1  0  0.124981  0  0.948782  0  0  0.148709  0  1.002202  0  0  0.150601  0  1.001145  0  0  0.099201  0.147507  0  1.002621  0
H  H9  1  0.80540549  0.43449644  0.16203794  1  0  0.123639  0  0.948937  0  0  0.147621  0  1.002387  0  0  0.149517  0  1.00134  0  0  0.098555  0.146414  0  1.002811  0
H  H10  1  0.23990487  0.56549396  0.66190873  1  0  0.12492  0  0.948849  0  0  0.14867  0  1.002247  0  0  0.150562  0  1.00119  0  0  0.099166  0.147467  0  1.002665  0
H  H11  1  0.19459609  0.56550238  0.83796661  1  0  0.123711  0  0.948879  0  0  0.147693  0  1.002316  0  0  0.149588  0  1.001272  0  0  0.098601  0.146488  0  1.002736  0
H  H12  1  0.79540469  0.39243814  0.45565009  1  0  0.128199  0  0.986587  0  0  0.145764  0  1.051534  0  0  0.146721  0  1.054163  0  0  0.097049  0.144952  0  1.049959  0
H  H13  1  0.81240920  0.39234624  0.04450078  1  0  0.127462  0  0.987214  0  0  0.145616  0  1.051769  0  0  0.146572  0  1.054408  0  0  0.097098  0.144788  0  1.050245  0
H  H14  1  0.20459286  0.60756242  0.54435051  1  0  0.128206  0  0.986653  0  0  0.145778  0  1.051581  0  0  0.146736  0  1.054209  0  0  0.097065  0.144967  0  1.050008  0
H  H15  1  0.18759218  0.60765084  0.95550316  1  0  0.127484  0  0.987187  0  0  0.145601  0  1.051775  0  0  0.146557  0  1.054415  0  0  0.097104  0.144773  0  1.050251  0
H  H16  1  0.71289580  0.57402987  0.24993414  1  0  0.074229  0  1.002539  0  0  0.085448  0  1.071031  0  0  0.08768  0  1.069806  0  0  0.09434  0.083864  0  1.07171  0
H  H17  1  0.28709957  0.42597069  0.75006664  1  0  0.074225  0  1.002521  0  0  0.085438  0  1.071025  0  0  0.087671  0  1.069798  0  0  0.094317  0.083852  0  1.071705  0
H  H18  1  0.20239651  0.06061006  0.36284412  1  0  0.090659  0  0.990969  0  0  0.100062  0  1.059852  0  0  0.103171  0  1.057656  0  0  0.090767  0.097926  0  1.061651  0
H  H19  1  0.73690886  0.06097144  0.13702660  1  0  0.090623  0  0.991655  0  0  0.100272  0  1.060253  0  0  0.103368  0  1.058068  0  0  0.090584  0.098146  0  1.062027  0
H  H20  1  0.79760108  0.93939050  0.63715508  1  0  0.090652  0  0.990942  0  0  0.100046  0  1.059835  0  0  0.103154  0  1.057641  0  0  0.090775  0.09791  0  1.061635  0
H  H21  1  0.26309591  0.93902564  0.86297285  1  0  0.090625  0  0.991702  0  0  0.100292  0  1.060279  0  0  0.10339  0  1.058091  0  0  0.090576  0.098164  0  1.06205  0
H  H22  1  0.73282437  0.72331292  0.46952177  1  0  0.086431  0  0.93225  0  0  0.096169  0  1.009789  0  0  0.098495  0  1.006161  0  0  0.110326  0.094096  0  1.013044  0
H  H23  1  0.54384405  0.72314512  0.03018738  1  0  0.086381  0  0.932654  0  0  0.096327  0  1.009946  0  0  0.09862  0  1.006396  0  0  0.110629  0.094383  0  1.013043  0
H  H24  1  0.26717271  0.27668851  0.53048023  1  0  0.086445  0  0.932198  0  0  0.096175  0  1.009754  0  0  0.098498  0  1.006131  0  0  0.110346  0.094102  0  1.013008  0
H  H25  1  0.45615394  0.27685457  0.96981322  1  0  0.086346  0  0.932673  0  0  0.096307  0  1.00996  0  0  0.098599  0  1.006409  0  0  0.110623  0.094368  0  1.013061  0
H  H26  1  0.67168794  0.61046793  0.44530475  1  0  0.083035  0  0.922401  0  0  0.102788  0  0.979553  0  0  0.103168  0  0.979904  0  0  0.115935  0.101998  0  0.980413  0
H  H27  1  0.71788980  0.61035556  0.05448372  1  0  0.083445  0  0.921937  0  0  0.102974  0  0.979311  0  0  0.103352  0  0.97967  0  0  0.11629  0.102214  0  0.98015  0
H  H28  1  0.32831197  0.38953003  0.55469716  1  0  0.083065  0  0.922382  0  0  0.10282  0  0.979542  0  0  0.103199  0  0.979893  0  0  0.115953  0.10202  0  0.980414  0
H  H29  1  0.28211039  0.38964413  0.94551600  1  0  0.083462  0  0.92194  0  0  0.103  0  0.979307  0  0  0.103377  0  0.979665  0  0  0.1163  0.102245  0  0.980152  0
H  H30  1  0.92829199  0.11627812  0.32986144  1  0  0.109149  0  0.959795  0  0  0.117572  0  1.025458  0  0  0.121479  0  1.022075  0  0  0.104632  0.114598  0  1.028255  0
H  H31  1  0.95539749  0.11657832  0.16992344  1  0  0.109558  0  0.959769  0  0  0.117677  0  1.025765  0  0  0.121558  0  1.02241  0  0  0.104804  0.11473  0  1.028505  0
H  H32  1  0.07170760  0.88372070  0.67013626  1  0  0.109144  0  0.959875  0  0  0.117567  0  1.025532  0  0  0.121472  0  1.022151  0  0  0.104617  0.11459  0  1.028331  0
H  H33  1  0.04460039  0.88342398  0.83007285  1  0  0.109519  0  0.959808  0  0  0.117658  0  1.025787  0  0  0.121535  0  1.022439  0  0  0.10479  0.11471  0  1.028524  0
H  H34  1  0.40326026  0.97545769  0.47182632  1  0  0.101688  0  0.989951  0  0  0.107453  0  1.060552  0  0  0.111224  0  1.057396  0  0  0.099626  0.105201  0  1.062222  0
H  H35  1  0.62119704  0.97562969  0.02823194  1  0  0.100589  0  0.989975  0  0  0.106837  0  1.060555  0  0  0.110661  0  1.057269  0  0  0.098922  0.104561  0  1.062283  0
H  H36  1  0.59673841  0.02454287  0.52817349  1  0  0.101693  0  0.989923  0  0  0.107458  0  1.06053  0  0  0.111228  0  1.057374  0  0  0.099637  0.105209  0  1.062191  0
H  H37  1  0.37880404  0.02436827  0.97176708  1  0  0.100609  0  0.99002  0  0  0.106849  0  1.060604  0  0  0.110673  0  1.05732  0  0  0.098936  0.104572  0  1.062332  0
H  H38  1  0.94865687  0.80331011  0.40283766  1  0  0.105815  0  0.96281  0  0  0.115626  0  1.025808  0  0  0.117396  0  1.026818  0  0  0.103323  0.11423  0  1.02578  0
H  H39  1  0.24807260  0.80310639  0.09704755  1  0  0.104893  0  0.963457  0  0  0.115002  0  1.026043  0  0  0.116723  0  1.027017  0  0  0.103372  0.113801  0  1.025793  0
H  H40  1  0.05134502  0.19669045  0.59716399  1  0  0.105835  0  0.962793  0  0  0.115636  0  1.025796  0  0  0.117413  0  1.026801  0  0  0.103326  0.114238  0  1.025768  0
H  H41  1  0.75192888  0.19689504  0.90295269  1  0  0.104905  0  0.963453  0  0  0.115016  0  1.026034  0  0  0.116735  0  1.027009  0  0  0.103384  0.11381  0  1.025792  0
H  H42  1  0.22142591  0.80146440  0.38580783  1  0  0.090471  0  0.971296  0  0  0.101907  0  1.030285  0  0  0.103361  0  1.031792  0  0  0.097375  0.101013  0  1.029075  0
H  H43  1  0.97714024  0.80126041  0.11417681  1  0  0.090207  0  0.970755  0  0  0.102072  0  1.029336  0  0  0.1036  0  1.030758  0  0  0.097286  0.101147  0  1.028159  0
H  H44  1  0.77857626  0.19853355  0.61419109  1  0  0.090479  0  0.971288  0  0  0.101896  0  1.030295  0  0  0.103351  0  1.031804  0  0  0.097371  0.101002  0  1.029084  0
H  H45  1  0.02286240  0.19874102  0.88582124  1  0  0.090129  0  0.970797  0  0  0.101985  0  1.029396  0  0  0.103513  0  1.03082  0  0  0.097268  0.10106  0  1.028216  0
H  H46  1  0.41974349  0.42693521  0.35206916  1  0  0.104239  0  0.947881  0  0  0.113802  0  1.01235  0  0  0.117282  0  1.009589  0  0  0.101464  0.111187  0  1.014383  0
H  H47  1  0.15351195  0.42670214  0.14793855  1  0  0.104572  0  0.948303  0  0  0.11409  0  1.012744  0  0  0.117638  0  1.00992  0  0  0.101694  0.111501  0  1.01471  0
H  H48  1  0.58025670  0.57306448  0.64793056  1  0  0.104253  0  0.947879  0  0  0.113805  0  1.012357  0  0  0.117285  0  1.009597  0  0  0.101468  0.111191  0  1.014392  0
H  H49  1  0.84648795  0.57330016  0.85206389  1  0  0.104601  0  0.94829  0  0  0.114126  0  1.012724  0  0  0.117674  0  1.009899  0  0  0.101715  0.111536  0  1.014692  0
H  H50  1  0.45147929  0.61869070  0.36195749  1  0  0.078023  0  0.989389  0  0  0.089957  0  1.051736  0  0  0.091732  0  1.05226  0  0  0.090304  0.088298  0  1.052473  0
H  H51  1  0.92995075  0.61844783  0.13810788  1  0  0.077821  0  0.989226  0  0  0.089972  0  1.051325  0  0  0.09173  0  1.051845  0  0  0.090326  0.088327  0  1.052027  0
H  H52  1  0.54852137  0.38130812  0.63804082  1  0  0.078019  0  0.989377  0  0  0.089925  0  1.051761  0  0  0.091699  0  1.052286  0  0  0.090312  0.088274  0  1.052487  0
H  H53  1  0.07004921  0.38155446  0.86189245  1  0  0.077822  0  0.989234  0  0  0.089978  0  1.051327  0  0  0.091735  0  1.051847  0  0  0.090332  0.088331  0  1.052031  0
H  H54  1  0.62348555  0.89725293  0.38658176  1  0  0.097527  0  0.973028  0  0  0.107309  0  1.037914  0  0  0.109577  0  1.037399  0  0  0.101766  0.105618  0  1.038529  0
H  H55  1  0.47938881  0.89718432  0.11291778  1  0  0.097851  0  0.972029  0  0  0.107802  0  1.036798  0  0  0.110099  0  1.036269  0  0  0.101781  0.106142  0  1.037303  0
H  H56  1  0.37651423  0.10274763  0.61341726  1  0  0.097587  0  0.973006  0  0  0.107339  0  1.037926  0  0  0.109631  0  1.037382  0  0  0.101775  0.105648  0  1.038542  0
H  H57  1  0.52061251  0.10281537  0.88708044  1  0  0.09787  0  0.972077  0  0  0.107825  0  1.036824  0  0  0.110121  0  1.036297  0  0  0.101801  0.106165  0  1.037331  0
H  H58  1  0.49753961  0.00501817  0.24971218  1  0  0.084031  0  0.987047  0  0  0.087305  0  1.063992  0  0  0.090997  0  1.060689  0  0  0.094058  0.0847  0  1.066417  0
H  H59  1  0.50246167  0.99498152  0.75028745  1  0  0.084029  0  0.987031  0  0  0.087306  0  1.06397  0  0  0.090998  0  1.060667  0  0  0.094063  0.084697  0  1.066408  0
C  C60  1  0.85302464  0.39709717  0.38351037  1  0  -0.396964  0  3.695642  0  0  -0.476131  0  3.928915  0  0  -0.480323  0  3.934511  0  0  -0.232311  -0.473004  0  3.924488  0
C  C61  1  0.74999997  0.39702939  0.11661429  1  0  -0.394114  0  3.694715  0  0  -0.47382  0  3.92757  0  0  -0.478045  0  3.933264  0  0  -0.231608  -0.470721  0  3.923234  0
C  C62  1  0.14697360  0.60290426  0.61648874  1  0  -0.396887  0  3.695727  0  0  -0.476082  0  3.928962  0  0  -0.480278  0  3.934566  0  0  -0.232286  -0.47295  0  3.92453  0
C  C63  1  0.25000053  0.60296943  0.88339034  1  0  -0.394224  0  3.694792  0  0  -0.473889  0  3.927643  0  0  -0.478118  0  3.933335  0  0  -0.231662  -0.470783  0  3.92332  0
C  C64  1  0.95622783  0.46477371  0.38091110  1  0  0.406966  0  3.680511  0  0  0.378504  0  3.959605  0  0  0.397967  0  3.972067  0  0  0.230666  0.365885  0  3.950246  0
C  C65  1  0.57912821  0.46463483  0.11908582  1  0  0.404795  0  3.682819  0  0  0.375499  0  3.962281  0  0  0.394898  0  3.974836  0  0  0.229784  0.362939  0  3.952911  0
C  C66  1  0.04377044  0.53522772  0.61908730  1  0  0.406908  0  3.680536  0  0  0.378453  0  3.959622  0  0  0.397915  0  3.972086  0  0  0.230644  0.365832  0  3.950265  0
C  C67  1  0.42087185  0.53536486  0.88091881  1  0  0.404683  0  3.683069  0  0  0.375394  0  3.962522  0  0  0.394793  0  3.975081  0  0  0.229708  0.362832  0  3.953151  0
C  C68  1  0.66557471  0.66882184  0.24986332  1  0  -0.172068  0  3.753948  0  0  -0.203618  0  4.007926  0  0  -0.205936  0  4.027686  0  0  -0.097789  -0.201023  0  3.993673  0
C  C69  1  0.33442326  0.33117785  0.75013798  1  0  -0.172046  0  3.753877  0  0  -0.203623  0  4.007842  0  0  -0.205944  0  4.027604  0  0  -0.097737  -0.201028  0  3.993587  0
C  C70  1  0.16555760  0.50924918  0.37212428  1  0  0.139938  0  3.865658  0  0  0.135281  0  4.114417  0  0  0.138655  0  4.139429  0  0  0.07846  0.133084  0  4.097024  0
C  C71  1  0.32534065  0.50905385  0.12782575  1  0  0.140378  0  3.866593  0  0  0.136412  0  4.115143  0  0  0.139782  0  4.140142  0  0  0.078841  0.134229  0  4.097743  0
C  C72  1  0.83444145  0.49075051  0.62787763  1  0  0.13997  0  3.865648  0  0  0.135342  0  4.114393  0  0  0.138719  0  4.139401  0  0  0.078503  0.133145  0  4.097  0
C  C73  1  0.67465951  0.49095019  0.87217519  1  0  0.140456  0  3.866532  0  0  0.136439  0  4.115125  0  0  0.13981  0  4.140124  0  0  0.078867  0.134255  0  4.097723  0
C  C74  1  0.03390460  0.61459964  0.38716050  1  0  0.105057  0  3.779466  0  0  0.097268  0  4.021034  0  0  0.101186  0  4.043551  0  0  0.091756  0.094829  0  4.005855  0
C  C75  1  0.35158414  0.61441393  0.11272912  1  0  0.104738  0  3.78052  0  0  0.094988  0  4.023222  0  0  0.098915  0  4.045686  0  0  0.090922  0.092559  0  4.00809  0
C  C76  1  0.96609556  0.38540005  0.61284062  1  0  0.105114  0  3.779418  0  0  0.097299  0  4.021002  0  0  0.10122  0  4.043517  0  0  0.091742  0.094858  0  4.005819  0
C  C77  1  0.64841621  0.38558750  0.88727262  1  0  0.104632  0  3.780624  0  0  0.094938  0  4.023302  0  0  0.098865  0  4.045769  0  0  0.090946  0.092509  0  4.008165  0
C  C78  1  0.67334714  0.72838732  0.32824672  1  0  0.068711  0  3.758987  0  0  0.091792  0  3.996571  0  0  0.091079  0  4.020504  0  0  -0.0147  0.091807  0  3.980487  0
C  C79  1  0.59830895  0.72831365  0.17141130  1  0  0.069164  0  3.760693  0  0  0.092125  0  3.998423  0  0  0.091431  0  4.022397  0  0  -0.014715  0.092177  0  3.982308  0
C  C80  1  0.32665043  0.27161324  0.67175317  1  0  0.068673  0  3.759033  0  0  0.091769  0  3.996596  0  0  0.091052  0  4.020539  0  0  -0.014734  0.091783  0  3.98051  0
C  C81  1  0.40169231  0.27168604  0.82858903  1  0  0.069181  0  3.760615  0  0  0.092216  0  3.998252  0  0  0.091524  0  4.022224  0  0  -0.014718  0.092273  0  3.982141  0
C  C82  1  0.17360502  0.02383790  0.43109564  1  0  -0.127148  0  3.753722  0  0  -0.14227  0  4.000874  0  0  -0.145943  0  4.021342  0  0  -0.094158  -0.140231  0  3.988017  0
C  C83  1  0.80245809  0.02410085  0.06882342  1  0  -0.12748  0  3.754474  0  0  -0.142567  0  4.002193  0  0  -0.146261  0  4.022651  0  0  -0.093855  -0.14045  0  3.989142  0
C  C84  1  0.82639517  0.97616179  0.56890408  1  0  -0.12714  0  3.753657  0  0  -0.142247  0  4.000813  0  0  -0.145919  0  4.021274  0  0  -0.094144  -0.140207  0  3.987958  0
C  C85  1  0.19754281  0.97589971  0.93117411  1  0  -0.12756  0  3.754609  0  0  -0.142681  0  4.002309  0  0  -0.146377  0  4.022766  0  0  -0.093852  -0.140562  0  3.989253  0
C  C86  1  0.74013834  0.66251816  0.41412435  1  0  -0.020608  0  3.647547  0  0  -0.088106  0  3.896749  0  0  -0.082861  0  3.906475  0  0  -0.043165  -0.091158  0  3.890598  0
C  C87  1  0.59738082  0.66239339  0.08563344  1  0  -0.020636  0  3.647925  0  0  -0.088561  0  3.896628  0  0  -0.083284  0  3.90627  0  0  -0.04369  -0.091787  0  3.890612  0
C  C88  1  0.25986072  0.33748153  0.58587686  1  0  -0.020615  0  3.647513  0  0  -0.088131  0  3.896746  0  0  -0.082877  0  3.906456  0  0  -0.043179  -0.091182  0  3.890606  0
C  C89  1  0.40261934  0.33760630  0.91436768  1  0  -0.020658  0  3.647844  0  0  -0.088635  0  3.896603  0  0  -0.083352  0  3.906228  0  0  -0.043724  -0.091886  0  3.890615  0
C  C90  1  0.74993314  0.07751262  0.42251438  1  0  -0.062377  0  3.765172  0  0  -0.03796  0  3.996583  0  0  -0.045994  0  4.019667  0  0  -0.021969  -0.032985  0  3.981682  0
C  C91  1  0.17258169  0.07754162  0.07728959  1  0  -0.062181  0  3.766585  0  0  -0.037867  0  3.997889  0  0  -0.045816  0  4.020859  0  0  -0.022082  -0.032763  0  3.982905  0
C  C92  1  0.25006487  0.92248707  0.57748552  1  0  -0.06227  0  3.765129  0  0  -0.03786  0  3.996531  0  0  -0.045883  0  4.019604  0  0  -0.021928  -0.032885  0  3.981628  0
C  C93  1  0.82742077  0.92245808  0.92270644  1  0  -0.062226  0  3.766609  0  0  -0.037937  0  3.997936  0  0  -0.045883  0  4.020904  0  0  -0.022128  -0.032833  0  3.98295  0
C  C94  1  0.90040258  0.07667283  0.39657302  1  0  -0.107877  0  3.687194  0  0  -0.135994  0  3.926567  0  0  -0.135577  0  3.945059  0  0  -0.078959  -0.13635  0  3.914563  0
C  C95  1  0.02287703  0.07688595  0.10324592  1  0  -0.108743  0  3.689279  0  0  -0.136371  0  3.928777  0  0  -0.13595  0  3.947228  0  0  -0.079246  -0.136687  0  3.91666  0
C  C96  1  0.09959634  0.92332512  0.60342548  1  0  -0.107974  0  3.687377  0  0  -0.136079  0  3.926746  0  0  -0.135671  0  3.945235  0  0  -0.078972  -0.136434  0  3.91474  0
C  C97  1  0.97712263  0.92311722  0.89674950  1  0  -0.108725  0  3.689369  0  0  -0.136394  0  3.92887  0  0  -0.135972  0  3.94732  0  0  -0.079249  -0.136707  0  3.916747  0
C  C98  1  0.62352581  0.13507256  0.36052642  1  0  0.632182  0  3.935442  0  0  0.585197  0  4.212567  0  0  0.62053  0  4.207803  0  0  0.195938  0.561095  0  4.214857  0
C  C99  1  0.24135955  0.13524646  0.13915890  1  0  0.631417  0  3.937846  0  0  0.58446  0  4.214896  0  0  0.619749  0  4.210184  0  0  0.196553  0.560409  0  4.217116  0
C  C100  1  0.37647090  0.86492540  0.63947295  1  0  0.632191  0  3.935389  0  0  0.585211  0  4.212522  0  0  0.620542  0  4.207757  0  0  0.195958  0.561112  0  4.214809  0
C  C101  1  0.75864337  0.86475237  0.86083643  1  0  0.631461  0  3.938046  0  0  0.584541  0  4.215021  0  0  0.619832  0  4.210306  0  0  0.196604  0.560488  0  4.217244  0
C  C102  1  0.28570915  0.97467517  0.49070368  1  0  -0.085382  0  3.761933  0  0  -0.111738  0  4.016439  0  0  -0.111396  0  4.036117  0  0  -0.09459  -0.111754  0  4.003422  0
C  C103  1  0.73952653  0.97482025  0.00936116  1  0  -0.084293  0  3.761553  0  0  -0.111084  0  4.015936  0  0  -0.110772  0  4.035596  0  0  -0.093973  -0.111221  0  4.002876  0
C  C104  1  0.71429104  0.02532452  0.50929604  1  0  -0.085359  0  3.761935  0  0  -0.111721  0  4.016443  0  0  -0.111375  0  4.03612  0  0  -0.094589  -0.111736  0  4.003424  0
C  C105  1  0.26047610  0.02517683  0.99063706  1  0  -0.0843  0  3.761641  0  0  -0.111099  0  4.016047  0  0  -0.11079  0  4.035713  0  0  -0.094028  -0.111235  0  4.002985  0
C  C106  1  0.04964946  0.72182782  0.39218598  1  0  -0.143499  0  3.740409  0  0  -0.160138  0  3.988814  0  0  -0.163227  0  4.009554  0  0  -0.093427  -0.157856  0  3.975035  0
C  C107  1  0.22855685  0.72164447  0.10767968  1  0  -0.141348  0  3.739146  0  0  -0.157727  0  3.987963  0  0  -0.160726  0  4.008757  0  0  -0.092521  -0.155601  0  3.974107  0
C  C108  1  0.95035133  0.27817274  0.60781576  1  0  -0.143585  0  3.740431  0  0  -0.16021  0  3.988844  0  0  -0.163308  0  4.009582  0  0  -0.093451  -0.157927  0  3.97506  0
C  C109  1  0.77144355  0.27835696  0.89232065  1  0  -0.141337  0  3.739202  0  0  -0.157728  0  3.98801  0  0  -0.160728  0  4.008804  0  0  -0.092521  -0.155603  0  3.974148  0
C  C110  1  0.20288999  0.72001456  0.38254469  1  0  -0.06417  0  3.764566  0  0  -0.078374  0  4.013076  0  0  -0.079941  0  4.035107  0  0  -0.094918  -0.077059  0  3.997313  0
C  C111  1  0.07715853  0.71981475  0.11736260  1  0  -0.064934  0  3.764379  0  0  -0.079682  0  4.01304  0  0  -0.081324  0  4.03503  0  0  -0.095421  -0.078423  0  3.997494  0
C  C112  1  0.79711063  0.27998427  0.61745503  1  0  -0.064148  0  3.764575  0  0  -0.078333  0  4.013071  0  0  -0.079899  0  4.035102  0  0  -0.094908  -0.077019  0  3.997306  0
C  C113  1  0.92284191  0.28018668  0.88263632  1  0  -0.064817  0  3.764438  0  0  -0.079551  0  4.013088  0  0  -0.081192  0  4.035079  0  0  -0.095388  -0.078293  0  3.997539  0
C  C114  1  0.31840221  0.50833893  0.36386504  1  0  -0.149221  0  3.762058  0  0  -0.167477  0  4.016436  0  0  -0.17009  0  4.036001  0  0  -0.098734  -0.165519  0  4.003037  0
C  C115  1  0.17341168  0.50811478  0.13613787  1  0  -0.150568  0  3.763327  0  0  -0.168999  0  4.017777  0  0  -0.17166  0  4.037266  0  0  -0.099263  -0.167056  0  4.004404  0
C  C116  1  0.68159906  0.49166076  0.63613529  1  0  -0.149283  0  3.762053  0  0  -0.167537  0  4.016433  0  0  -0.170152  0  4.035997  0  0  -0.098752  -0.165582  0  4.003042  0
C  C117  1  0.82659001  0.49188839  0.86386298  1  0  -0.150621  0  3.763334  0  0  -0.169044  0  4.017808  0  0  -0.171707  0  4.037297  0  0  -0.099262  -0.167103  0  4.00444  0
C  C118  1  0.33450296  0.61517054  0.36931291  1  0  -0.085095  0  3.79377  0  0  -0.10184  0  4.047048  0  0  -0.103832  0  4.069115  0  0  -0.105361  -0.100118  0  4.032416  0
C  C119  1  0.05044156  0.61494112  0.13068125  1  0  -0.083923  0  3.793298  0  0  -0.100834  0  4.046682  0  0  -0.102806  0  4.068789  0  0  -0.105045  -0.099124  0  4.032092  0
C  C120  1  0.66549812  0.38482742  0.63068611  1  0  -0.085082  0  3.793686  0  0  -0.101803  0  4.046968  0  0  -0.103793  0  4.069036  0  0  -0.105372  -0.100086  0  4.032334  0
C  C121  1  0.94955739  0.38506118  0.86931636  1  0  -0.083915  0  3.793404  0  0  -0.100837  0  4.046798  0  0  -0.102808  0  4.068906  0  0  -0.105069  -0.099129  0  4.032208  0
C  C122  1  0.61506966  0.84983237  0.32678439  1  0  -0.112095  0  3.723023  0  0  -0.131149  0  3.958937  0  0  -0.134341  0  3.982478  0  0  -0.087887  -0.128713  0  3.943851  0
C  C123  1  0.53522170  0.84977205  0.17273430  1  0  -0.111551  0  3.721463  0  0  -0.130839  0  3.957598  0  0  -0.13408  0  3.9811  0  0  -0.086892  -0.128313  0  3.942391  0
C  C124  1  0.38492901  0.15016819  0.67321542  1  0  -0.112091  0  3.723029  0  0  -0.131125  0  3.958939  0  0  -0.134336  0  3.982475  0  0  -0.08784  -0.128691  0  3.943854  0
C  C125  1  0.46478176  0.15022765  0.82726516  1  0  -0.111664  0  3.721543  0  0  -0.130976  0  3.957655  0  0  -0.134217  0  3.981153  0  0  -0.08696  -0.128453  0  3.94245  0
C  C126  1  0.01859731  0.02551536  0.45582236  1  0  0.055203  0  3.795856  0  0  0.074108  0  4.016415  0  0  0.073763  0  4.040697  0  0  -0.00629  0.074337  0  4.000226  0
C  C127  1  0.95582742  0.02567425  0.04409093  1  0  0.056033  0  3.795225  0  0  0.074352  0  4.016901  0  0  0.074038  0  4.041125  0  0  -0.006278  0.074566  0  4.000609  0
C  C128  1  0.98140223  0.97448346  0.54417745  1  0  0.055279  0  3.795904  0  0  0.074165  0  4.016459  0  0  0.073831  0  4.040732  0  0  -0.006318  0.074389  0  4.000276  0
C  C129  1  0.04417089  0.97432718  0.95590607  1  0  0.05614  0  3.795187  0  0  0.074541  0  4.016803  0  0  0.07423  0  4.041027  0  0  -0.006231  0.074754  0  4.000511  0
C  C130  1  0.54488049  0.91029680  0.24972987  1  0  -0.037731  0  3.746271  0  0  -0.045855  0  3.986903  0  0  -0.048711  0  4.010979  0  0  -0.086366  -0.044746  0  3.971633  0
C  C131  1  0.45512038  0.08970376  0.75026906  1  0  -0.037702  0  3.746258  0  0  -0.045817  0  3.986874  0  0  -0.048673  0  4.010954  0  0  -0.086385  -0.044712  0  3.971606  0
N  N132  1  0.90340095  0.58303297  0.39388848  1  0  -0.1719  0  3.464201  0  0  -0.089348  0  3.688311  0  0  -0.107548  0  3.712218  0  0  -0.239471  -0.077169  0  3.671923  0
N  N133  1  0.51365057  0.58288600  0.10601553  1  0  -0.172544  0  3.46591  0  0  -0.087455  0  3.687686  0  0  -0.105589  0  3.711588  0  0  -0.23945  -0.075349  0  3.671376  0
N  N134  1  0.09659922  0.41696672  0.60611194  1  0  -0.171897  0  3.46416  0  0  -0.089329  0  3.688261  0  0  -0.107532  0  3.712173  0  0  -0.239461  -0.077147  0  3.671871  0
N  N135  1  0.48634955  0.41711369  0.89398700  1  0  -0.172451  0  3.465871  0  0  -0.087399  0  3.68768  0  0  -0.105535  0  3.711582  0  0  -0.239461  -0.075285  0  3.671378  0
N  N136  1  0.11295943  0.41856707  0.36771322  1  0  -0.472263  0  3.246226  0  0  -0.406979  0  3.554496  0  0  -0.430849  0  3.566869  0  0  -0.371146  -0.390643  0  3.545333  0
N  N137  1  0.46866400  0.41838305  0.13228674  1  0  -0.471395  0  3.247611  0  0  -0.406363  0  3.555793  0  0  -0.430181  0  3.568148  0  0  -0.371117  -0.390246  0  3.546792  0
N  N138  1  0.88703921  0.58143349  0.63228729  1  0  -0.472239  0  3.246239  0  0  -0.406971  0  3.554493  0  0  -0.430841  0  3.566866  0  0  -0.371145  -0.390639  0  3.545335  0
N  N139  1  0.53133482  0.58161924  0.86771579  1  0  -0.471323  0  3.247678  0  0  -0.406277  0  3.555861  0  0  -0.430094  0  3.568216  0  0  -0.371097  -0.39016  0  3.546861  0
O  O140  1  0.48787420  0.13260513  0.39163553  1  0  -0.631952  0  2.109438  0  0  -0.553607  0  2.381163  0  0  -0.585278  0  2.369383  0  0  -0.333918  -0.531137  0  2.387817  0
O  O141  1  0.37934272  0.13292155  0.10790094  1  0  -0.631397  0  2.109505  0  0  -0.553074  0  2.38137  0  0  -0.584801  0  2.369812  0  0  -0.334323  -0.53071  0  2.387925  0
O  O142  1  0.51212119  0.86739543  0.60836454  1  0  -0.631976  0  2.109383  0  0  -0.553634  0  2.381112  0  0  -0.585299  0  2.369323  0  0  -0.333936  -0.531162  0  2.387761  0
O  O143  1  0.62065825  0.86707902  0.89209378  1  0  -0.631477  0  2.10968  0  0  -0.553167  0  2.381553  0  0  -0.584888  0  2.369975  0  0  -0.334409  -0.530803  0  2.388113  0
O  O144  1  0.65927427  0.18157386  0.28373595  1  0  -0.636994  0  2.026295  0  0  -0.569005  0  2.278961  0  0  -0.598369  0  2.267114  0  0  -0.336398  -0.548187  0  2.286332  0
O  O145  1  0.15925732  0.18172432  0.21596499  1  0  -0.637197  0  2.026092  0  0  -0.569195  0  2.278654  0  0  -0.598509  0  2.26672  0  0  -0.336766  -0.548471  0  2.286086  0
O  O146  1  0.34072568  0.81842410  0.71626456  1  0  -0.637018  0  2.026246  0  0  -0.569033  0  2.278923  0  0  -0.598397  0  2.267072  0  0  -0.336427  -0.548216  0  2.286292  0
O  O147  1  0.84075054  0.81827103  0.78403289  1  0  -0.637156  0  2.026217  0  0  -0.569174  0  2.278765  0  0  -0.598489  0  2.266831  0  0  -0.336725  -0.548446  0  2.286189  0
