# generated using pymatgen
data_HgH4C(N3Cl)2
_symmetry_space_group_name_H-M   'P 1'
_cell_length_a   4.14644714
_cell_length_b   9.89847990
_cell_length_c   17.68334174
_cell_angle_alpha   90.00025680
_cell_angle_beta   89.99962774
_cell_angle_gamma   91.29037504
_symmetry_Int_Tables_number   1
_chemical_formula_structural   HgH4C(N3Cl)2
_chemical_formula_sum   'Hg4 H16 C4 N24 Cl8'
_cell_volume   725.60260055
_cell_formula_units_Z   4
loop_
 _symmetry_equiv_pos_site_id
 _symmetry_equiv_pos_as_xyz
  1  'x, y, z'
loop_
 _atom_site_type_symbol
 _atom_site_label
 _atom_site_symmetry_multiplicity
 _atom_site_fract_x
 _atom_site_fract_y
 _atom_site_fract_z
 _atom_site_occupancy
 _atom_site_hle17_bader_spin_density
 _atom_site_hle17_ddec_charge
 _atom_site_hle17_ddec_spin_density
 _atom_site_hle17_ddec_sum_bond_order
 _atom_site_hle17_magmom
 _atom_site_hse06_10hf_bader_spin_density
 _atom_site_hse06_10hf_ddec_charge
 _atom_site_hse06_10hf_ddec_spin_density
 _atom_site_hse06_10hf_ddec_sum_bond_order
 _atom_site_hse06_10hf_magmom
 _atom_site_hse06_bader_spin_density
 _atom_site_hse06_ddec_charge
 _atom_site_hse06_ddec_spin_density
 _atom_site_hse06_ddec_sum_bond_order
 _atom_site_hse06_magmom
 _atom_site_pbe_bader_spin_density
 _atom_site_pbe_cm5_charge
 _atom_site_pbe_ddec_charge
 _atom_site_pbe_ddec_spin_density
 _atom_site_pbe_ddec_sum_bond_order
 _atom_site_pbe_magmom
Hg  Hg0  1  0.67656439  0.38658464  0.59705058  1  0  0.794714  0  2.059132  0  0  0.646149  0  2.557048  0  0  0.694568  0  2.521438  0  0  0.495469  0.612435  0  2.581479  0
Hg  Hg1  1  0.32343952  0.11341052  0.09705056  1  0  0.794704  0  2.059107  0  0  0.646126  0  2.556996  0  0  0.694543  0  2.521388  0  0  0.495475  0.612418  0  2.581414  0
Hg  Hg2  1  0.32343834  0.61341398  0.40295095  1  0  0.79469  0  2.059177  0  0  0.646127  0  2.557091  0  0  0.694543  0  2.521484  0  0  0.495458  0.612422  0  2.581502  0
Hg  Hg3  1  0.67656068  0.88658609  0.90294872  1  0  0.794668  0  2.059148  0  0  0.646106  0  2.557058  0  0  0.694524  0  2.521447  0  0  0.495471  0.612396  0  2.581484  0
H  H4  1  0.32401121  0.33163485  0.93731792  1  0  0.279332  0  0.934991  0  0  0.262601  0  1.015507  0  0  0.267358  0  1.011031  0  0  0.280984  0.259001  0  1.019134  0
H  H5  1  0.67599075  0.16836291  0.43731862  1  0  0.279309  0  0.934988  0  0  0.262617  0  1.015437  0  0  0.267375  0  1.01096  0  0  0.280978  0.259016  0  1.019067  0
H  H6  1  0.67598682  0.66836580  0.06268136  1  0  0.279316  0  0.934967  0  0  0.262639  0  1.015444  0  0  0.267398  0  1.010965  0  0  0.280965  0.259034  0  1.019082  0
H  H7  1  0.32400927  0.83163066  0.56268178  1  0  0.279286  0  0.934962  0  0  0.262602  0  1.015413  0  0  0.267359  0  1.010936  0  0  0.280971  0.259001  0  1.019041  0
H  H8  1  0.64658276  0.42366735  0.96357018  1  0  0.29093  0  0.91322  0  0  0.279946  0  0.979745  0  0  0.284855  0  0.97544  0  0  0.291209  0.276415  0  0.982865  0
H  H9  1  0.35341366  0.07633061  0.46357227  1  0  0.290921  0  0.913191  0  0  0.279943  0  0.979695  0  0  0.284853  0  0.97539  0  0  0.291225  0.276411  0  0.982814  0
H  H10  1  0.35340779  0.57632926  0.03642910  1  0  0.290974  0  0.913123  0  0  0.279984  0  0.979674  0  0  0.284893  0  0.975369  0  0  0.291254  0.276453  0  0.982794  0
H  H11  1  0.64658901  0.92366700  0.53642530  1  0  0.290997  0  0.913038  0  0  0.280005  0  0.979586  0  0  0.284916  0  0.975279  0  0  0.291276  0.276472  0  0.982708  0
H  H12  1  0.23388766  0.59333541  0.82697945  1  0  0.336812  0  0.922438  0  0  0.311743  0  1.002453  0  0  0.319209  0  0.99606  0  0  0.286093  0.306403  0  1.007164  0
H  H13  1  0.76612046  0.90666104  0.32698514  1  0  0.336742  0  0.922249  0  0  0.311688  0  1.002281  0  0  0.319156  0  0.995889  0  0  0.285996  0.306345  0  1.006997  0
H  H14  1  0.76611284  0.40666625  0.17302039  1  0  0.336829  0  0.922364  0  0  0.311762  0  1.002386  0  0  0.319228  0  0.995995  0  0  0.286074  0.306421  0  1.007099  0
H  H15  1  0.23387974  0.09333557  0.67301470  1  0  0.336737  0  0.922341  0  0  0.31167  0  1.002399  0  0  0.319138  0  0.996005  0  0  0.285979  0.306328  0  1.007114  0
H  H16  1  0.28685961  0.58884027  0.72883845  1  0  0.346992  0  0.890581  0  0  0.324732  0  0.963431  0  0  0.331545  0  0.95786  0  0  0.299555  0.319942  0  0.96734  0
H  H17  1  0.71313946  0.91116150  0.22884480  1  0  0.347039  0  0.890651  0  0  0.324827  0  0.963441  0  0  0.331639  0  0.957873  0  0  0.299684  0.320036  0  0.96735  0
H  H18  1  0.71314107  0.41116442  0.27116139  1  0  0.347021  0  0.890579  0  0  0.32483  0  0.963334  0  0  0.331641  0  0.957768  0  0  0.299613  0.32004  0  0.967242  0
H  H19  1  0.28686086  0.08883712  0.77115617  1  0  0.34706  0  0.890726  0  0  0.324866  0  0.963451  0  0  0.331677  0  0.957882  0  0  0.299705  0.320076  0  0.967361  0
C  C20  1  0.54068769  0.45018452  0.78800280  1  0  0.515823  0  3.844502  0  0  0.458257  0  4.130826  0  0  0.482036  0  4.141021  0  0  0.350019  0.442347  0  4.123536  0
C  C21  1  0.45932029  0.04980501  0.28800636  1  0  0.51563  0  3.844461  0  0  0.458038  0  4.130848  0  0  0.48182  0  4.141055  0  0  0.349946  0.442128  0  4.123556  0
C  C22  1  0.45931986  0.54981409  0.21199987  1  0  0.515609  0  3.844504  0  0  0.458118  0  4.130779  0  0  0.481914  0  4.140976  0  0  0.349946  0.442195  0  4.123501  0
C  C23  1  0.54068667  0.95018350  0.71199461  1  0  0.515817  0  3.84415  0  0  0.458136  0  4.130671  0  0  0.481918  0  4.140873  0  0  0.349992  0.442225  0  4.123385  0
N  N24  1  0.70783180  0.38620446  0.73395964  1  0  -0.40271  0  3.089108  0  0  -0.340593  0  3.388435  0  0  -0.365545  0  3.403375  0  0  -0.241095  -0.323859  0  3.378148  0
N  N25  1  0.29216890  0.11379983  0.23395853  1  0  -0.402642  0  3.088672  0  0  -0.340467  0  3.387946  0  0  -0.365396  0  3.402816  0  0  -0.241052  -0.323731  0  3.377656  0
N  N26  1  0.29216436  0.61380529  0.26604133  1  0  -0.402567  0  3.088814  0  0  -0.340479  0  3.388123  0  0  -0.365388  0  3.402929  0  0  -0.241047  -0.323754  0  3.377871  0
N  N27  1  0.70784131  0.88620282  0.76604131  1  0  -0.402566  0  3.08876  0  0  -0.340425  0  3.388133  0  0  -0.365358  0  3.403014  0  0  -0.241028  -0.323691  0  3.377848  0
N  N28  1  0.87950691  0.28800114  0.76901158  1  0  -0.036447  0  3.013839  0  0  -0.035312  0  3.322519  0  0  -0.029701  0  3.332893  0  0  -0.086706  -0.038654  0  3.315306  0
N  N29  1  0.12049036  0.21200242  0.26901324  1  0  -0.036509  0  3.013902  0  0  -0.035382  0  3.322589  0  0  -0.029767  0  3.332968  0  0  -0.086748  -0.038728  0  3.315377  0
N  N30  1  0.12048683  0.71200861  0.23098770  1  0  -0.03662  0  3.013795  0  0  -0.035449  0  3.322451  0  0  -0.029837  0  3.332833  0  0  -0.086762  -0.038791  0  3.315233  0
N  N31  1  0.87951237  0.78799621  0.73098659  1  0  -0.036589  0  3.013888  0  0  -0.035443  0  3.322573  0  0  -0.029827  0  3.332948  0  0  -0.086778  -0.038787  0  3.31536  0
N  N32  1  0.82633177  0.28701707  0.84063496  1  0  -0.135983  0  2.879794  0  0  -0.133482  0  3.179967  0  0  -0.13233  0  3.187758  0  0  -0.089984  -0.134094  0  3.174805  0
N  N33  1  0.17367069  0.21298500  0.34063541  1  0  -0.135966  0  2.87984  0  0  -0.133467  0  3.180017  0  0  -0.132322  0  3.187813  0  0  -0.089982  -0.134077  0  3.174853  0
N  N34  1  0.17366897  0.71298863  0.15936488  1  0  -0.135883  0  2.879741  0  0  -0.133389  0  3.179912  0  0  -0.132241  0  3.187709  0  0  -0.089977  -0.134002  0  3.174748  0
N  N35  1  0.82632945  0.78701059  0.65936442  1  0  -0.135901  0  2.879713  0  0  -0.133425  0  3.179908  0  0  -0.132279  0  3.187704  0  0  -0.089949  -0.134035  0  3.174744  0
N  N36  1  0.61270737  0.38850954  0.85440640  1  0  0.104394  0  3.503126  0  0  0.162211  0  3.768837  0  0  0.153189  0  3.785915  0  0  -0.058298  0.167751  0  3.756892  0
N  N37  1  0.38729948  0.11149162  0.35440571  1  0  0.104372  0  3.50309  0  0  0.16222  0  3.768775  0  0  0.153194  0  3.785855  0  0  -0.058279  0.167761  0  3.756829  0
N  N38  1  0.38729572  0.61149514  0.14559513  1  0  0.104355  0  3.503169  0  0  0.16217  0  3.768859  0  0  0.153136  0  3.78594  0  0  -0.058303  0.167715  0  3.756914  0
N  N39  1  0.61270343  0.88851004  0.64559413  1  0  0.104258  0  3.503  0  0  0.162154  0  3.768692  0  0  0.153127  0  3.785773  0  0  -0.058312  0.167696  0  3.756748  0
N  N40  1  0.47011774  0.41297238  0.92337993  1  0  -0.533791  0  2.982355  0  0  -0.533589  0  3.234613  0  0  -0.541797  0  3.234195  0  0  -0.500343  -0.526488  0  3.235106  0
N  N41  1  0.52988441  0.08702224  0.42338235  1  0  -0.533762  0  2.982213  0  0  -0.533582  0  3.234493  0  0  -0.541788  0  3.234074  0  0  -0.50038  -0.526479  0  3.234986  0
N  N42  1  0.52987781  0.58702726  0.07662047  1  0  -0.53379  0  2.982256  0  0  -0.533653  0  3.234444  0  0  -0.54186  0  3.234028  0  0  -0.500354  -0.526549  0  3.23494  0
N  N43  1  0.47010397  0.91297842  0.57661410  1  0  -0.533772  0  2.981921  0  0  -0.533617  0  3.234164  0  0  -0.541823  0  3.233745  0  0  -0.500415  -0.526515  0  3.234659  0
N  N44  1  0.34746521  0.55472814  0.78093880  1  0  -0.675318  0  3.164032  0  0  -0.643611  0  3.415638  0  0  -0.664193  0  3.412807  0  0  -0.574478  -0.629191  0  3.417403  0
N  N45  1  0.65252535  0.94527606  0.28093176  1  0  -0.675124  0  3.164293  0  0  -0.643526  0  3.415921  0  0  -0.664115  0  3.413099  0  0  -0.574433  -0.629108  0  3.417685  0
N  N46  1  0.65253559  0.44527857  0.21906443  1  0  -0.675216  0  3.164234  0  0  -0.643629  0  3.415824  0  0  -0.664226  0  3.412999  0  0  -0.574457  -0.629205  0  3.417593  0
N  N47  1  0.34746562  0.05472763  0.71906977  1  0  -0.675342  0  3.164023  0  0  -0.643612  0  3.415539  0  0  -0.664198  0  3.41271  0  0  -0.574506  -0.629193  0  3.417309  0
Cl  Cl48  1  0.99955454  0.19488250  0.56803804  1  0  -0.443424  0  1.08515  0  0  -0.379098  0  1.385839  0  0  -0.397299  0  1.365395  0  0  -0.231443  -0.367452  0  1.400688  0
Cl  Cl49  1  0.00044063  0.30511447  0.06803900  1  0  -0.443473  0  1.085091  0  0  -0.379088  0  1.385717  0  0  -0.39729  0  1.365275  0  0  -0.231467  -0.367444  0  1.400564  0
Cl  Cl50  1  0.00044566  0.80511410  0.43196406  1  0  -0.443446  0  1.085183  0  0  -0.37909  0  1.38585  0  0  -0.397299  0  1.365421  0  0  -0.231457  -0.367447  0  1.400696  0
Cl  Cl51  1  0.99955240  0.69488315  0.93196141  1  0  -0.443435  0  1.085106  0  0  -0.379063  0  1.385736  0  0  -0.397275  0  1.365316  0  0  -0.23145  -0.367416  0  1.400582  0
Cl  Cl52  1  0.27088074  0.55665628  0.58732048  1  0  -0.441283  0  1.220631  0  0  -0.379949  0  1.55542  0  0  -0.401894  0  1.534274  0  0  -0.220962  -0.364546  0  1.570161  0
Cl  Cl53  1  0.72912198  0.94334137  0.08732011  1  0  -0.441258  0  1.220593  0  0  -0.379935  0  1.555412  0  0  -0.401895  0  1.534289  0  0  -0.220966  -0.364533  0  1.57015  0
Cl  Cl54  1  0.72912205  0.44334335  0.41267766  1  0  -0.441262  0  1.220591  0  0  -0.379952  0  1.555403  0  0  -0.401913  0  1.534286  0  0  -0.220965  -0.36455  0  1.570139  0
Cl  Cl55  1  0.27088316  0.05665725  0.91267690  1  0  -0.441251  0  1.220588  0  0  -0.37996  0  1.555422  0  0  -0.401899  0  1.534257  0  0  -0.220966  -0.364559  0  1.570163  0
