# generated using pymatgen
data_CuH5C5N6O
_symmetry_space_group_name_H-M   'P 1'
_cell_length_a   5.34570245
_cell_length_b   5.41565797
_cell_length_c   25.69366756
_cell_angle_alpha   92.34298043
_cell_angle_beta   90.00064518
_cell_angle_gamma   89.99943607
_symmetry_Int_Tables_number   1
_chemical_formula_structural   CuH5C5N6O
_chemical_formula_sum   'Cu4 H20 C20 N24 O4'
_cell_volume   743.22257524
_cell_formula_units_Z   4
loop_
 _symmetry_equiv_pos_site_id
 _symmetry_equiv_pos_as_xyz
  1  'x, y, z'
loop_
 _atom_site_type_symbol
 _atom_site_label
 _atom_site_symmetry_multiplicity
 _atom_site_fract_x
 _atom_site_fract_y
 _atom_site_fract_z
 _atom_site_occupancy
 _atom_site_pbe_bader_spin_density
 _atom_site_pbe_cm5_charge
 _atom_site_pbe_ddec_charge
 _atom_site_pbe_ddec_spin_density
 _atom_site_pbe_ddec_sum_bond_order
 _atom_site_pbe_magmom
Cu  Cu0  1  0.80246314  0.14390734  0.71044699  1  0  0.617026  0.465013  0  2.574688  0
Cu  Cu1  1  0.69754096  0.64393379  0.21045378  1  0  0.616996  0.464967  0  2.574891  0
Cu  Cu2  1  0.19753687  0.85605613  0.28955042  1  0  0.617054  0.465058  0  2.574878  0
Cu  Cu3  1  0.30246280  0.35605425  0.78955194  1  0  0.617002  0.464991  0  2.57476  0
H  H4  1  0.79110560  0.55048688  0.62703666  1  0  0.120175  0.097607  0  1.034807  0
H  H5  1  0.70887763  0.05050224  0.12703798  1  0  0.120153  0.097553  0  1.034898  0
H  H6  1  0.20888506  0.44949887  0.37296243  1  0  0.12019  0.097614  0  1.034838  0
H  H7  1  0.29112426  0.94950944  0.87296203  1  0  0.120146  0.097502  0  1.034884  0
H  H8  1  0.27535391  0.98451564  0.66772589  1  0  0.114859  0.088282  0  1.052364  0
H  H9  1  0.22466530  0.48452914  0.16772918  1  0  0.114816  0.088282  0  1.052453  0
H  H10  1  0.72464984  0.01546253  0.33227043  1  0  0.114883  0.088371  0  1.052447  0
H  H11  1  0.77535529  0.51546588  0.83227035  1  0  0.114854  0.088335  0  1.05245  0
H  H12  1  0.55744634  0.08602497  0.59448354  1  0  0.118191  0.100623  0  1.022145  0
H  H13  1  0.94256078  0.58602096  0.09448406  1  0  0.118189  0.100609  0  1.022253  0
H  H14  1  0.44256490  0.91398482  0.40551607  1  0  0.11815  0.100566  0  1.022248  0
H  H15  1  0.05745794  0.41398517  0.90551592  1  0  0.118194  0.100615  0  1.022146  0
H  H16  1  0.20510741  0.92292767  0.48824424  1  0  0.29723  0.317653  0  0.983219  0
H  H17  1  0.29488472  0.42294242  0.98824467  1  0  0.297233  0.31765  0  0.983234  0
H  H18  1  0.79489447  0.07705813  0.51175563  1  0  0.29723  0.31762  0  0.983197  0
H  H19  1  0.70512278  0.57707490  0.01175693  1  0  0.297238  0.317609  0  0.983241  0
H  H20  1  0.39835608  0.68042052  0.51009336  1  0  0.304676  0.297245  0  1.000087  0
H  H21  1  0.10162496  0.18043285  0.01008939  1  0  0.304746  0.297318  0  1.000076  0
H  H22  1  0.60164580  0.31958373  0.48990622  1  0  0.304689  0.297251  0  1.000073  0
H  H23  1  0.89837131  0.81958054  0.98990869  1  0  0.304703  0.297232  0  1.00004  0
C  C24  1  0.12594583  0.50701825  0.58086946  1  0  0.115504  0.065064  0  3.97689  0
C  C25  1  0.37403366  0.00702667  0.08087343  1  0  0.115506  0.065075  0  3.976877  0
C  C26  1  0.87404670  0.49298030  0.41912776  1  0  0.115499  0.065045  0  3.976844  0
C  C27  1  0.62596448  0.99298716  0.91913127  1  0  0.115568  0.065351  0  3.976826  0
C  C28  1  0.96292245  0.44605333  0.62074165  1  0  0.05209  0.033953  0  3.874346  0
C  C29  1  0.53706583  0.94607938  0.12074733  1  0  0.05215  0.034077  0  3.874519  0
C  C30  1  0.03707382  0.55393773  0.37925397  1  0  0.052132  0.033993  0  3.874399  0
C  C31  1  0.46293418  0.05395112  0.87925785  1  0  0.052184  0.034133  0  3.874168  0
C  C32  1  0.22882467  0.13385433  0.64232576  1  0  0.04495  0.04497  0  3.917095  0
C  C33  1  0.27117967  0.63387061  0.14232915  1  0  0.045143  0.045157  0  3.917227  0
C  C34  1  0.77117347  0.86613873  0.35767220  1  0  0.045012  0.044872  0  3.917364  0
C  C35  1  0.72883531  0.36613739  0.85767123  1  0  0.045105  0.045021  0  3.917013  0
C  C36  1  0.38801459  0.19438798  0.60185393  1  0  0.047474  0.047656  0  3.943782  0
C  C37  1  0.11198674  0.69438155  0.10185413  1  0  0.04746  0.047612  0  3.943938  0
C  C38  1  0.61199103  0.80561997  0.39814568  1  0  0.047522  0.047738  0  3.943824  0
C  C39  1  0.88802076  0.30563026  0.89814783  1  0  0.047492  0.047699  0  3.943713  0
C  C40  1  0.06280521  0.71951477  0.54745795  1  0  0.236969  0.503693  0  4.173479  0
C  C41  1  0.43716644  0.21950553  0.04745533  1  0  0.236967  0.503688  0  4.173773  0
C  C42  1  0.93718357  0.28049695  0.45254284  1  0  0.237024  0.503752  0  4.173784  0
C  C43  1  0.56283357  0.78049664  0.95254074  1  0  0.236967  0.503523  0  4.174064  0
N  N44  1  0.57180614  0.42305104  0.73368394  1  0  -0.352268  -0.511105  0  3.399675  0
N  N45  1  0.92819844  0.92307129  0.23368612  1  0  -0.352388  -0.511175  0  3.399675  0
N  N46  1  0.42819575  0.57692175  0.26631469  1  0  -0.352293  -0.511095  0  3.399753  0
N  N47  1  0.07181092  0.07692193  0.76631418  1  0  -0.352221  -0.511077  0  3.39951  0
N  N48  1  0.60390711  0.62906630  0.71946380  1  0  0.071426  0.434041  0  4.41036  0
N  N49  1  0.89609205  0.12909664  0.21946715  1  0  0.071473  0.434172  0  4.410136  0
N  N50  1  0.39607419  0.37090091  0.28053441  1  0  0.071538  0.434308  0  4.409971  0
N  N51  1  0.10392854  0.87090048  0.78053628  1  0  0.071468  0.434257  0  4.409827  0
N  N52  1  0.62653879  0.82976585  0.70393550  1  0  -0.284341  -0.432445  0  3.162419  0
N  N53  1  0.87347243  0.32979268  0.20393840  1  0  -0.28428  -0.432514  0  3.162545  0
N  N54  1  0.37344626  0.17020137  0.29606271  1  0  -0.284426  -0.432724  0  3.162367  0
N  N55  1  0.12655003  0.67020450  0.79606581  1  0  -0.284384  -0.432653  0  3.162301  0
N  N56  1  0.33854497  0.38089974  0.57072914  1  0  -0.29497  -0.233752  0  3.297356  0
N  N57  1  0.16143208  0.88090594  0.07073185  1  0  -0.295026  -0.233779  0  3.297372  0
N  N58  1  0.66144943  0.61910647  0.42927202  1  0  -0.295034  -0.233773  0  3.297134  0
N  N59  1  0.83856232  0.11911334  0.92927132  1  0  -0.295093  -0.233961  0  3.2974  0
N  N60  1  0.01295000  0.25688415  0.65175082  1  0  -0.345209  -0.194192  0  3.647446  0
N  N61  1  0.48704433  0.75690569  0.15175313  1  0  -0.345294  -0.194334  0  3.647812  0
N  N62  1  0.98704253  0.74310702  0.34824636  1  0  -0.345283  -0.194192  0  3.647682  0
N  N63  1  0.51296317  0.24310585  0.84824494  1  0  -0.345361  -0.19436  0  3.647626  0
N  N64  1  0.23562121  0.77771063  0.51257883  1  0  -0.559395  -0.607811  0  3.37661  0
N  N65  1  0.26434779  0.27772714  0.01257755  1  0  -0.559421  -0.607849  0  3.376972  0
N  N66  1  0.76437319  0.22228443  0.48742148  1  0  -0.559418  -0.607782  0  3.376802  0
N  N67  1  0.73563726  0.72228995  0.98742055  1  0  -0.559388  -0.60766  0  3.377031  0
O  O68  1  0.85783039  0.83063816  0.55356659  1  0  -0.304395  -0.516495  0  2.168216  0
O  O69  1  0.64211949  0.33065623  0.05357130  1  0  -0.304422  -0.516543  0  2.168387  0
O  O70  1  0.14214718  0.16935318  0.44643331  1  0  -0.30446  -0.516602  0  2.168362  0
O  O71  1  0.35785620  0.66937796  0.94643391  1  0  -0.304474  -0.516545  0  2.168243  0
