# generated using pymatgen
data_YH6(C2O3)3
_symmetry_space_group_name_H-M   'P 1'
_cell_length_a   6.53807654
_cell_length_b   10.23790674
_cell_length_c   13.38021615
_cell_angle_alpha   89.99990859
_cell_angle_beta   89.99947731
_cell_angle_gamma   90.00003372
_symmetry_Int_Tables_number   1
_chemical_formula_structural   YH6(C2O3)3
_chemical_formula_sum   'Y4 H24 C24 O36'
_cell_volume   895.62106344
_cell_formula_units_Z   4
loop_
 _symmetry_equiv_pos_site_id
 _symmetry_equiv_pos_as_xyz
  1  'x, y, z'
loop_
 _atom_site_type_symbol
 _atom_site_label
 _atom_site_symmetry_multiplicity
 _atom_site_fract_x
 _atom_site_fract_y
 _atom_site_fract_z
 _atom_site_occupancy
 _atom_site_hle17_bader_spin_density
 _atom_site_hle17_ddec_charge
 _atom_site_hle17_ddec_spin_density
 _atom_site_hle17_ddec_sum_bond_order
 _atom_site_hle17_magmom
 _atom_site_hse06_10hf_bader_spin_density
 _atom_site_hse06_10hf_ddec_charge
 _atom_site_hse06_10hf_ddec_spin_density
 _atom_site_hse06_10hf_ddec_sum_bond_order
 _atom_site_hse06_10hf_magmom
 _atom_site_hse06_bader_spin_density
 _atom_site_hse06_ddec_charge
 _atom_site_hse06_ddec_spin_density
 _atom_site_hse06_ddec_sum_bond_order
 _atom_site_hse06_magmom
 _atom_site_pbe_bader_spin_density
 _atom_site_pbe_cm5_charge
 _atom_site_pbe_ddec_charge
 _atom_site_pbe_ddec_spin_density
 _atom_site_pbe_ddec_sum_bond_order
 _atom_site_pbe_magmom
Y  Y0  1  0.13326751  0.50000036  0.30032264  1  0  2.084101  0  1.799121  0  0  1.882053  0  2.294702  0  0  1.95578  0  2.224396  0  0  1.268303  1.82905  0  2.34298  0
Y  Y1  1  0.86673026  0.50000009  0.69967779  1  0  2.084123  0  1.799097  0  0  1.882024  0  2.294749  0  0  1.955745  0  2.224445  0  0  1.26831  1.829028  0  2.343024  0
Y  Y2  1  0.63326894  0.00000023  0.19967710  1  0  2.084053  0  1.799186  0  0  1.882018  0  2.294728  0  0  1.955753  0  2.224409  0  0  1.268278  1.829014  0  2.343003  0
Y  Y3  1  0.36673189  0.00000022  0.80032258  1  0  2.084006  0  1.799254  0  0  1.881961  0  2.294834  0  0  1.955695  0  2.224515  0  0  1.268297  1.828963  0  2.343107  0
H  H4  1  0.21569209  0.27445247  0.15402676  1  0  0.438092  0  0.853423  0  0  0.407795  0  0.914272  0  0  0.41835  0  0.89902  0  0  0.304296  0.400202  0  0.92527  0
H  H5  1  0.78430700  0.27445089  0.84597395  1  0  0.438062  0  0.853463  0  0  0.407755  0  0.914328  0  0  0.41831  0  0.899077  0  0  0.304287  0.400162  0  0.925327  0
H  H6  1  0.71569207  0.22554784  0.34597324  1  0  0.438083  0  0.853435  0  0  0.407782  0  0.914292  0  0  0.418338  0  0.899039  0  0  0.30429  0.400188  0  0.925292  0
H  H7  1  0.28430544  0.22554744  0.65402678  1  0  0.438071  0  0.853454  0  0  0.407771  0  0.914306  0  0  0.418326  0  0.899055  0  0  0.304286  0.400179  0  0.925304  0
H  H8  1  0.78430720  0.72554896  0.84597367  1  0  0.438068  0  0.853457  0  0  0.407763  0  0.914319  0  0  0.418318  0  0.899069  0  0  0.304297  0.400167  0  0.92532  0
H  H9  1  0.21569230  0.72554859  0.15402648  1  0  0.4381  0  0.853414  0  0  0.407803  0  0.914261  0  0  0.418358  0  0.89901  0  0  0.304304  0.400209  0  0.92526  0
H  H10  1  0.28430723  0.77445164  0.65402569  1  0  0.438081  0  0.853436  0  0  0.407772  0  0.914304  0  0  0.418327  0  0.899053  0  0  0.304281  0.400178  0  0.925304  0
H  H11  1  0.71569232  0.77445302  0.34597440  1  0  0.438078  0  0.853439  0  0  0.407774  0  0.9143  0  0  0.41833  0  0.899048  0  0  0.304288  0.40018  0  0.925301  0
H  H12  1  0.97940147  0.31161061  0.15051537  1  0  0.447572  0  0.843096  0  0  0.415367  0  0.906989  0  0  0.427242  0  0.889612  0  0  0.304985  0.406893  0  0.919377  0
H  H13  1  0.02059613  0.31160971  0.84948529  1  0  0.447571  0  0.843101  0  0  0.415373  0  0.906981  0  0  0.427248  0  0.889605  0  0  0.304994  0.406899  0  0.919368  0
H  H14  1  0.47940082  0.18838981  0.34948420  1  0  0.447544  0  0.84313  0  0  0.415352  0  0.907004  0  0  0.427225  0  0.88963  0  0  0.304983  0.406877  0  0.919393  0
H  H15  1  0.52059514  0.18838950  0.65051512  1  0  0.447597  0  0.843059  0  0  0.415391  0  0.906953  0  0  0.427264  0  0.889578  0  0  0.305006  0.406917  0  0.91934  0
H  H16  1  0.02059630  0.68838888  0.84948431  1  0  0.447572  0  0.843095  0  0  0.41538  0  0.906969  0  0  0.427255  0  0.889592  0  0  0.304999  0.406905  0  0.919357  0
H  H17  1  0.97940164  0.68838880  0.15051514  1  0  0.447594  0  0.843067  0  0  0.415387  0  0.906962  0  0  0.427262  0  0.889585  0  0  0.304987  0.406914  0  0.91935  0
H  H18  1  0.52059695  0.81161065  0.65051473  1  0  0.447551  0  0.843127  0  0  0.415357  0  0.907003  0  0  0.427231  0  0.889628  0  0  0.304991  0.406883  0  0.919391  0
H  H19  1  0.47940263  0.81160998  0.34948531  1  0  0.447542  0  0.843142  0  0  0.415344  0  0.907024  0  0  0.427218  0  0.889649  0  0  0.304985  0.406869  0  0.919413  0
H  H20  1  0.22560455  0.42427765  0.51517028  1  0  0.443065  0  0.835906  0  0  0.414736  0  0.899972  0  0  0.42483  0  0.885129  0  0  0.315775  0.407498  0  0.910645  0
H  H21  1  0.77439315  0.42427876  0.48483024  1  0  0.443098  0  0.835866  0  0  0.414773  0  0.899921  0  0  0.424868  0  0.885076  0  0  0.3158  0.407535  0  0.910594  0
H  H22  1  0.72560486  0.07572359  0.98482921  1  0  0.443089  0  0.835862  0  0  0.414753  0  0.899945  0  0  0.424849  0  0.8851  0  0  0.315771  0.407515  0  0.91062  0
H  H23  1  0.27439099  0.07572157  0.01517025  1  0  0.443059  0  0.835909  0  0  0.414756  0  0.899956  0  0  0.424831  0  0.885136  0  0  0.315781  0.407517  0  0.910631  0
H  H24  1  0.77439781  0.57572574  0.48482940  1  0  0.443066  0  0.835875  0  0  0.414737  0  0.899964  0  0  0.424833  0  0.885119  0  0  0.315778  0.407498  0  0.910638  0
H  H25  1  0.22560615  0.57572463  0.51517169  1  0  0.443116  0  0.835804  0  0  0.414779  0  0.899906  0  0  0.424875  0  0.885061  0  0  0.315794  0.407541  0  0.91058  0
H  H26  1  0.27439444  0.92427491  0.01517047  1  0  0.443069  0  0.835872  0  0  0.414735  0  0.899971  0  0  0.42483  0  0.885127  0  0  0.315782  0.407496  0  0.910647  0
H  H27  1  0.72560219  0.92427596  0.98482869  1  0  0.443069  0  0.835886  0  0  0.414733  0  0.899974  0  0  0.424828  0  0.885131  0  0  0.315773  0.407495  0  0.910648  0
C  C28  1  0.07625147  0.75474276  0.39870219  1  0  0.651708  0  3.894069  0  0  0.594738  0  4.196554  0  0  0.627903  0  4.189977  0  0  0.218843  0.572245  0  4.200201  0
C  C29  1  0.92375265  0.75473685  0.60129792  1  0  0.651689  0  3.894175  0  0  0.594674  0  4.196665  0  0  0.627837  0  4.190092  0  0  0.218858  0.572184  0  4.200305  0
C  C30  1  0.57624838  0.74526075  0.10129781  1  0  0.651673  0  3.894155  0  0  0.594706  0  4.196634  0  0  0.627872  0  4.190055  0  0  0.218805  0.572209  0  4.200285  0
C  C31  1  0.42375267  0.74526381  0.89870306  1  0  0.651527  0  3.894383  0  0  0.594582  0  4.196788  0  0  0.627746  0  4.190215  0  0  0.21884  0.572091  0  4.200427  0
C  C32  1  0.92374783  0.24525965  0.60129824  1  0  0.651725  0  3.894123  0  0  0.594695  0  4.196645  0  0  0.627861  0  4.190066  0  0  0.218843  0.572205  0  4.200292  0
C  C33  1  0.07624970  0.24526068  0.39870400  1  0  0.651756  0  3.894119  0  0  0.59472  0  4.196648  0  0  0.627882  0  4.190075  0  0  0.218863  0.572226  0  4.200293  0
C  C34  1  0.42375244  0.25474068  0.89870262  1  0  0.651802  0  3.894003  0  0  0.594807  0  4.196476  0  0  0.627974  0  4.189901  0  0  0.218874  0.572317  0  4.200121  0
C  C35  1  0.57624816  0.25473958  0.10129737  1  0  0.651664  0  3.89414  0  0  0.594703  0  4.196603  0  0  0.627869  0  4.190027  0  0  0.218823  0.572208  0  4.20025  0
C  C36  1  0.03856411  0.88182922  0.45106981  1  0  -0.05338  0  3.686912  0  0  -0.054304  0  3.937929  0  0  -0.05581  0  3.952697  0  0  0.0047  -0.053526  0  3.928384  0
C  C37  1  0.96143860  0.88183027  0.54893164  1  0  -0.053443  0  3.686965  0  0  -0.05425  0  3.937892  0  0  -0.055755  0  3.952663  0  0  0.004737  -0.053468  0  3.928339  0
C  C38  1  0.53856189  0.61817329  0.04893111  1  0  -0.05333  0  3.686761  0  0  -0.054272  0  3.937786  0  0  -0.055778  0  3.952555  0  0  0.004756  -0.053493  0  3.928245  0
C  C39  1  0.46143905  0.61816942  0.95106693  1  0  -0.053408  0  3.686901  0  0  -0.054229  0  3.937788  0  0  -0.055735  0  3.952561  0  0  0.004737  -0.053452  0  3.928241  0
C  C40  1  0.96143825  0.11817514  0.54893137  1  0  -0.053337  0  3.686727  0  0  -0.054192  0  3.93766  0  0  -0.055697  0  3.952428  0  0  0.004792  -0.053426  0  3.928133  0
C  C41  1  0.03856376  0.11816823  0.45106655  1  0  -0.053485  0  3.687258  0  0  -0.054286  0  3.938135  0  0  -0.055793  0  3.952907  0  0  0.004749  -0.053499  0  3.928581  0
C  C42  1  0.46143741  0.38183009  0.95106708  1  0  -0.053424  0  3.686938  0  0  -0.054253  0  3.937871  0  0  -0.055761  0  3.952643  0  0  0.004748  -0.053479  0  3.92833  0
C  C43  1  0.53856178  0.38182713  0.04893200  1  0  -0.053356  0  3.686859  0  0  -0.054292  0  3.937879  0  0  -0.055799  0  3.952649  0  0  0.00474  -0.053512  0  3.928335  0
C  C44  1  0.07522327  0.00000253  0.40153968  1  0  -0.056583  0  3.663257  0  0  -0.05585  0  3.908465  0  0  -0.05692  0  3.922923  0  0  0.012829  -0.055979  0  3.900028  0
C  C45  1  0.92478368  0.99999793  0.59846523  1  0  -0.056583  0  3.663101  0  0  -0.055875  0  3.908321  0  0  -0.056957  0  3.922769  0  0  0.012774  -0.055997  0  3.899895  0
C  C46  1  0.57522200  0.50000066  0.09846020  1  0  -0.056517  0  3.662915  0  0  -0.055741  0  3.908182  0  0  -0.056817  0  3.922634  0  0  0.012866  -0.055863  0  3.899751  0
C  C47  1  0.42477730  0.49999980  0.90153650  1  0  -0.056632  0  3.663367  0  0  -0.055935  0  3.908521  0  0  -0.057016  0  3.922967  0  0  0.012751  -0.056062  0  3.900084  0
C  C48  1  0.12546538  0.00000070  0.29119532  1  0  0.735709  0  3.850907  0  0  0.680786  0  4.15155  0  0  0.716896  0  4.140005  0  0  0.250093  0.656014  0  4.159352  0
C  C49  1  0.87453652  0.00000041  0.70880499  1  0  0.735607  0  3.851043  0  0  0.680664  0  4.151687  0  0  0.716817  0  4.140076  0  0  0.250054  0.655867  0  4.15951  0
C  C50  1  0.62545899  0.49999957  0.20880285  1  0  0.735612  0  3.850913  0  0  0.680604  0  4.151645  0  0  0.716745  0  4.140056  0  0  0.25004  0.655808  0  4.159469  0
C  C51  1  0.37454796  0.49999893  0.79119609  1  0  0.735587  0  3.850764  0  0  0.680742  0  4.151236  0  0  0.716895  0  4.139604  0  0  0.250126  0.655977  0  4.159027  0
O  O52  1  0.25192576  0.72739739  0.36517396  1  0  -0.621415  0  2.010861  0  0  -0.55476  0  2.232158  0  0  -0.581818  0  2.224124  0  0  -0.296135  -0.535677  0  2.237161  0
O  O53  1  0.74807834  0.72739721  0.63482843  1  0  -0.621433  0  2.010857  0  0  -0.554805  0  2.232195  0  0  -0.581864  0  2.224162  0  0  -0.296194  -0.53572  0  2.237196  0
O  O54  1  0.75193125  0.77260325  0.13482751  1  0  -0.621474  0  2.010816  0  0  -0.554792  0  2.232073  0  0  -0.581853  0  2.22404  0  0  -0.296154  -0.535709  0  2.237078  0
O  O55  1  0.24807441  0.77260436  0.86517109  1  0  -0.621423  0  2.010907  0  0  -0.554846  0  2.232246  0  0  -0.581904  0  2.224207  0  0  -0.296211  -0.535759  0  2.237246  0
O  O56  1  0.74807048  0.27260404  0.63482797  1  0  -0.621523  0  2.010909  0  0  -0.554812  0  2.23219  0  0  -0.581872  0  2.224155  0  0  -0.296173  -0.535726  0  2.237193  0
O  O57  1  0.25192096  0.27260325  0.36517200  1  0  -0.621392  0  2.01083  0  0  -0.554749  0  2.232168  0  0  -0.581813  0  2.224151  0  0  -0.296174  -0.535665  0  2.237172  0
O  O58  1  0.24807264  0.22739623  0.86517292  1  0  -0.621474  0  2.01073  0  0  -0.554827  0  2.23204  0  0  -0.581894  0  2.224016  0  0  -0.296164  -0.535741  0  2.237043  0
O  O59  1  0.75193253  0.22739610  0.13482784  1  0  -0.621463  0  2.010759  0  0  -0.554793  0  2.232017  0  0  -0.581861  0  2.223997  0  0  -0.296156  -0.535706  0  2.237021  0
O  O60  1  0.92674019  0.67394125  0.38869901  1  0  -0.694479  0  2.034887  0  0  -0.626031  0  2.261156  0  0  -0.653515  0  2.250738  0  0  -0.325375  -0.606643  0  2.267881  0
O  O61  1  0.07325774  0.67393989  0.61130419  1  0  -0.694425  0  2.035004  0  0  -0.625922  0  2.261262  0  0  -0.653398  0  2.250832  0  0  -0.325354  -0.606542  0  2.267993  0
O  O62  1  0.42674105  0.82605945  0.11130167  1  0  -0.694435  0  2.035028  0  0  -0.625977  0  2.261267  0  0  -0.653465  0  2.250855  0  0  -0.32534  -0.606589  0  2.267989  0
O  O63  1  0.57325395  0.82605868  0.88869686  1  0  -0.694273  0  2.035071  0  0  -0.625793  0  2.261285  0  0  -0.653275  0  2.250867  0  0  -0.32532  -0.606411  0  2.268014  0
O  O64  1  0.07325758  0.32606018  0.61130291  1  0  -0.694447  0  2.034867  0  0  -0.625971  0  2.261146  0  0  -0.653446  0  2.250714  0  0  -0.325374  -0.606589  0  2.267877  0
O  O65  1  0.92673697  0.32606155  0.38869848  1  0  -0.694501  0  2.034825  0  0  -0.626031  0  2.261114  0  0  -0.653514  0  2.250696  0  0  -0.325398  -0.606647  0  2.267844  0
O  O66  1  0.57325824  0.17393807  0.88869876  1  0  -0.694501  0  2.034941  0  0  -0.626031  0  2.26122  0  0  -0.653498  0  2.250757  0  0  -0.325379  -0.606647  0  2.267951  0
O  O67  1  0.42673923  0.17393884  0.11130208  1  0  -0.69446  0  2.035021  0  0  -0.626002  0  2.261267  0  0  -0.653482  0  2.250839  0  0  -0.325358  -0.606613  0  2.26799  0
O  O68  1  0.97277368  0.99999929  0.23248299  1  0  -0.674556  0  1.973811  0  0  -0.610536  0  2.221789  0  0  -0.640843  0  2.209178  0  0  -0.369482  -0.589157  0  2.230163  0
O  O69  1  0.02723219  0.99999856  0.76752055  1  0  -0.674527  0  1.973831  0  0  -0.610491  0  2.221799  0  0  -0.640813  0  2.209171  0  0  -0.369444  -0.589099  0  2.230178  0
O  O70  1  0.47276980  0.49999949  0.26751599  1  0  -0.674516  0  1.973924  0  0  -0.61047  0  2.221941  0  0  -0.640783  0  2.209319  0  0  -0.369422  -0.589079  0  2.23032  0
O  O71  1  0.52722797  0.50000000  0.73248145  1  0  -0.67444  0  1.973956  0  0  -0.610462  0  2.221922  0  0  -0.640778  0  2.209287  0  0  -0.36944  -0.589083  0  2.230291  0
O  O72  1  0.30867287  0.00000011  0.26409009  1  0  -0.66202  0  2.09206  0  0  -0.600714  0  2.350154  0  0  -0.630182  0  2.338839  0  0  -0.359416  -0.580191  0  2.357798  0
O  O73  1  0.69132031  0.00000035  0.73591034  1  0  -0.661975  0  2.092038  0  0  -0.600652  0  2.35012  0  0  -0.630154  0  2.338816  0  0  -0.35942  -0.580117  0  2.35777  0
O  O74  1  0.80867776  0.50000056  0.23590887  1  0  -0.662083  0  2.091962  0  0  -0.600688  0  2.350016  0  0  -0.630185  0  2.338722  0  0  -0.359459  -0.580156  0  2.35767  0
O  O75  1  0.19131542  0.49999892  0.76409155  1  0  -0.662071  0  2.091578  0  0  -0.600723  0  2.349542  0  0  -0.630224  0  2.338236  0  0  -0.359451  -0.580196  0  2.357181  0
O  O76  1  0.11684486  0.34444331  0.16977929  1  0  -0.891039  0  1.865092  0  0  -0.836452  0  2.060693  0  0  -0.86006  0  2.02824  0  0  -0.624363  -0.819512  0  2.083418  0
O  O77  1  0.88315582  0.34444277  0.83022133  1  0  -0.891011  0  1.865134  0  0  -0.836416  0  2.060743  0  0  -0.860029  0  2.028288  0  0  -0.624369  -0.819472  0  2.083462  0
O  O78  1  0.61684507  0.15555697  0.33022115  1  0  -0.891023  0  1.865158  0  0  -0.83644  0  2.06074  0  0  -0.86005  0  2.028288  0  0  -0.624355  -0.819494  0  2.083459  0
O  O79  1  0.38315238  0.15555657  0.66977896  1  0  -0.891046  0  1.865112  0  0  -0.836461  0  2.060724  0  0  -0.860071  0  2.028271  0  0  -0.624372  -0.819509  0  2.083429  0
O  O80  1  0.88315443  0.65555618  0.83022113  1  0  -0.891026  0  1.865124  0  0  -0.836429  0  2.060711  0  0  -0.860039  0  2.028257  0  0  -0.624371  -0.819491  0  2.083447  0
O  O81  1  0.11684501  0.65555769  0.16977985  1  0  -0.891092  0  1.865115  0  0  -0.836508  0  2.060723  0  0  -0.860118  0  2.028272  0  0  -0.624378  -0.819544  0  2.083404  0
O  O82  1  0.38315575  0.84444447  0.66977779  1  0  -0.891013  0  1.865128  0  0  -0.836412  0  2.06071  0  0  -0.860023  0  2.028255  0  0  -0.624344  -0.819471  0  2.083436  0
O  O83  1  0.61684386  0.84444388  0.33022147  1  0  -0.891005  0  1.86515  0  0  -0.836413  0  2.060738  0  0  -0.860026  0  2.028284  0  0  -0.624364  -0.819469  0  2.083454  0
O  O84  1  0.24994701  0.49999826  0.47173068  1  0  -0.866805  0  1.888438  0  0  -0.817962  0  2.08907  0  0  -0.839009  0  2.057385  0  0  -0.607803  -0.802758  0  2.111248  0
O  O85  1  0.75005229  0.50000025  0.52826901  1  0  -0.8668  0  1.888462  0  0  -0.817955  0  2.089092  0  0  -0.839004  0  2.057409  0  0  -0.607832  -0.802752  0  2.111272  0
O  O86  1  0.74994813  0.00000011  0.02826842  1  0  -0.866774  0  1.888461  0  0  -0.817932  0  2.08908  0  0  -0.838983  0  2.057396  0  0  -0.607786  -0.802727  0  2.111256  0
O  O87  1  0.25004918  0.00000003  0.97173113  1  0  -0.866728  0  1.888482  0  0  -0.817906  0  2.089011  0  0  -0.838933  0  2.057376  0  0  -0.607811  -0.802705  0  2.111193  0
