# generated using pymatgen
data_CdH20C16(NO2)2
_symmetry_space_group_name_H-M   'P 1'
_cell_length_a   4.93861273
_cell_length_b   11.04158127
_cell_length_c   14.08278838
_cell_angle_alpha   86.97537661
_cell_angle_beta   85.01311149
_cell_angle_gamma   81.51617132
_symmetry_Int_Tables_number   1
_chemical_formula_structural   CdH20C16(NO2)2
_chemical_formula_sum   'Cd2 H40 C32 N4 O8'
_cell_volume   756.03563215
_cell_formula_units_Z   2
loop_
 _symmetry_equiv_pos_site_id
 _symmetry_equiv_pos_as_xyz
  1  'x, y, z'
loop_
 _atom_site_type_symbol
 _atom_site_label
 _atom_site_symmetry_multiplicity
 _atom_site_fract_x
 _atom_site_fract_y
 _atom_site_fract_z
 _atom_site_occupancy
 _atom_site_pbe_bader_spin_density
 _atom_site_pbe_cm5_charge
 _atom_site_pbe_ddec_charge
 _atom_site_pbe_ddec_spin_density
 _atom_site_pbe_ddec_sum_bond_order
 _atom_site_pbe_magmom
Cd  Cd0  1  0.40279591  0.67255883  0.47916493  1  0  0.801236  1.026458  0  2.093373  0
Cd  Cd1  1  0.59723111  0.32744493  0.52083548  1  0  0.801239  1.026465  0  2.093621  0
H  H2  1  0.81964557  0.65686912  0.16141257  1  0  0.085965  0.074848  0  1.022705  0
H  H3  1  0.18034944  0.34311925  0.83858966  1  0  0.085935  0.074767  0  1.022676  0
H  H4  1  0.04548930  0.76791640  0.15360892  1  0  0.087183  0.080336  0  1.01611  0
H  H5  1  0.95449643  0.23207569  0.84639283  1  0  0.087164  0.080241  0  1.016308  0
H  H6  1  0.75744020  0.88623693  0.50041613  1  0  0.114165  0.090943  0  1.03116  0
H  H7  1  0.24255511  0.11375138  0.49958964  1  0  0.114182  0.091045  0  1.031133  0
H  H8  1  0.14230498  0.76186125  0.68029255  1  0  0.111318  0.083188  0  1.038552  0
H  H9  1  0.85771239  0.23812874  0.31971513  1  0  0.111265  0.08311  0  1.03867  0
H  H10  1  0.86192841  0.48377678  0.27931099  1  0  0.098499  0.085623  0  0.994108  0
H  H11  1  0.13805672  0.51620947  0.72071373  1  0  0.098531  0.085637  0  0.994068  0
H  H12  1  0.47919109  0.41970941  0.22309195  1  0  0.088405  0.085261  0  0.997269  0
H  H13  1  0.52079496  0.58028645  0.77690184  1  0  0.088411  0.085287  0  0.997279  0
H  H14  1  0.23518389  0.31762455  0.22553883  1  0  0.085239  0.077437  0  1.017785  0
H  H15  1  0.76479393  0.68237309  0.77446091  1  0  0.085227  0.077397  0  1.017709  0
H  H16  1  0.22555048  0.89499782  0.81187805  1  0  0.102293  0.104481  0  1.04442  0
H  H17  1  0.77443773  0.10500789  0.18812881  1  0  0.102229  0.104288  0  1.044378  0
H  H18  1  0.99222643  0.44122535  0.09860046  1  0  0.085608  0.077715  0  0.999595  0
H  H19  1  0.00774282  0.55877415  0.90140098  1  0  0.085678  0.077869  0  0.999605  0
H  H20  1  0.34253776  0.40224439  0.05909804  1  0  0.086438  0.07857  0  1.010542  0
H  H21  1  0.65741914  0.59774790  0.94090059  1  0  0.086404  0.078626  0  1.010492  0
H  H22  1  0.85282646  0.03070686  0.62142354  1  0  0.109155  0.132464  0  1.016806  0
H  H23  1  0.14717992  0.96929706  0.37857414  1  0  0.109157  0.132444  0  1.016798  0
H  H24  1  0.16950288  0.62447005  0.02045035  1  0  0.084076  0.07108  0  1.018311  0
H  H25  1  0.83049776  0.37553124  0.97954196  1  0  0.084118  0.071171  0  1.018325  0
H  H26  1  0.43573314  0.60860890  0.09816675  1  0  0.084094  0.071378  0  1.016635  0
H  H27  1  0.56425267  0.39138960  0.90183406  1  0  0.084093  0.071349  0  1.016662  0
H  H28  1  0.83573284  0.05462556  0.79897557  1  0  0.097097  0.073227  0  0.998006  0
H  H29  1  0.16425996  0.94538214  0.20101896  1  0  0.09711  0.073282  0  0.99799  0
H  H30  1  0.52051803  0.14885327  0.78239726  1  0  0.116034  0.11716  0  0.978719  0
H  H31  1  0.47946043  0.85115538  0.21759994  1  0  0.116078  0.117146  0  0.978787  0
H  H32  1  0.32615550  0.64077379  0.27476304  1  0  0.098214  0.092907  0  1.024227  0
H  H33  1  0.67383660  0.35922205  0.72522981  1  0  0.098184  0.09287  0  1.024399  0
H  H34  1  0.37698615  0.20596309  0.93365602  1  0  0.10246  0.07712  0  1.021976  0
H  H35  1  0.62302003  0.79404259  0.06634587  1  0  0.102457  0.077143  0  1.021953  0
H  H36  1  0.70180316  0.14105666  0.97417027  1  0  0.088871  0.055843  0  1.003241  0
H  H37  1  0.29819653  0.85894999  0.02583042  1  0  0.088865  0.055825  0  1.003219  0
H  H38  1  0.86412137  0.92161116  0.94785236  1  0  0.086859  0.049043  0  1.016507  0
H  H39  1  0.13587657  0.07839545  0.05215195  1  0  0.086878  0.049066  0  1.01654  0
H  H40  1  0.64945696  0.83549390  0.89097379  1  0  0.101199  0.080432  0  1.003111  0
H  H41  1  0.35053780  0.16451640  0.10902981  1  0  0.101199  0.080396  0  1.003118  0
C  C42  1  0.03502800  0.66960913  0.16683835  1  0  -0.165448  -0.15496  0  3.917324  0
C  C43  1  0.96496410  0.33038115  0.83315967  1  0  -0.165328  -0.154601  0  3.917087  0
C  C44  1  0.63899725  0.89421145  0.56949787  1  0  0.044094  0.103257  0  3.954597  0
C  C45  1  0.36101002  0.10578501  0.43050927  1  0  0.044055  0.103121  0  3.95466  0
C  C46  1  0.29811885  0.82282113  0.67103077  1  0  0.040088  0.092777  0  3.980069  0
C  C47  1  0.70187161  0.17718366  0.32897532  1  0  0.040096  0.092701  0  3.980067  0
C  C48  1  0.07793184  0.49353677  0.28650319  1  0  -0.091421  -0.132535  0  3.852733  0
C  C49  1  0.92206435  0.50645521  0.71350171  1  0  -0.09154  -0.13236  0  3.852624  0
C  C50  1  0.14468632  0.44132745  0.38555404  1  0  0.212437  0.618779  0  4.120522  0
C  C51  1  0.85539722  0.55867055  0.61444363  1  0  0.212508  0.618611  0  4.12068  0
C  C52  1  0.93102896  0.70840283  0.34169732  1  0  0.208212  0.608568  0  4.141533  0
C  C53  1  0.06897138  0.29159209  0.65829310  1  0  0.208149  0.608416  0  4.141452  0
C  C54  1  0.26267779  0.41437524  0.21245797  1  0  -0.16242  -0.154097  0  3.906279  0
C  C55  1  0.73730366  0.58562333  0.78753947  1  0  -0.162416  -0.15406  0  3.906115  0
C  C56  1  0.34518098  0.89650660  0.74321969  1  0  -0.093322  -0.199332  0  3.978454  0
C  C57  1  0.65481217  0.10349633  0.25678779  1  0  -0.093212  -0.198963  0  3.978211  0
C  C58  1  0.20170994  0.45720577  0.11051879  1  0  -0.168165  -0.139768  0  3.936642  0
C  C59  1  0.79826370  0.54279192  0.88947970  1  0  -0.168191  -0.140063  0  3.936674  0
C  C60  1  0.54872221  0.97251838  0.72748566  1  0  0.015241  0.153847  0  3.924955  0
C  C61  1  0.45126219  0.02749114  0.27251270  1  0  0.01528  0.153818  0  3.925124  0
C  C62  1  0.69537694  0.97141718  0.63774014  1  0  -0.08503  -0.183606  0  3.918259  0
C  C63  1  0.30461653  0.02858953  0.36225937  1  0  -0.085024  -0.183506  0  3.918308  0
C  C64  1  0.22157514  0.59364535  0.09306401  1  0  -0.168323  -0.143619  0  3.952708  0
C  C65  1  0.77841273  0.40635141  0.90693039  1  0  -0.168432  -0.143787  0  3.952778  0
C  C66  1  0.60999399  0.05453854  0.80270287  1  0  -0.058528  -0.112624  0  3.930691  0
C  C67  1  0.38999470  0.94547005  0.19729464  1  0  -0.058618  -0.112737  0  3.930976  0
C  C68  1  0.11109796  0.62942604  0.26822786  1  0  -0.100422  -0.148488  0  3.863473  0
C  C69  1  0.88889831  0.37056333  0.73176789  1  0  -0.100392  -0.148591  0  3.86323  0
C  C70  1  0.49124919  0.12211902  0.96398756  1  0  -0.069258  -0.081749  0  3.961138  0
C  C71  1  0.50875281  0.87788671  0.03601307  1  0  -0.069301  -0.081763  0  3.961066  0
C  C72  1  0.64709492  0.91070059  0.93928791  1  0  -0.070832  -0.079058  0  3.946588  0
C  C73  1  0.35290176  0.08930972  0.06071419  1  0  -0.070762  -0.078921  0  3.946454  0
N  N74  1  0.44305592  0.82078778  0.58560514  1  0  -0.333632  -0.259632  0  3.508958  0
N  N75  1  0.55693465  0.17921700  0.41440237  1  0  -0.33366  -0.259616  0  3.508918  0
N  N76  1  0.49828521  0.02320304  0.89854077  1  0  -0.345802  -0.148105  0  3.500652  0
N  N77  1  0.50171388  0.97680546  0.10145916  1  0  -0.34579  -0.148129  0  3.500569  0
O  O78  1  0.01108458  0.36097016  0.42392051  1  0  -0.32228  -0.575062  0  2.315611  0
O  O79  1  0.98900709  0.63902571  0.57609538  1  0  -0.322264  -0.57498  0  2.315683  0
O  O80  1  0.67266028  0.70634134  0.34400383  1  0  -0.333255  -0.57694  0  2.299395  0
O  O81  1  0.32733641  0.29367107  0.65597973  1  0  -0.333221  -0.576886  0  2.299351  0
O  O82  1  0.04237222  0.77183310  0.39577142  1  0  -0.328659  -0.573614  0  2.290313  0
O  O83  1  0.95764318  0.22815899  0.60421850  1  0  -0.328684  -0.573578  0  2.290379  0
O  O84  1  0.35239566  0.47500740  0.42193669  1  0  -0.337681  -0.599607  0  2.342286  0
O  O85  1  0.64772734  0.52498248  0.57803909  1  0  -0.33766  -0.599497  0  2.342307  0
