# generated using pymatgen
data_VAgH3C7NO6
_symmetry_space_group_name_H-M   'P 1'
_cell_length_a   6.55639896
_cell_length_b   8.33947199
_cell_length_c   9.34612410
_cell_angle_alpha   90.00015027
_cell_angle_beta   89.99942836
_cell_angle_gamma   113.17087217
_symmetry_Int_Tables_number   1
_chemical_formula_structural   VAgH3C7NO6
_chemical_formula_sum   'V2 Ag2 H6 C14 N2 O12'
_cell_volume   469.79619729
_cell_formula_units_Z   2
loop_
 _symmetry_equiv_pos_site_id
 _symmetry_equiv_pos_as_xyz
  1  'x, y, z'
loop_
 _atom_site_type_symbol
 _atom_site_label
 _atom_site_symmetry_multiplicity
 _atom_site_fract_x
 _atom_site_fract_y
 _atom_site_fract_z
 _atom_site_occupancy
 _atom_site_pbe_bader_spin_density
 _atom_site_pbe_cm5_charge
 _atom_site_pbe_ddec_charge
 _atom_site_pbe_ddec_spin_density
 _atom_site_pbe_ddec_sum_bond_order
 _atom_site_pbe_magmom
V  V0  1  0.98178065  0.96344170  0.75009689  1  0  1.444957  1.754314  0  3.399006  0
V  V1  1  0.01822115  0.03655622  0.25009831  1  0  1.44497  1.754308  0  3.39893  0
Ag  Ag2  1  0.65880099  0.00056269  0.50008095  1  0  0.465564  0.561329  0  1.780349  0
Ag  Ag3  1  0.34119874  0.99943305  0.00008557  1  0  0.465567  0.561339  0  1.780297  0
H  H4  1  0.57402785  0.57447666  0.63534226  1  0  0.120172  0.150435  0  0.998752  0
H  H5  1  0.42597678  0.42552667  0.13534496  1  0  0.120179  0.15042  0  0.998789  0
H  H6  1  0.99921734  0.57392256  0.86445287  1  0  0.12013  0.15015  0  0.999375  0
H  H7  1  0.00077509  0.42607516  0.36445317  1  0  0.120135  0.150197  0  0.99931  0
H  H8  1  0.36799151  0.73738899  0.74975316  1  0  0.116848  0.114334  0  0.999773  0
H  H9  1  0.63200115  0.26260893  0.24975405  1  0  0.116854  0.114315  0  0.999742  0
C  C10  1  0.31744653  0.32367530  0.68929892  1  0  0.126909  0.133738  0  3.972389  0
C  C11  1  0.68255728  0.67632794  0.18930256  1  0  0.126938  0.133749  0  3.97228  0
C  C12  1  0.00569022  0.32340912  0.81068615  1  0  0.126188  0.133215  0  3.97281  0
C  C13  1  0.99430957  0.67659260  0.31069083  1  0  0.126134  0.133186  0  3.972774  0
C  C14  1  0.41317416  0.50501846  0.68554644  1  0  -0.045831  -0.08243  0  3.804641  0
C  C15  1  0.58682841  0.49498218  0.18554390  1  0  -0.045873  -0.082441  0  3.804627  0
C  C16  1  0.09079019  0.50471911  0.81420410  1  0  -0.04584  -0.08233  0  3.806445  0
C  C17  1  0.90920519  0.49528000  0.31420467  1  0  -0.045787  -0.082324  0  3.806247  0
C  C18  1  0.29706482  0.59528751  0.74981851  1  0  -0.036441  0.021548  0  3.83723  0
C  C19  1  0.70293067  0.40471302  0.24981817  1  0  -0.036454  0.021562  0  3.83719  0
C  C20  1  0.40946305  0.19763522  0.63499573  1  0  0.223912  0.56231  0  4.166841  0
C  C21  1  0.59054094  0.80236681  0.13499709  1  0  0.223874  0.562224  0  4.166723  0
C  C22  1  0.78782233  0.19714592  0.86520642  1  0  0.223556  0.561556  0  4.167763  0
C  C23  1  0.21217837  0.80285310  0.36520934  1  0  0.223558  0.561543  0  4.167741  0
N  N24  1  0.11924013  0.23867993  0.75004982  1  0  -0.384592  -0.380094  0  3.689103  0
N  N25  1  0.88076298  0.76132060  0.25005122  1  0  -0.38459  -0.380063  0  3.689168  0
O  O26  1  0.83062556  0.84068730  0.61964319  1  0  -0.5945  -0.733375  0  1.76488  0
O  O27  1  0.16937713  0.15931476  0.11964492  1  0  -0.594491  -0.733351  0  1.764851  0
O  O28  1  0.00972600  0.84011632  0.88022465  1  0  -0.594935  -0.733807  0  1.765379  0
O  O29  1  0.99026990  0.15988267  0.38022710  1  0  -0.59495  -0.733846  0  1.765371  0
O  O30  1  0.28094248  0.03490525  0.66132669  1  0  -0.353096  -0.606948  0  2.359642  0
O  O31  1  0.71906176  0.96509804  0.16132967  1  0  -0.35304  -0.606867  0  2.359582  0
O  O32  1  0.75389132  0.03448740  0.83899014  1  0  -0.352722  -0.606712  0  2.359206  0
O  O33  1  0.24610979  0.96551167  0.33898999  1  0  -0.352711  -0.606687  0  2.359149  0
O  O34  1  0.59229093  0.24475087  0.57395594  1  0  -0.280305  -0.458951  0  2.254973  0
O  O35  1  0.40770592  0.75524735  0.07396595  1  0  -0.28031  -0.458957  0  2.254942  0
O  O36  1  0.65200311  0.24407504  0.92630286  1  0  -0.27999  -0.458293  0  2.255969  0
O  O37  1  0.34798948  0.75591865  0.42631222  1  0  -0.279988  -0.458293  0  2.255924  0
