# generated using pymatgen
data_CdH12C15S2(NO3)2
_symmetry_space_group_name_H-M   'P 1'
_cell_length_a   8.70314168
_cell_length_b   9.67439405
_cell_length_c   11.50485727
_cell_angle_alpha   66.43349331
_cell_angle_beta   77.82191527
_cell_angle_gamma   78.21915509
_symmetry_Int_Tables_number   1
_chemical_formula_structural   CdH12C15S2(NO3)2
_chemical_formula_sum   'Cd2 H24 C30 S4 N4 O12'
_cell_volume   860.11277853
_cell_formula_units_Z   2
loop_
 _symmetry_equiv_pos_site_id
 _symmetry_equiv_pos_as_xyz
  1  'x, y, z'
loop_
 _atom_site_type_symbol
 _atom_site_label
 _atom_site_symmetry_multiplicity
 _atom_site_fract_x
 _atom_site_fract_y
 _atom_site_fract_z
 _atom_site_occupancy
 _atom_site_hle17_bader_spin_density
 _atom_site_hle17_ddec_charge
 _atom_site_hle17_ddec_spin_density
 _atom_site_hle17_ddec_sum_bond_order
 _atom_site_hle17_magmom
 _atom_site_hse06_10hf_bader_spin_density
 _atom_site_hse06_10hf_ddec_charge
 _atom_site_hse06_10hf_ddec_spin_density
 _atom_site_hse06_10hf_ddec_sum_bond_order
 _atom_site_hse06_10hf_magmom
 _atom_site_hse06_bader_spin_density
 _atom_site_hse06_ddec_charge
 _atom_site_hse06_ddec_spin_density
 _atom_site_hse06_ddec_sum_bond_order
 _atom_site_hse06_magmom
 _atom_site_pbe_bader_spin_density
 _atom_site_pbe_cm5_charge
 _atom_site_pbe_ddec_charge
 _atom_site_pbe_ddec_spin_density
 _atom_site_pbe_ddec_sum_bond_order
 _atom_site_pbe_magmom
Cd  Cd0  1  0.27340746  0.52384118  0.83917843  1  0  1.176909  0  1.580953  0  0  0.976099  0  2.024152  0  0  1.0337  0  1.972119  0  0  0.783637  0.935749  0  2.058704  0
Cd  Cd1  1  0.72658820  0.47616386  0.16082064  1  0  1.176856  0  1.581004  0  0  0.976027  0  2.024204  0  0  1.033629  0  1.972173  0  0  0.783633  0.935677  0  2.058755  0
H  H2  1  0.65112848  0.40914905  0.84268533  1  0  0.096486  0  0.948748  0  0  0.102376  0  1.013992  0  0  0.105232  0  1.011763  0  0  0.118625  0.100114  0  1.015846  0
H  H3  1  0.34885831  0.59084553  0.15731966  1  0  0.096504  0  0.948701  0  0  0.102371  0  1.013968  0  0  0.105226  0  1.011751  0  0  0.118604  0.100063  0  1.015861  0
H  H4  1  0.90823951  0.43766055  0.69730990  1  0  0.11297  0  0.951492  0  0  0.124246  0  1.00805  0  0  0.127788  0  1.005963  0  0  0.109283  0.12153  0  1.009876  0
H  H5  1  0.09175635  0.56232866  0.30269910  1  0  0.112898  0  0.951456  0  0  0.124189  0  1.00801  0  0  0.127721  0  1.005934  0  0  0.109269  0.12147  0  1.009836  0
H  H6  1  0.90177124  0.58538232  0.45850526  1  0  0.088639  0  0.958029  0  0  0.10338  0  1.014408  0  0  0.105063  0  1.013892  0  0  0.10618  0.10234  0  1.014601  0
H  H7  1  0.09823049  0.41461394  0.54150209  1  0  0.088748  0  0.957906  0  0  0.103473  0  1.014319  0  0  0.105158  0  1.013781  0  0  0.106219  0.102429  0  1.014523  0
H  H8  1  0.64463379  0.69874401  0.38152738  1  0  0.12219  0  0.967889  0  0  0.130163  0  1.032304  0  0  0.133385  0  1.030851  0  0  0.106337  0.127848  0  1.033784  0
H  H9  1  0.35536839  0.30125677  0.61847656  1  0  0.122232  0  0.967891  0  0  0.130219  0  1.032287  0  0  0.133442  0  1.030835  0  0  0.106342  0.127906  0  1.033767  0
H  H10  1  0.98216816  0.72002893  0.67574432  1  0  0.084792  0  0.968703  0  0  0.090559  0  1.037647  0  0  0.093536  0  1.034653  0  0  0.110829  0.088477  0  1.039672  0
H  H11  1  0.01783091  0.27997027  0.32425021  1  0  0.084795  0  0.968711  0  0  0.090565  0  1.037657  0  0  0.093535  0  1.034687  0  0  0.110812  0.088493  0  1.039652  0
H  H12  1  0.93306443  0.87080330  0.45084249  1  0  0.080936  0  1.016848  0  0  0.083146  0  1.096226  0  0  0.086426  0  1.095299  0  0  0.087311  0.080912  0  1.09669  0
H  H13  1  0.06693543  0.12919821  0.54915111  1  0  0.080954  0  1.0168  0  0  0.083177  0  1.096164  0  0  0.086457  0  1.095239  0  0  0.087336  0.080944  0  1.096627  0
H  H14  1  0.16577399  0.90499653  0.27310284  1  0  0.115838  0  0.90638  0  0  0.13018  0  0.954048  0  0  0.133448  0  0.951313  0  0  0.117781  0.127785  0  0.956089  0
H  H15  1  0.83423033  0.09500629  0.72689135  1  0  0.115856  0  0.906347  0  0  0.130178  0  0.954035  0  0  0.133443  0  0.951302  0  0  0.117806  0.127783  0  0.956074  0
H  H16  1  0.43440151  0.78924465  0.32876056  1  0  0.123151  0  0.961657  0  0  0.131056  0  1.024668  0  0  0.13469  0  1.02268  0  0  0.107198  0.128466  0  1.026286  0
H  H17  1  0.56560253  0.21075947  0.67123843  1  0  0.123099  0  0.961793  0  0  0.131049  0  1.024742  0  0  0.13468  0  1.022756  0  0  0.107189  0.12846  0  1.026359  0
H  H18  1  0.98435771  0.36877678  0.93990292  1  0  0.442421  0  0.835085  0  0  0.41406  0  0.896709  0  0  0.42588  0  0.879381  0  0  0.301466  0.405506  0  0.90927  0
H  H19  1  0.01564048  0.63122718  0.06009615  1  0  0.442532  0  0.834921  0  0  0.414123  0  0.896653  0  0  0.425949  0  0.879313  0  0  0.301477  0.405567  0  0.909218  0
H  H20  1  0.41128464  0.20443606  0.90172659  1  0  0.402795  0  0.889274  0  0  0.379526  0  0.94612  0  0  0.388383  0  0.933085  0  0  0.285141  0.373083  0  0.955574  0
H  H21  1  0.58871497  0.79556670  0.09827008  1  0  0.402751  0  0.889349  0  0  0.379477  0  0.946193  0  0  0.388335  0  0.933158  0  0  0.28512  0.373034  0  0.955649  0
H  H22  1  0.93966183  0.54313671  0.87358425  1  0  0.425037  0  0.88428  0  0  0.391973  0  0.952534  0  0  0.402956  0  0.936633  0  0  0.288488  0.3842  0  0.963802  0
H  H23  1  0.06033678  0.45686491  0.12641385  1  0  0.424986  0  0.884349  0  0  0.391915  0  0.95262  0  0  0.402898  0  0.936719  0  0  0.288458  0.384141  0  0.963891  0
H  H24  1  0.31297942  0.08972339  0.89605554  1  0  0.411406  0  0.885543  0  0  0.382557  0  0.945755  0  0  0.392909  0  0.930642  0  0  0.277486  0.375422  0  0.956132  0
H  H25  1  0.68702881  0.91026946  0.10394769  1  0  0.411407  0  0.88554  0  0  0.382533  0  0.945789  0  0  0.392885  0  0.930675  0  0  0.277443  0.375398  0  0.956166  0
C  C26  1  0.44825287  0.19270876  0.20347244  1  0  -0.160514  0  3.759032  0  0  -0.155843  0  4.034139  0  0  -0.161642  0  4.051758  0  0  -0.031568  -0.151567  0  4.021495  0
C  C27  1  0.55174881  0.80730919  0.79652722  1  0  -0.16053  0  3.759029  0  0  -0.155822  0  4.034082  0  0  -0.161599  0  4.051674  0  0  -0.031579  -0.151564  0  4.021456  0
C  C28  1  0.60750526  0.14971532  0.19310210  1  0  -0.112736  0  3.728913  0  0  -0.1051  0  4.003043  0  0  -0.102508  0  4.015801  0  0  -0.010019  -0.106091  0  3.992923  0
C  C29  1  0.39249406  0.85028181  0.80689922  1  0  -0.112817  0  3.728963  0  0  -0.105127  0  4.003059  0  0  -0.102544  0  4.015809  0  0  -0.010036  -0.106111  0  3.992942  0
C  C30  1  0.50396865  0.03396269  0.43509435  1  0  -0.126392  0  3.834564  0  0  -0.118824  0  4.132914  0  0  -0.117109  0  4.151775  0  0  -0.045807  -0.120157  0  4.120479  0
C  C31  1  0.49602900  0.96603080  0.56490329  1  0  -0.126748  0  3.834851  0  0  -0.119062  0  4.133113  0  0  -0.117349  0  4.151976  0  0  -0.04597  -0.120393  0  4.120676  0
C  C32  1  0.34975270  0.29112461  0.10252392  1  0  0.670553  0  3.947451  0  0  0.61753  0  4.243963  0  0  0.653073  0  4.235018  0  0  0.202669  0.592913  0  4.249806  0
C  C33  1  0.65024592  0.70888393  0.89747346  1  0  0.67046  0  3.947564  0  0  0.617415  0  4.244086  0  0  0.652951  0  4.235143  0  0  0.202614  0.592804  0  4.249926  0
C  C34  1  0.73182631  0.19117975  0.07488979  1  0  0.683456  0  3.941356  0  0  0.62674  0  4.25558  0  0  0.660933  0  4.246979  0  0  0.206454  0.603242  0  4.260518  0
C  C35  1  0.26817633  0.80881860  0.92511059  1  0  0.683527  0  3.941401  0  0  0.626711  0  4.255753  0  0  0.660907  0  4.247148  0  0  0.206403  0.603211  0  4.26069  0
C  C36  1  0.65504076  0.47325097  0.74004062  1  0  0.152056  0  3.674506  0  0  0.119083  0  3.931203  0  0  0.126482  0  3.948638  0  0  0.051031  0.114427  0  3.919406  0
C  C37  1  0.34495225  0.52674150  0.25996504  1  0  0.152049  0  3.674366  0  0  0.119069  0  3.931079  0  0  0.126463  0  3.948516  0  0  0.051074  0.114458  0  3.91929  0
C  C38  1  0.79800366  0.48859157  0.65747344  1  0  -0.119799  0  3.728202  0  0  -0.136216  0  3.987491  0  0  -0.142086  0  4.007517  0  0  -0.084567  -0.132741  0  3.974775  0
C  C39  1  0.20199478  0.51139647  0.34253298  1  0  -0.119643  0  3.72792  0  0  -0.136055  0  3.987208  0  0  -0.141914  0  4.007231  0  0  -0.084528  -0.132576  0  3.974477  0
C  C40  1  0.79347602  0.57070737  0.52720986  1  0  -0.008796  0  3.743473  0  0  -0.029584  0  3.999285  0  0  -0.026492  0  4.018369  0  0  -0.071867  -0.031538  0  3.988385  0
C  C41  1  0.20652280  0.42929225  0.47279674  1  0  -0.008949  0  3.743206  0  0  -0.029742  0  3.999071  0  0  -0.026641  0  4.018146  0  0  -0.071961  -0.031706  0  3.988191  0
C  C42  1  0.64836535  0.63552661  0.48358583  1  0  -0.146965  0  3.695564  0  0  -0.168559  0  3.951195  0  0  -0.175152  0  3.971245  0  0  -0.085016  -0.166238  0  3.942213  0
C  C43  1  0.35164173  0.36447312  0.51641687  1  0  -0.147009  0  3.695516  0  0  -0.168628  0  3.951183  0  0  -0.175225  0  3.971233  0  0  -0.084988  -0.166307  0  3.942205  0
C  C44  1  0.50913083  0.61840590  0.57260075  1  0  0.173303  0  3.774751  0  0  0.168258  0  4.017001  0  0  0.175522  0  4.037168  0  0  0.115098  0.163705  0  4.004274  0
C  C45  1  0.49087332  0.38159720  0.42740206  1  0  0.173186  0  3.774878  0  0  0.168159  0  4.017085  0  0  0.175426  0  4.037248  0  0  0.115031  0.163605  0  4.00436  0
C  C46  1  0.07976608  0.73599271  0.59654503  1  0  0.13267  0  3.716059  0  0  0.100607  0  3.974627  0  0  0.10797  0  3.992396  0  0  0.040648  0.095928  0  3.961441  0
C  C47  1  0.92023475  0.26401693  0.40344901  1  0  0.132623  0  3.716088  0  0  0.100547  0  3.974628  0  0  0.107906  0  3.992395  0  0  0.040658  0.095872  0  3.961446  0
C  C48  1  0.05286864  0.82047009  0.47071560  1  0  -0.127623  0  3.754421  0  0  -0.143504  0  4.015858  0  0  -0.149727  0  4.035957  0  0  -0.094506  -0.138227  0  4.001143  0
C  C49  1  0.94713356  0.17953147  0.52927762  1  0  -0.127661  0  3.754494  0  0  -0.143526  0  4.015876  0  0  -0.14975  0  4.035978  0  0  -0.094534  -0.13825  0  4.001165  0
C  C50  1  0.18166665  0.83986420  0.37302102  1  0  -0.002049  0  3.724815  0  0  -0.021436  0  3.976964  0  0  -0.016533  0  3.992008  0  0  -0.065112  -0.024887  0  3.967431  0
C  C51  1  0.81834002  0.16013867  0.62697280  1  0  -0.00195  0  3.724798  0  0  -0.021326  0  3.976935  0  0  -0.01642  0  3.991975  0  0  -0.065103  -0.024777  0  3.9674  0
C  C52  1  0.33276082  0.77389433  0.40450360  1  0  -0.132902  0  3.695407  0  0  -0.153483  0  3.948013  0  0  -0.160381  0  3.968396  0  0  -0.080311  -0.15023  0  3.936935  0
C  C53  1  0.66724364  0.22610743  0.59549356  1  0  -0.132956  0  3.695681  0  0  -0.153574  0  3.948278  0  0  -0.160471  0  3.968659  0  0  -0.080282  -0.150322  0  3.9372  0
C  C54  1  0.35129828  0.68992610  0.53304777  1  0  0.163363  0  3.776881  0  0  0.159236  0  4.018637  0  0  0.166457  0  4.038998  0  0  0.109398  0.154978  0  4.00535  0
C  C55  1  0.64870366  0.31006980  0.46694924  1  0  0.163412  0  3.776981  0  0  0.159272  0  4.018767  0  0  0.166491  0  4.039132  0  0  0.109381  0.155015  0  4.005478  0
S  S56  1  0.33926284  0.12746012  0.35693422  1  0  0.117269  0  2.67891  0  0  0.120836  0  3.025467  0  0  0.115454  0  3.033301  0  0  0.074094  0.123608  0  3.02264  0
S  S57  1  0.66073793  0.87253576  0.64306297  1  0  0.117294  0  2.679003  0  0  0.120824  0  3.025493  0  0  0.115434  0  3.03332  0  0  0.074079  0.123602  0  3.02267  0
S  S58  1  0.68363413  0.03207442  0.33265039  1  0  0.147037  0  2.57855  0  0  0.150907  0  2.905503  0  0  0.146201  0  2.908749  0  0  0.092285  0.154496  0  2.903894  0
S  S59  1  0.31636838  0.96792498  0.66734704  1  0  0.147119  0  2.578686  0  0  0.150957  0  2.905571  0  0  0.146252  0  2.908819  0  0  0.092292  0.154545  0  2.90396  0
N  N60  1  0.51460927  0.53664000  0.69862866  1  0  -0.381944  0  3.245528  0  0  -0.30914  0  3.510637  0  0  -0.330161  0  3.530668  0  0  -0.328374  -0.294702  0  3.496667  0
N  N61  1  0.48538887  0.46335713  0.30137371  1  0  -0.381883  0  3.245515  0  0  -0.309063  0  3.510624  0  0  -0.330079  0  3.530643  0  0  -0.328368  -0.294624  0  3.496634  0
N  N62  1  0.22493838  0.67204424  0.62718755  1  0  -0.394293  0  3.281046  0  0  -0.321835  0  3.544558  0  0  -0.34264  0  3.56426  0  0  -0.332809  -0.307421  0  3.530068  0
N  N63  1  0.77506105  0.32795962  0.37280788  1  0  -0.394225  0  3.281026  0  0  -0.321758  0  3.544521  0  0  -0.342562  0  3.564224  0  0  -0.332782  -0.307345  0  3.530032  0
O  O64  1  0.20197792  0.31069131  0.13852241  1  0  -0.630222  0  1.975701  0  0  -0.572199  0  2.197955  0  0  -0.595929  0  2.186469  0  0  -0.317423  -0.555633  0  2.205674  0
O  O65  1  0.79801854  0.68930912  0.86147643  1  0  -0.630145  0  1.975729  0  0  -0.572127  0  2.197983  0  0  -0.595857  0  2.186501  0  0  -0.317377  -0.55556  0  2.2057  0
O  O66  1  0.42096434  0.34734018  0.98729202  1  0  -0.654027  0  2.038829  0  0  -0.57664  0  2.285658  0  0  -0.607486  0  2.274889  0  0  -0.32192  -0.555139  0  2.292906  0
O  O67  1  0.57903174  0.65266253  0.01270607  1  0  -0.653994  0  2.038827  0  0  -0.576596  0  2.285654  0  0  -0.607441  0  2.274891  0  0  -0.321924  -0.555089  0  2.292888  0
O  O68  1  0.76411907  0.10776630  0.01171001  1  0  -0.572419  0  1.857496  0  0  -0.526354  0  2.055228  0  0  -0.550255  0  2.045816  0  0  -0.306885  -0.508928  0  2.060756  0
O  O69  1  0.23589089  0.89223010  0.98829430  1  0  -0.57246  0  1.857518  0  0  -0.526369  0  2.055302  0  0  -0.550272  0  2.045888  0  0  -0.306831  -0.508942  0  2.060827  0
O  O70  1  0.80004558  0.30656671  0.05572554  1  0  -0.672825  0  1.997275  0  0  -0.596784  0  2.248549  0  0  -0.629616  0  2.235299  0  0  -0.324051  -0.573444  0  2.25657  0
O  O71  1  0.19995140  0.69343731  0.94427630  1  0  -0.672823  0  1.997249  0  0  -0.59674  0  2.248593  0  0  -0.629576  0  2.23534  0  0  -0.324042  -0.5734  0  2.256607  0
O  O72  1  0.02566541  0.45818026  0.86949438  1  0  -0.845667  0  1.880879  0  0  -0.778509  0  2.084858  0  0  -0.801872  0  2.047833  0  0  -0.586177  -0.762155  0  2.110762  0
O  O73  1  0.97433420  0.54182250  0.13050229  1  0  -0.845724  0  1.880782  0  0  -0.778534  0  2.084735  0  0  -0.801896  0  2.04771  0  0  -0.58617  -0.762183  0  2.110639  0
O  O74  1  0.36042400  0.18401138  0.84311010  1  0  -0.83396  0  1.770683  0  0  -0.788394  0  1.913656  0  0  -0.805784  0  1.885272  0  0  -0.604939  -0.775521  0  1.933046  0
O  O75  1  0.63957554  0.81598455  0.15688987  1  0  -0.833914  0  1.770722  0  0  -0.788312  0  1.913727  0  0  -0.805705  0  1.885342  0  0  -0.604857  -0.77544  0  1.93312  0
