# generated using pymatgen
data_CdH18C12(NO3)2
_symmetry_space_group_name_H-M   'P 1'
_cell_length_a   8.92704346
_cell_length_b   8.92700348
_cell_length_c   9.79890589
_cell_angle_alpha   105.47062765
_cell_angle_beta   105.47055260
_cell_angle_gamma   102.15021728
_symmetry_Int_Tables_number   1
_chemical_formula_structural   CdH18C12(NO3)2
_chemical_formula_sum   'Cd2 H36 C24 N4 O12'
_cell_volume   691.18601170
_cell_formula_units_Z   2
loop_
 _symmetry_equiv_pos_site_id
 _symmetry_equiv_pos_as_xyz
  1  'x, y, z'
loop_
 _atom_site_type_symbol
 _atom_site_label
 _atom_site_symmetry_multiplicity
 _atom_site_fract_x
 _atom_site_fract_y
 _atom_site_fract_z
 _atom_site_occupancy
 _atom_site_hle17_bader_spin_density
 _atom_site_hle17_ddec_charge
 _atom_site_hle17_ddec_spin_density
 _atom_site_hle17_ddec_sum_bond_order
 _atom_site_hle17_magmom
 _atom_site_hse06_10hf_bader_spin_density
 _atom_site_hse06_10hf_ddec_charge
 _atom_site_hse06_10hf_ddec_spin_density
 _atom_site_hse06_10hf_ddec_sum_bond_order
 _atom_site_hse06_10hf_magmom
 _atom_site_hse06_bader_spin_density
 _atom_site_hse06_ddec_charge
 _atom_site_hse06_ddec_spin_density
 _atom_site_hse06_ddec_sum_bond_order
 _atom_site_hse06_magmom
 _atom_site_pbe_bader_spin_density
 _atom_site_pbe_cm5_charge
 _atom_site_pbe_ddec_charge
 _atom_site_pbe_ddec_spin_density
 _atom_site_pbe_ddec_sum_bond_order
 _atom_site_pbe_magmom
Cd  Cd0  1  0.96433600  0.03566417  0.25000273  1  0  1.140446  0  1.716  0  0  0.935771  0  2.185658  0  0  0.991536  0  2.131036  0  0  0.791454  0.897781  0  2.222059  0
Cd  Cd1  1  0.03566522  0.96433436  0.74999941  1  0  1.140448  0  1.716149  0  0  0.935744  0  2.1858  0  0  0.991507  0  2.13118  0  0  0.791425  0.897755  0  2.222198  0
H  H2  1  0.02010746  0.23167325  0.58220287  1  0  0.367179  0  0.916417  0  0  0.33641  0  0.998117  0  0  0.348391  0  0.985627  0  0  0.304049  0.328171  0  1.006397  0
H  H3  1  0.76833337  0.97988962  0.91780011  1  0  0.367188  0  0.91636  0  0  0.336358  0  0.998149  0  0  0.34834  0  0.985664  0  0  0.304038  0.328118  0  1.006429  0
H  H4  1  0.97989287  0.76833013  0.41779922  1  0  0.367098  0  0.916517  0  0  0.336299  0  0.998258  0  0  0.348279  0  0.985776  0  0  0.30402  0.32806  0  1.006537  0
H  H5  1  0.23166741  0.02011135  0.08220048  1  0  0.367077  0  0.916512  0  0  0.336269  0  0.99827  0  0  0.348253  0  0.985779  0  0  0.304  0.328029  0  1.006549  0
H  H6  1  0.81257898  0.53678233  0.46146274  1  0  0.103542  0  0.933414  0  0  0.116811  0  0.996608  0  0  0.119152  0  0.995947  0  0  0.10367  0.115004  0  0.997338  0
H  H7  1  0.46321725  0.18741642  0.03853836  1  0  0.103532  0  0.933439  0  0  0.116814  0  0.996614  0  0  0.119153  0  0.995954  0  0  0.103657  0.115007  0  0.997342  0
H  H8  1  0.18742412  0.46321865  0.53854046  1  0  0.103532  0  0.933452  0  0  0.116801  0  0.996641  0  0  0.119139  0  0.995985  0  0  0.103663  0.114995  0  0.997372  0
H  H9  1  0.53678443  0.81257970  0.96146126  1  0  0.103558  0  0.933402  0  0  0.116857  0  0.99656  0  0  0.119197  0  0.995894  0  0  0.103677  0.11505  0  0.99729  0
H  H10  1  0.70488149  0.39351684  0.52029597  1  0  0.094439  0  0.953027  0  0  0.105428  0  1.023078  0  0  0.107758  0  1.021904  0  0  0.102675  0.103759  0  1.023766  0
H  H11  1  0.60648640  0.29511367  0.97970161  1  0  0.094476  0  0.953007  0  0  0.105416  0  1.023104  0  0  0.107744  0  1.02193  0  0  0.102688  0.103746  0  1.023792  0
H  H12  1  0.29512057  0.60648052  0.47969793  1  0  0.094426  0  0.952998  0  0  0.105423  0  1.023031  0  0  0.107754  0  1.021857  0  0  0.102693  0.103756  0  1.02372  0
H  H13  1  0.39351636  0.70488611  0.02029713  1  0  0.094512  0  0.952986  0  0  0.105462  0  1.02307  0  0  0.107789  0  1.021893  0  0  0.102712  0.103793  0  1.023759  0
H  H14  1  0.45174373  0.33258349  0.30795887  1  0  0.077517  0  0.933514  0  0  0.096078  0  0.992977  0  0  0.097508  0  0.993173  0  0  0.091437  0.09494  0  0.993193  0
H  H15  1  0.66741703  0.54825496  0.19204021  1  0  0.07755  0  0.933611  0  0  0.096117  0  0.993064  0  0  0.097547  0  0.993262  0  0  0.091464  0.094981  0  0.993281  0
H  H16  1  0.54825947  0.66741386  0.69204142  1  0  0.077566  0  0.933655  0  0  0.096113  0  0.993101  0  0  0.097543  0  0.993299  0  0  0.091476  0.094976  0  0.993318  0
H  H17  1  0.33258304  0.45174357  0.80795859  1  0  0.077535  0  0.933589  0  0  0.096097  0  0.993044  0  0  0.097526  0  0.993242  0  0  0.091457  0.094959  0  0.993261  0
H  H18  1  0.53537708  0.54697019  0.39026529  1  0  0.071284  0  0.94168  0  0  0.091351  0  1.001394  0  0  0.091936  0  1.002665  0  0  0.092491  0.091033  0  1.000383  0
H  H19  1  0.45302763  0.46462055  0.10973083  1  0  0.071309  0  0.941572  0  0  0.091372  0  1.0013  0  0  0.091957  0  1.002569  0  0  0.092491  0.091056  0  1.000288  0
H  H20  1  0.46462380  0.45302713  0.60973443  1  0  0.071336  0  0.941636  0  0  0.091366  0  1.001372  0  0  0.09195  0  1.002643  0  0  0.092492  0.09105  0  1.000358  0
H  H21  1  0.54696930  0.53537916  0.89026647  1  0  0.071289  0  0.941649  0  0  0.091351  0  1.001378  0  0  0.091936  0  1.002649  0  0  0.092482  0.091034  0  1.000366  0
H  H22  1  0.52860429  0.75711496  0.26687689  1  0  0.097538  0  0.94514  0  0  0.116422  0  1.004011  0  0  0.117637  0  1.004336  0  0  0.100806  0.115319  0  1.004024  0
H  H23  1  0.24288035  0.47139650  0.23312246  1  0  0.097513  0  0.945152  0  0  0.116365  0  1.004047  0  0  0.117581  0  1.00437  0  0  0.100779  0.115264  0  1.004059  0
H  H24  1  0.47139496  0.24288477  0.73312404  1  0  0.097495  0  0.945149  0  0  0.116376  0  1.004021  0  0  0.117592  0  1.004345  0  0  0.100771  0.115274  0  1.004031  0
H  H25  1  0.75711658  0.52860321  0.76687484  1  0  0.097541  0  0.945165  0  0  0.116415  0  1.004025  0  0  0.117632  0  1.00435  0  0  0.100785  0.115314  0  1.004034  0
H  H26  1  0.59776779  0.96427021  0.29488268  1  0  0.097443  0  0.944026  0  0  0.110633  0  1.011883  0  0  0.111666  0  1.012803  0  0  0.096636  0.109671  0  1.011588  0
H  H27  1  0.03572659  0.40223604  0.20512187  1  0  0.097545  0  0.944058  0  0  0.110719  0  1.011868  0  0  0.11175  0  1.01279  0  0  0.096682  0.10976  0  1.011571  0
H  H28  1  0.40223342  0.03572831  0.70512150  1  0  0.097562  0  0.944019  0  0  0.11074  0  1.011841  0  0  0.111773  0  1.012762  0  0  0.096696  0.109768  0  1.011558  0
H  H29  1  0.96426918  0.59776366  0.79487514  1  0  0.097518  0  0.943978  0  0  0.110712  0  1.011786  0  0  0.111747  0  1.012707  0  0  0.096678  0.109737  0  1.011506  0
H  H30  1  0.34846807  0.87576520  0.37252101  1  0  0.071973  0  0.941358  0  0  0.088253  0  1.003911  0  0  0.090204  0  1.002938  0  0  0.088144  0.086889  0  1.004163  0
H  H31  1  0.12422848  0.65153465  0.12748147  1  0  0.071952  0  0.941337  0  0  0.088221  0  1.003908  0  0  0.090172  0  1.002934  0  0  0.088131  0.086857  0  1.004158  0
H  H32  1  0.65153540  0.12423701  0.62748054  1  0  0.071955  0  0.941381  0  0  0.088233  0  1.003935  0  0  0.090184  0  1.002962  0  0  0.088131  0.086869  0  1.004185  0
H  H33  1  0.87576377  0.34846499  0.87251976  1  0  0.071972  0  0.941447  0  0  0.088247  0  1.003997  0  0  0.090197  0  1.003026  0  0  0.088147  0.086883  0  1.004248  0
H  H34  1  0.47850933  0.83358854  0.51959632  1  0  0.059198  0  0.954645  0  0  0.079332  0  1.016114  0  0  0.07947  0  1.017208  0  0  0.086202  0.079013  0  1.015501  0
H  H35  1  0.16640721  0.52149407  0.98040657  1  0  0.05923  0  0.954543  0  0  0.079348  0  1.016027  0  0  0.079485  0  1.017119  0  0  0.086226  0.079029  0  1.015416  0
H  H36  1  0.52148885  0.16640753  0.48040345  1  0  0.059215  0  0.954617  0  0  0.07934  0  1.016095  0  0  0.079479  0  1.017189  0  0  0.086218  0.079022  0  1.015481  0
H  H37  1  0.83358532  0.47851045  0.01959185  1  0  0.059187  0  0.954636  0  0  0.079326  0  1.016099  0  0  0.079466  0  1.017192  0  0  0.086202  0.079006  0  1.01549  0
C  C38  1  0.77235584  0.29224857  0.33348865  1  0  0.171624  0  3.659108  0  0  0.156961  0  3.928748  0  0  0.167709  0  3.939406  0  0  0.12926  0.149654  0  3.921801  0
C  C39  1  0.70775343  0.22764909  0.16652354  1  0  0.171747  0  3.658612  0  0  0.156885  0  3.928436  0  0  0.167627  0  3.9391  0  0  0.129231  0.149581  0  3.921489  0
C  C40  1  0.22764745  0.70776094  0.66651363  1  0  0.171512  0  3.659144  0  0  0.156758  0  3.928948  0  0  0.167513  0  3.939597  0  0  0.129187  0.149459  0  3.922001  0
C  C41  1  0.29225992  0.77234716  0.83347694  1  0  0.171917  0  3.658041  0  0  0.157042  0  3.927947  0  0  0.167779  0  3.938616  0  0  0.129251  0.149736  0  3.921002  0
C  C42  1  0.71452893  0.42017508  0.41935380  1  0  -0.178688  0  3.694212  0  0  -0.21816  0  3.947685  0  0  -0.220884  0  3.957058  0  0  -0.15857  -0.216203  0  3.941597  0
C  C43  1  0.57982438  0.28546657  0.08064627  1  0  -0.178749  0  3.694099  0  0  -0.218169  0  3.947685  0  0  -0.220885  0  3.957045  0  0  -0.158582  -0.216214  0  3.9416  0
C  C44  1  0.28547498  0.57982469  0.58064930  1  0  -0.178634  0  3.694066  0  0  -0.218103  0  3.947583  0  0  -0.220826  0  3.956954  0  0  -0.158563  -0.216154  0  3.941504  0
C  C45  1  0.42017488  0.71453317  0.91935161  1  0  -0.178883  0  3.694264  0  0  -0.218308  0  3.947834  0  0  -0.221012  0  3.957181  0  0  -0.158626  -0.216353  0  3.941753  0
C  C46  1  0.55572481  0.43644845  0.32593345  1  0  -0.108406  0  3.682118  0  0  -0.14907  0  3.943146  0  0  -0.150499  0  3.957341  0  0  -0.168133  -0.148137  0  3.933405  0
C  C47  1  0.56355660  0.44427823  0.17407189  1  0  -0.108476  0  3.682089  0  0  -0.149156  0  3.943137  0  0  -0.150587  0  3.957328  0  0  -0.16817  -0.148216  0  3.933375  0
C  C48  1  0.44427831  0.56355254  0.67406670  1  0  -0.108565  0  3.682283  0  0  -0.149153  0  3.943219  0  0  -0.15058  0  3.957414  0  0  -0.168165  -0.148212  0  3.933464  0
C  C49  1  0.43644650  0.55572275  0.82593132  1  0  -0.108418  0  3.682096  0  0  -0.14908  0  3.943075  0  0  -0.150514  0  3.957265  0  0  -0.168164  -0.148141  0  3.933323  0
C  C50  1  0.75321970  0.88053461  0.44441554  1  0  0.710003  0  3.822448  0  0  0.656631  0  4.126915  0  0  0.690512  0  4.120552  0  0  0.214969  0.634176  0  4.129421  0
C  C51  1  0.11946322  0.24677997  0.05558822  1  0  0.709856  0  3.822594  0  0  0.656375  0  4.127193  0  0  0.690253  0  4.120836  0  0  0.214811  0.63392  0  4.129693  0
C  C52  1  0.24678566  0.11947006  0.55558606  1  0  0.710052  0  3.822252  0  0  0.656654  0  4.126747  0  0  0.690533  0  4.120386  0  0  0.214971  0.634199  0  4.129251  0
C  C53  1  0.88053029  0.75321604  0.94441141  1  0  0.709962  0  3.822435  0  0  0.656565  0  4.126935  0  0  0.690445  0  4.120573  0  0  0.214909  0.634112  0  4.129438  0
C  C54  1  0.58416396  0.87787819  0.35591955  1  0  -0.266495  0  3.684719  0  0  -0.306886  0  3.938542  0  0  -0.312702  0  3.948423  0  0  -0.165291  -0.302913  0  3.93165  0
C  C55  1  0.12211604  0.41584170  0.14408277  1  0  -0.266596  0  3.684806  0  0  -0.306875  0  3.938542  0  0  -0.312687  0  3.948419  0  0  -0.165288  -0.302903  0  3.931647  0
C  C56  1  0.41583842  0.12212035  0.64408288  1  0  -0.266569  0  3.684732  0  0  -0.306895  0  3.938485  0  0  -0.312716  0  3.948372  0  0  -0.165284  -0.302916  0  3.931593  0
C  C57  1  0.87787738  0.58415797  0.85591570  1  0  -0.266637  0  3.684797  0  0  -0.306963  0  3.938564  0  0  -0.312792  0  3.948461  0  0  -0.165296  -0.30298  0  3.931673  0
C  C58  1  0.47488499  0.91102654  0.44899037  1  0  -0.081429  0  3.68612  0  0  -0.122806  0  3.944015  0  0  -0.122789  0  3.957068  0  0  -0.17252  -0.122843  0  3.935278  0
C  C59  1  0.08896563  0.52511502  0.05100904  1  0  -0.081334  0  3.686079  0  0  -0.122719  0  3.94398  0  0  -0.122701  0  3.95703  0  0  -0.172501  -0.122757  0  3.935242  0
C  C60  1  0.52511623  0.08897198  0.55101177  1  0  -0.081434  0  3.686121  0  0  -0.122822  0  3.944021  0  0  -0.122804  0  3.957075  0  0  -0.172526  -0.122856  0  3.935278  0
C  C61  1  0.91102593  0.47488220  0.94898633  1  0  -0.081402  0  3.68629  0  0  -0.122802  0  3.944177  0  0  -0.122782  0  3.957232  0  0  -0.172542  -0.122836  0  3.935435  0
N  N62  1  0.88063075  0.23380362  0.39970561  1  0  -0.199689  0  3.185769  0  0  -0.157354  0  3.48844  0  0  -0.16652  0  3.499568  0  0  -0.247137  -0.152063  0  3.48062  0
N  N63  1  0.76620201  0.11936280  0.10029548  1  0  -0.199816  0  3.185692  0  0  -0.157412  0  3.488403  0  0  -0.166577  0  3.499537  0  0  -0.247103  -0.152123  0  3.480584  0
N  N64  1  0.11938123  0.76619989  0.60030141  1  0  -0.199657  0  3.185906  0  0  -0.157268  0  3.48859  0  0  -0.16643  0  3.499712  0  0  -0.247154  -0.151979  0  3.480773  0
N  N65  1  0.23379704  0.88064420  0.89971025  1  0  -0.199849  0  3.185475  0  0  -0.157436  0  3.488226  0  0  -0.1666  0  3.499363  0  0  -0.247042  -0.152147  0  3.480405  0
O  O66  1  0.93992138  0.29548677  0.55388604  1  0  -0.361885  0  2.049493  0  0  -0.31508  0  2.272635  0  0  -0.335035  0  2.270765  0  0  -0.243898  -0.300012  0  2.271906  0
O  O67  1  0.70451736  0.06007948  0.94611826  1  0  -0.361864  0  2.0497  0  0  -0.31501  0  2.272864  0  0  -0.334969  0  2.270999  0  0  -0.243897  -0.299941  0  2.272132  0
O  O68  1  0.06008317  0.70451911  0.44611464  1  0  -0.361849  0  2.049397  0  0  -0.315054  0  2.272589  0  0  -0.335014  0  2.270715  0  0  -0.243902  -0.299986  0  2.271863  0
O  O69  1  0.29547508  0.93991287  0.05387919  1  0  -0.361745  0  2.050108  0  0  -0.314905  0  2.273251  0  0  -0.334869  0  2.271386  0  0  -0.243835  -0.299835  0  2.272514  0
O  O70  1  0.85201127  0.85677026  0.37228267  1  0  -0.682154  0  2.07828  0  0  -0.614493  0  2.335639  0  0  -0.642321  0  2.323344  0  0  -0.332679  -0.595776  0  2.343021  0
O  O71  1  0.14322978  0.14799306  0.12771563  1  0  -0.681981  0  2.078468  0  0  -0.614291  0  2.335831  0  0  -0.64212  0  2.32354  0  0  -0.332561  -0.595575  0  2.343211  0
O  O72  1  0.14799067  0.14323071  0.62772025  1  0  -0.682191  0  2.078154  0  0  -0.61456  0  2.335543  0  0  -0.642389  0  2.323244  0  0  -0.332697  -0.595844  0  2.342926  0
O  O73  1  0.85676949  0.85200668  0.87228224  1  0  -0.68211  0  2.078328  0  0  -0.614443  0  2.335702  0  0  -0.64227  0  2.323405  0  0  -0.33262  -0.595726  0  2.343084  0
O  O74  1  0.78591295  0.90072253  0.58326146  1  0  -0.613193  0  2.022685  0  0  -0.538246  0  2.275678  0  0  -0.566856  0  2.264174  0  0  -0.317816  -0.51848  0  2.282563  0
O  O75  1  0.09926872  0.21408718  0.91673544  1  0  -0.613264  0  2.022657  0  0  -0.53821  0  2.275605  0  0  -0.566822  0  2.264104  0  0  -0.317794  -0.518445  0  2.282486  0
O  O76  1  0.21408791  0.09927477  0.41674132  1  0  -0.613211  0  2.022584  0  0  -0.538273  0  2.275608  0  0  -0.56688  0  2.264099  0  0  -0.317832  -0.518509  0  2.282495  0
O  O77  1  0.90072240  0.78591249  0.08325634  1  0  -0.613179  0  2.022568  0  0  -0.538258  0  2.275605  0  0  -0.566866  0  2.2641  0  0  -0.317844  -0.518493  0  2.282493  0
