# generated using pymatgen
data_Cu3H8(C2N13)2
_symmetry_space_group_name_H-M   'P 1'
_cell_length_a   8.37683786
_cell_length_b   10.04111144
_cell_length_c   11.10060874
_cell_angle_alpha   89.97963347
_cell_angle_beta   89.99966604
_cell_angle_gamma   99.42265473
_symmetry_Int_Tables_number   1
_chemical_formula_structural   Cu3H8(C2N13)2
_chemical_formula_sum   'Cu6 H16 C8 N52'
_cell_volume   921.10482518
_cell_formula_units_Z   2
loop_
 _symmetry_equiv_pos_site_id
 _symmetry_equiv_pos_as_xyz
  1  'x, y, z'
loop_
 _atom_site_type_symbol
 _atom_site_label
 _atom_site_symmetry_multiplicity
 _atom_site_fract_x
 _atom_site_fract_y
 _atom_site_fract_z
 _atom_site_occupancy
 _atom_site_hle17_ddec_charge
 _atom_site_hle17_ddec_spin_density
 _atom_site_hle17_ddec_sum_bond_order
 _atom_site_hle17_magmom
 _atom_site_hse06_10hf_ddec_charge
 _atom_site_hse06_10hf_ddec_spin_density
 _atom_site_hse06_10hf_ddec_sum_bond_order
 _atom_site_hse06_10hf_magmom
 _atom_site_hse06_ddec_charge
 _atom_site_hse06_ddec_spin_density
 _atom_site_hse06_ddec_sum_bond_order
 _atom_site_hse06_magmom
 _atom_site_pbe_cm5_charge
 _atom_site_pbe_ddec_charge
 _atom_site_pbe_ddec_spin_density
 _atom_site_pbe_ddec_sum_bond_order
 _atom_site_pbe_magmom
Cu  Cu0  1  0.38942813  0.05444297  0.88104747  1  0.738599  0.51518  2.035657  0.329  0.744673  0.697941  2.457266  0.513  0.836183  0.819498  2.380203  0.625  0.777347  0.701912  0.577888  2.501078  0.414
Cu  Cu1  1  0.38969983  0.55439380  0.61901152  1  0.740239  0.483392  2.046752  0.308  0.744611  0.695949  2.471965  0.511  0.834986  0.819678  2.395469  0.624  0.783183  0.704366  0.542087  2.512754  0.388
Cu  Cu2  1  0.61050891  0.94553389  0.11960638  1  0.738547  0.483246  2.040301  0.309  0.744925  0.685946  2.463323  0.505  0.836448  0.814423  2.38618  0.621  0.777972  0.701662  0.54552  2.507377  0.391
Cu  Cu3  1  0.61144390  0.44549786  0.38085861  1  0.732903  -0.532795  2.021098  -0.356  0.7444  -0.683836  2.438236  -0.515  0.837461  -0.800988  2.360268  -0.623  0.770066  0.69779  -0.595944  2.48561  -0.441
Cu  Cu4  1  0.99988205  0.00015045  0.00007060  1  0.712473  -0.552556  2.002634  -0.373  0.73702  -0.733344  2.378494  -0.555  0.834353  -0.864125  2.311191  -0.677  0.769674  0.670082  -0.562142  2.429275  -0.419
Cu  Cu5  1  0.99970748  0.49912792  0.49896696  1  0.717211  -0.584858  2.00276  -0.394  0.741663  -0.74821  2.378858  -0.567  0.835537  -0.866219  2.313476  -0.679  0.775266  0.677751  -0.60868  2.427864  -0.453
H  H6  1  0.17589024  0.54598974  0.10833776  1  0.288061  -0.000994  0.93356  0.0  0.275866  -0.000864  1.001938  0.0  0.281459  -0.000701  0.996506  0.0  0.301285  0.272192  -0.00101  1.005749  0.0
H  H7  1  0.17603743  0.04600023  0.39323643  1  0.288789  -0.000439  0.929618  0.0  0.276683  -0.000226  0.998164  0.0  0.2823  -0.000131  0.992852  0.0  0.302549  0.272925  -0.000302  1.001705  0.0
H  H8  1  0.82340157  0.45308233  0.89527554  1  0.289954  -0.000495  0.926477  0.0  0.278172  -0.00029  0.994731  0.0  0.283805  -0.000177  0.989537  0.0  0.303572  0.274188  -0.000422  0.998291  0.0
H  H9  1  0.82379514  0.95329052  0.60656983  1  0.289282  -0.000486  0.928842  0.0  0.277444  -0.00035  0.996999  0.0  0.283076  -0.000253  0.991735  0.0  0.302809  0.273498  -0.000413  1.000762  0.0
H  H10  1  0.35425219  0.53119941  0.17102726  1  0.284808  -6.6e-05  0.950206  0.0  0.271675  9.2e-05  1.021758  0.0  0.277963  0.000291  1.016944  0.0  0.291415  0.267733  -0.000121  1.024402  0.0
H  H11  1  0.35340825  0.03092752  0.32910590  1  0.284237  0.000171  0.949046  0.0  0.272027  -8.6e-05  1.019922  0.0  0.278225  -0.000293  1.015269  0.0  0.291984  0.267952  0.000115  1.022508  0.0
H  H12  1  0.64760028  0.46886405  0.82906714  1  0.283536  0.000126  0.949808  0.0  0.272027  -0.000154  1.019895  0.0  0.278434  -0.000369  1.015067  0.0  0.291883  0.267233  5.5e-05  1.023159  0.0
H  H13  1  0.64692179  0.96896681  0.67106060  1  0.283796  0.000149  0.949574  0.0  0.272347  -0.000135  1.019565  0.0  0.278761  -0.000354  1.014713  0.0  0.291933  0.267733  8.9e-05  1.022835  0.0
H  H14  1  0.00824967  0.31118294  0.11267641  1  0.131149  0.000536  0.917756  0.0  0.139486  0.00055  0.980019  0.0  0.14309  0.000452  0.975081  0.0  0.152488  0.136833  0.000554  0.983461  0.0
H  H15  1  0.00824145  0.80987861  0.38719142  1  0.131879  0.000177  0.916681  0.0  0.140225  0.000205  0.978647  0.0  0.143807  0.00014  0.973752  0.0  0.152953  0.137612  0.000222  0.982045  0.0
H  H16  1  0.99173896  0.68891122  0.88815219  1  0.130946  0.000558  0.916457  0.0  0.139874  0.000663  0.978106  0.0  0.143762  0.000523  0.972965  0.0  0.152322  0.136575  0.000681  0.982053  0.0
H  H17  1  0.99215571  0.18800744  0.61203041  1  0.131935  -8e-06  0.915754  0.0  0.140762  -5e-06  0.977615  -0.001  0.144693  -4.9e-05  0.972275  -0.001  0.152667  0.137347  3e-06  0.981838  0.0
H  H18  1  0.49357253  0.36118784  0.98689681  1  0.121692  -0.000309  0.976045  0.0  0.124498  -0.000398  1.049256  0.0  0.12885  -0.000412  1.044204  0.0  0.142425  0.120788  -0.000303  1.053602  0.0
H  H19  1  0.49357677  0.86097080  0.51354995  1  0.121968  -0.000221  0.975376  0.0  0.124554  -0.000381  1.048903  0.0  0.128894  -0.000394  1.043937  0.0  0.142558  0.120917  -0.000279  1.053073  0.0
H  H20  1  0.50621347  0.63918503  0.01364978  1  0.122041  -0.000316  0.974996  0.0  0.124872  -0.00044  1.048081  0.0  0.129257  -0.000428  1.043025  0.0  0.142683  0.121168  -0.000351  1.052354  0.0
H  H21  1  0.50671980  0.13913592  0.48685074  1  0.122373  -0.000234  0.973409  -0.001  0.124542  -0.000149  1.047315  -0.001  0.12888  -4e-05  1.042326  0.0  0.142767  0.12084  -0.000229  1.051643  -0.001
C  C22  1  0.11951482  0.28969347  0.07295204  1  0.142925  0.003949  3.598318  0.002  0.072565  0.001135  3.86275  0.0  0.090512  0.002018  3.869763  0.002  0.166586  0.061551  0.000507  3.857903  0.0
C  C23  1  0.11964742  0.78901619  0.42714456  1  0.144083  0.003647  3.594932  0.002  0.072617  0.000813  3.859849  0.0  0.089806  0.001749  3.867664  0.002  0.167748  0.062674  4e-06  3.853902  -0.001
C  C24  1  0.88033713  0.71041681  0.92760811  1  0.144237  0.003609  3.600275  0.002  0.074244  0.000953  3.863393  0.0  0.091993  0.001825  3.87029  0.002  0.168051  0.063264  0.00027  3.859389  0.0
C  C25  1  0.88098825  0.20994417  0.57248338  1  0.143207  0.003601  3.601506  0.002  0.073893  -0.000401  3.863312  -0.001  0.092618  0.000905  3.869394  0.0  0.166579  0.061574  -0.001346  3.86052  -0.002
C  C26  1  0.36893777  0.31644689  0.00684629  1  0.160001  -0.003973  3.555125  -0.004  0.096778  -0.001856  3.804812  -0.002  0.113069  -0.002117  3.812541  -0.002  0.168442  0.085538  -0.0012  3.802148  -0.001
C  C27  1  0.36899273  0.81613423  0.49361257  1  0.161359  -0.004154  3.555907  -0.005  0.096482  -0.002011  3.806159  -0.002  0.112187  -0.002228  3.814462  -0.002  0.169361  0.086423  -0.001636  3.802219  -0.002
C  C28  1  0.63083379  0.68386742  0.99358590  1  0.161628  -0.004313  3.556222  -0.004  0.097424  -0.002158  3.806394  -0.002  0.11345  -0.002373  3.814548  -0.002  0.169428  0.087132  -0.001581  3.802327  -0.002
C  C29  1  0.63137446  0.18385106  0.50679535  1  0.162567  0.002249  3.554574  0.001  0.100079  -9e-05  3.804087  -0.001  0.116974  0.0012  3.811746  0.001  0.168904  0.088348  -0.001278  3.801174  -0.002
N  N30  1  0.14394736  0.17471868  0.02350643  1  -0.222801  -0.044157  3.323511  -0.052  -0.186454  -0.043177  3.639285  -0.056  -0.213249  -0.039573  3.662322  -0.053  -0.264627  -0.171929  -0.035741  3.628499  -0.045
N  N31  1  0.14433192  0.67415432  0.47669982  1  -0.219524  -0.048352  3.321462  -0.057  -0.183954  -0.045136  3.637357  -0.058  -0.210689  -0.04036  3.661241  -0.054  -0.262474  -0.168999  -0.040051  3.624889  -0.049
N  N32  1  0.85587842  0.82546303  0.97678164  1  -0.2204  -0.044305  3.322513  -0.053  -0.184875  -0.043207  3.638746  -0.056  -0.211826  -0.039512  3.66224  -0.053  -0.263762  -0.169807  -0.035914  3.626768  -0.045
N  N33  1  0.85694192  0.32532499  0.52354873  1  -0.22471  -0.051225  3.315576  -0.059  -0.18878  -0.047706  3.632419  -0.06  -0.215262  -0.0426  3.654972  -0.055  -0.267459  -0.174503  -0.043027  3.622037  -0.052
N  N34  1  0.29961512  0.19090903  0.98373101  1  -0.225387  0.030913  3.274732  0.035  -0.185001  0.035597  3.583732  0.045  -0.208038  0.035802  3.603643  0.048  -0.257238  -0.173154  0.032294  3.575197  0.039
N  N35  1  0.29973275  0.69060189  0.51668022  1  -0.224515  0.028625  3.281488  0.032  -0.18418  0.035733  3.591243  0.045  -0.206999  0.036216  3.611215  0.048  -0.256783  -0.171488  0.029873  3.581084  0.036
N  N36  1  0.70017738  0.80938935  0.01649038  1  -0.2246  0.029539  3.275129  0.033  -0.185047  0.035679  3.585528  0.045  -0.208258  0.036037  3.605883  0.048  -0.256666  -0.172091  0.031529  3.574993  0.038
N  N37  1  0.70033182  0.30954130  0.48387272  1  -0.229066  -0.034183  3.263037  -0.039  -0.189568  -0.036836  3.574497  -0.046  -0.212418  -0.035604  3.593985  -0.046  -0.260185  -0.178066  -0.036338  3.566189  -0.044
N  N38  1  0.25878995  0.38055906  0.06308635  1  0.091948  -0.000258  3.601357  0.0  0.206404  -0.000241  3.78575  0.0  0.197624  -0.000166  3.80097  0.0  -0.134297  0.211665  -0.000178  3.775233  0.0
N  N39  1  0.25877857  0.88004597  0.43716695  1  0.090578  6.7e-05  3.60077  0.0  0.206832  -3.4e-05  3.784315  0.0  0.198025  1.4e-05  3.799969  0.0  -0.133676  0.211912  5.8e-05  3.773362  0.0
N  N40  1  0.74100668  0.61962638  0.93753594  1  0.090288  -0.000302  3.601868  0.0  0.205914  -0.000584  3.785369  0.0  0.197135  -0.000537  3.800657  0.0  -0.134495  0.210611  -0.000437  3.775228  0.0
N  N41  1  0.74154483  0.11942601  0.56264649  1  0.089814  -0.002266  3.60501  -0.003  0.206432  -0.002067  3.786667  -0.003  0.197544  -0.001748  3.801887  -0.002  -0.134816  0.211441  -0.002003  3.77662  -0.002
N  N42  1  0.28631331  0.51741958  0.09248439  1  -0.504317  -0.002957  2.924396  -0.003  -0.512612  -0.002604  3.147396  -0.003  -0.524164  -0.001461  3.147143  -0.002  -0.485285  -0.504302  -0.003265  3.14692  -0.004
N  N43  1  0.28634069  0.01700359  0.40800306  1  -0.502431  -0.002286  2.924081  -0.003  -0.512839  -0.00136  3.147573  -0.002  -0.524507  -0.000871  3.14748  -0.002  -0.485088  -0.504035  -0.001467  3.147015  -0.002
N  N44  1  0.71318389  0.48262534  0.90856043  1  -0.50209  -0.002258  2.927741  -0.003  -0.512324  -0.001824  3.150827  -0.003  -0.524061  -0.001371  3.150558  -0.002  -0.484087  -0.503044  -0.001779  3.150897  -0.002
N  N45  1  0.71360168  0.98255108  0.59197702  1  -0.501607  -0.00354  2.925851  -0.005  -0.512333  -0.00273  3.148017  -0.004  -0.524123  -0.002099  3.147737  -0.003  -0.484646  -0.503652  -0.002753  3.148018  -0.004
N  N46  1  0.15913766  0.95664753  0.86720071  1  -0.516364  -0.017736  2.871733  -0.022  -0.549221  -0.004735  3.240903  -0.008  -0.603594  -0.001616  3.257797  -0.004  -0.341734  -0.52038  -0.0001  3.234302  -0.002
N  N47  1  0.15976103  0.45714328  0.63186566  1  -0.509465  -0.030905  2.866507  -0.038  -0.549508  -0.007324  3.241958  -0.011  -0.604556  -0.002399  3.259471  -0.005  -0.340291  -0.517777  -0.006077  3.232206  -0.009
N  N48  1  0.84048173  0.04334812  0.13294686  1  -0.514058  -0.020683  2.869647  -0.026  -0.549551  -0.004941  3.242072  -0.008  -0.604196  -0.001583  3.259248  -0.004  -0.341446  -0.519867  -0.001583  3.234388  -0.003
N  N49  1  0.84237147  0.54657606  0.36517157  1  -0.51538  -0.093589  2.861696  -0.11  -0.550396  -0.065739  3.230568  -0.084  -0.601814  -0.049321  3.245616  -0.068  -0.340061  -0.525386  -0.068402  3.227164  -0.083
N  N50  1  0.10453286  0.94142585  0.76580704  1  0.398113  0.008724  4.129996  0.012  0.44432  0.002229  4.429577  0.004  0.465274  0.001169  4.464758  0.002  0.098986  0.43121  0.001093  4.40845  0.002
N  N51  1  0.10510188  0.44152518  0.73337083  1  0.39574  0.01406  4.120732  0.02  0.442959  0.002639  4.425923  0.004  0.463892  0.001364  4.462699  0.002  0.099708  0.429693  0.000896  4.400985  0.003
N  N52  1  0.89522445  0.05838641  0.23434777  1  0.398618  0.01025  4.127115  0.014  0.444428  0.002272  4.429624  0.004  0.465186  0.00118  4.465238  0.002  0.099143  0.431848  0.001138  4.406503  0.002
N  N53  1  0.89706000  0.55848782  0.26394625  1  0.399055  0.031424  4.132575  0.045  0.445308  0.003668  4.435621  0.013  0.465988  0.010059  4.468279  0.02  0.095166  0.432846  -0.002722  4.418011  0.005
N  N54  1  0.05100816  0.92553920  0.66946364  1  -0.304607  -0.028965  2.40083  -0.032  -0.30657  -0.004314  2.625787  -0.006  -0.315096  0.001493  2.636946  0.001  -0.140923  -0.303173  -0.00257  2.619654  -0.004
N  N55  1  0.05146718  0.42533451  0.82957098  1  -0.291182  -0.049693  2.394522  -0.054  -0.300673  -0.007524  2.623171  -0.01  -0.311677  0.000898  2.636058  0.0  -0.132561  -0.291079  -0.013688  2.613097  -0.016
N  N56  1  0.94892245  0.07408088  0.33062544  1  -0.301078  -0.035223  2.401162  -0.038  -0.305596  -0.00543  2.627884  -0.007  -0.314259  0.000821  2.639229  0.0  -0.138384  -0.30027  -0.00644  2.620122  -0.008
N  N57  1  0.95009377  0.57231214  0.16710508  1  -0.314411  -0.144731  2.399378  -0.154  -0.317211  -0.089651  2.62713  -0.101  -0.322347  -0.080355  2.635871  -0.095  -0.151416  -0.319961  -0.09166  2.624844  -0.1
N  N58  1  0.47874954  0.91568621  0.79035037  1  -0.504192  0.068315  2.744917  0.077  -0.531716  0.038772  3.075186  0.049  -0.571635  0.024982  3.089352  0.034  -0.311539  -0.507939  0.043162  3.06611  0.051
N  N59  1  0.47854847  0.41586094  0.70950510  1  -0.500258  0.064941  2.74488  0.073  -0.530719  0.038077  3.077  0.048  -0.570649  0.024699  3.09118  0.033  -0.310712  -0.504497  0.04045  3.065556  0.048
N  N60  1  0.52082637  0.08466096  0.20952599  1  -0.503918  0.066213  2.746957  0.075  -0.531382  0.03877  3.076214  0.048  -0.570209  0.025926  3.089414  0.035  -0.311571  -0.507873  0.042114  3.067507  0.049
N  N61  1  0.51992643  0.58466499  0.29113785  1  -0.50949  -0.07304  2.752487  -0.086  -0.531692  -0.040283  3.075824  -0.051  -0.570186  -0.026255  3.089122  -0.036  -0.31268  -0.511027  -0.046621  3.069576  -0.056
N  N62  1  0.41406765  0.79960815  0.79541658  1  0.389706  -0.024701  4.181306  -0.037  0.438049  -0.003512  4.486753  -0.01  0.457747  -0.005464  4.52529  -0.012  0.081593  0.426517  -0.000965  4.461375  -0.007
N  N63  1  0.41361541  0.29981224  0.70426737  1  0.386593  -0.024086  4.179291  -0.036  0.436711  -0.003152  4.48645  -0.01  0.4566  -0.004999  4.525308  -0.011  0.081892  0.424541  -0.001194  4.457977  -0.007
N  N64  1  0.58549470  0.20075603  0.20457148  1  0.387178  -0.021649  4.182286  -0.033  0.437768  -0.00161  4.486028  -0.008  0.457874  -0.003452  4.524053  -0.009  0.081035  0.425203  0.000641  4.460012  -0.005
N  N65  1  0.58439875  0.70070116  0.29575761  1  0.388417  0.02509  4.189634  0.036  0.43905  0.002002  4.486638  0.008  0.458732  0.00373  4.524325  0.009  0.080004  0.42739  -0.00052  4.464098  0.006
N  N66  1  0.35601764  0.18555685  0.70223185  1  -0.356846  0.106514  2.477974  0.11  -0.400272  0.059275  2.761395  0.066  -0.421238  0.052104  2.773282  0.061  -0.197837  -0.383326  0.056263  2.750278  0.061
N  N67  1  0.35635335  0.68534897  0.79763129  1  -0.363672  0.110926  2.479346  0.114  -0.400634  0.059811  2.760568  0.067  -0.420541  0.052101  2.771934  0.061  -0.201711  -0.389506  0.059447  2.752952  0.064
N  N68  1  0.64239029  0.81495554  0.29800302  1  -0.371143  -0.112065  2.484253  -0.119  -0.402868  -0.059212  2.761054  -0.066  -0.421855  -0.050609  2.77156  -0.058  -0.205093  -0.394957  -0.061659  2.755856  -0.067
N  N69  1  0.64303826  0.31506021  0.20252073  1  -0.361516  0.106301  2.482876  0.107  -0.402005  0.058753  2.764972  0.064  -0.422943  0.051107  2.776386  0.058  -0.200568  -0.386835  0.057282  2.755572  0.06
N  N70  1  0.60741444  0.15677748  0.91859068  1  -0.470486  0.08455  2.700656  0.094  -0.514776  0.040354  3.042818  0.051  -0.554874  0.024532  3.055801  0.034  -0.299  -0.493007  0.048366  3.036869  0.057
N  N71  1  0.60731439  0.65621455  0.58102381  1  -0.466469  0.087923  2.699145  0.096  -0.51643  0.041278  3.047318  0.051  -0.557061  0.025417  3.060877  0.034  -0.297917  -0.490444  0.04723  3.037274  0.055
N  N72  1  0.39260151  0.84495841  0.08000445  1  -0.471063  0.084214  2.702147  0.093  -0.518126  0.039819  3.048605  0.05  -0.558723  0.024157  3.061747  0.034  -0.300038  -0.495098  0.047321  3.041495  0.056
N  N73  1  0.39222001  0.34425010  0.41951195  1  -0.472746  -0.08214  2.699864  -0.095  -0.513647  -0.044277  3.039337  -0.056  -0.554978  -0.026184  3.052747  -0.037  -0.298155  -0.493978  -0.053457  3.036004  -0.064
N  N74  1  0.72989905  0.12775780  0.87850985  1  0.383194  -0.029389  4.17756  -0.044  0.441859  -0.002825  4.488968  -0.01  0.463712  -0.004568  4.52571  -0.011  0.079054  0.42786  -0.000508  4.46392  -0.008
N  N75  1  0.72964104  0.62695055  0.62125574  1  0.384091  -0.029611  4.173167  -0.044  0.441743  -0.002133  4.490858  -0.009  0.463239  -0.003836  4.528228  -0.01  0.079592  0.427844  0.000125  4.462392  -0.007
N  N76  1  0.27016989  0.87314971  0.12101419  1  0.384971  -0.029382  4.174344  -0.044  0.442998  -0.002962  4.488035  -0.01  0.46488  -0.004659  4.525247  -0.011  0.079615  0.428984  -0.000678  4.46198  -0.008
N  N77  1  0.26958982  0.37261059  0.37916847  1  0.385716  0.033752  4.17693  0.047  0.442993  0.00499  4.486254  0.013  0.465426  0.00632  4.523516  0.013  0.078736  0.428712  0.002208  4.463536  0.01
N  N78  1  0.85348040  0.10222746  0.84304802  1  -0.384322  0.13849  2.487831  0.14  -0.441522  0.066456  2.782106  0.072  -0.464659  0.056047  2.794961  0.063  -0.214696  -0.422849  0.069627  2.771842  0.073
N  N79  1  0.85297406  0.60111959  0.65682340  1  -0.379331  0.139867  2.482235  0.141  -0.440345  0.066829  2.779818  0.072  -0.463226  0.056417  2.793113  0.064  -0.211194  -0.418827  0.067382  2.767098  0.07
N  N80  1  0.14664053  0.89805233  0.15709230  1  -0.380319  0.136945  2.484514  0.138  -0.438323  0.065286  2.779391  0.071  -0.46204  0.055134  2.792828  0.062  -0.211911  -0.418555  0.067686  2.767967  0.071
N  N81  1  0.14585372  0.39779327  0.34357118  1  -0.386681  -0.138344  2.49067  -0.148  -0.439048  -0.070022  2.784221  -0.08  -0.463761  -0.05757  2.798066  -0.069  -0.214405  -0.422195  -0.075144  2.774955  -0.083
