# generated using pymatgen
data_GdH13C21(N3O10)2
_symmetry_space_group_name_H-M   'P 1'
_cell_length_a   9.41760726
_cell_length_b   11.93258756
_cell_length_c   14.12700000
_cell_angle_alpha   114.84641441
_cell_angle_beta   102.49939379
_cell_angle_gamma   97.30398838
_symmetry_Int_Tables_number   1
_chemical_formula_structural   GdH13C21(N3O10)2
_chemical_formula_sum   'Gd2 H26 C42 N12 O40'
_cell_volume   1363.17497870
_cell_formula_units_Z   2
loop_
 _symmetry_equiv_pos_site_id
 _symmetry_equiv_pos_as_xyz
  1  'x, y, z'
loop_
 _atom_site_type_symbol
 _atom_site_label
 _atom_site_symmetry_multiplicity
 _atom_site_fract_x
 _atom_site_fract_y
 _atom_site_fract_z
 _atom_site_occupancy
 _atom_site_hle17_bader_spin_density
 _atom_site_hle17_ddec_charge
 _atom_site_hle17_ddec_spin_density
 _atom_site_hle17_ddec_sum_bond_order
 _atom_site_hle17_magmom
 _atom_site_hse06_10hf_bader_spin_density
 _atom_site_hse06_10hf_ddec_charge
 _atom_site_hse06_10hf_ddec_spin_density
 _atom_site_hse06_10hf_ddec_sum_bond_order
 _atom_site_hse06_10hf_magmom
 _atom_site_hse06_bader_spin_density
 _atom_site_hse06_ddec_charge
 _atom_site_hse06_ddec_spin_density
 _atom_site_hse06_ddec_sum_bond_order
 _atom_site_hse06_magmom
 _atom_site_pbe_bader_charge
 _atom_site_pbe_bader_spin_density
 _atom_site_pbe_cm5_charge
 _atom_site_pbe_ddec_charge
 _atom_site_pbe_ddec_spin_density
 _atom_site_pbe_ddec_sum_bond_order
 _atom_site_pbe_magmom
Gd  Gd0  1  0.73650317  0.03380783  0.50945951  1  0  2.26234  0  1.760571  0  0  2.178587  0  2.114181  0  0  2.225838  0  2.06736  0  2.226383  0  1.473908  2.13706  0  2.159862  0
Gd  Gd1  1  0.26349751  0.96618969  0.49053886  1  0  2.262337  0  1.760503  0  0  2.178525  0  2.114191  0  0  2.22578  0  2.067372  0  2.22641  0  1.473899  2.136999  0  2.159872  0
H  H2  1  0.22483038  0.21881759  0.42664713  1  0  0.138832  0  0.958731  0  0  0.138766  0  1.032728  0  0  0.143814  0  1.027862  0  0.175686  0  0.125286  0.134974  0  1.036449  0
H  H3  1  0.77516705  0.78118375  0.57335567  1  0  0.138878  0  0.958653  0  0  0.138809  0  1.032679  0  0  0.143867  0  1.027788  0  0.175746  0  0.125294  0.135014  0  1.036406  0
H  H4  1  0.28665700  0.52881179  0.34441060  1  0  0.156501  0  0.911427  0  0  0.158945  0  0.97545  0  0  0.164462  0  0.969736  0  0.172803  0  0.134394  0.154628  0  0.980129  0
H  H5  1  0.71334016  0.47118859  0.65559323  1  0  0.156533  0  0.911418  0  0  0.158978  0  0.97543  0  0  0.164494  0  0.969718  0  0.172688  0  0.134423  0.154662  0  0.980107  0
H  H6  1  0.64258792  0.33955044  0.37833098  1  0  0.140943  0  0.925306  0  0  0.141631  0  0.995057  0  0  0.146799  0  0.989538  0  0.162836  0  0.124406  0.137913  0  0.998903  0
H  H7  1  0.35740759  0.66044803  0.62166557  1  0  0.140996  0  0.925204  0  0  0.141642  0  0.995004  0  0  0.146811  0  0.989483  0  0.16255  0  0.124411  0.137923  0  0.99885  0
H  H8  1  0.15338317  0.68396039  0.12017390  1  0  0.13565  0  0.926007  0  0  0.137637  0  0.995769  0  0  0.142376  0  0.990778  0  0.138465  0  0.124165  0.134385  0  0.998944  0
H  H9  1  0.84662077  0.31603713  0.87982706  1  0  0.135653  0  0.925998  0  0  0.137627  0  0.995757  0  0  0.142366  0  0.990764  0  0.138417  0  0.12416  0.134363  0  0.998946  0
H  H10  1  0.35143427  0.53224012  0.85836058  1  0  0.141942  0  0.955226  0  0  0.139039  0  1.033867  0  0  0.143959  0  1.028846  0  0.193426  0  0.121636  0.135547  0  1.037524  0
H  H11  1  0.64857052  0.46776407  0.14163933  1  0  0.141967  0  0.955161  0  0  0.139075  0  1.033797  0  0  0.143997  0  1.028771  0  0.19321  0  0.12165  0.135583  0  1.037455  0
H  H12  1  0.63350985  0.77921327  0.18985301  1  0  0.133884  0  0.934671  0  0  0.138588  0  1.000016  0  0  0.143097  0  0.995872  0  0.1578  0  0.12342  0.135168  0  1.003218  0
H  H13  1  0.36649302  0.22078807  0.81014774  1  0  0.133904  0  0.934685  0  0  0.138606  0  1.000016  0  0  0.143115  0  0.995872  0  0.157832  0  0.123421  0.135186  0  1.003218  0
H  H14  1  0.25271351  0.88496171  0.72596597  1  0  0.145327  0  0.927364  0  0  0.147717  0  0.996265  0  0  0.152686  0  0.99111  0  0.188545  0  0.129583  0.143973  0  1.000189  0
H  H15  1  0.74728610  0.11503962  0.27403289  1  0  0.145299  0  0.927404  0  0  0.147696  0  0.996301  0  0  0.152665  0  0.991147  0  0.188575  0  0.129577  0.143956  0  1.000225  0
H  H16  1  0.27115454  0.04296656  0.06703268  1  0  0.147077  0  0.926182  0  0  0.150215  0  0.991582  0  0  0.155613  0  0.985943  0  0.176812  0  0.1279  0.146226  0  0.995755  0
H  H17  1  0.72884179  0.95703096  0.93296506  1  0  0.14708  0  0.926176  0  0  0.150202  0  0.99157  0  0  0.15561  0  0.985915  0  0.176726  0  0.127897  0.146191  0  0.995767  0
H  H18  1  0.96203759  0.12608117  0.84506267  1  0  0.141795  0  0.919591  0  0  0.148628  0  0.97973  0  0  0.153041  0  0.975237  0  0.175338  0  0.129872  0.145343  0  0.982975  0
H  H19  1  0.03796311  0.87392017  0.15493493  1  0  0.141717  0  0.919541  0  0  0.148582  0  0.979668  0  0  0.152983  0  0.975198  0  0.175383  0  0.129863  0.145297  0  0.982917  0
H  H20  1  0.71444048  0.74914916  0.37843285  1  0  0.42307  0  0.864228  0  0  0.39053  0  0.937205  0  0  0.400897  0  0.921695  0  0.630899  0  0.303628  0.38299  0  0.948533  0
H  H21  1  0.28555857  0.25085027  0.62156737  1  0  0.423036  0  0.864299  0  0  0.390495  0  0.937262  0  0  0.400864  0  0.921749  0  0.630905  0  0.303611  0.382955  0  0.94859  0
H  H22  1  0.95685093  0.31404474  0.67595834  1  0  0.445415  0  0.830249  0  0  0.416306  0  0.892204  0  0  0.426165  0  0.877495  0  0.655297  0  0.316685  0.409116  0  0.903045  0
H  H23  1  0.04314948  0.68595564  0.32404101  1  0  0.445434  0  0.830207  0  0  0.416323  0  0.892174  0  0  0.426182  0  0.877465  0  0.655292  0  0.316704  0.409134  0  0.903015  0
H  H24  1  0.89284740  0.79888472  0.41813890  1  0  0.44652  0  0.842839  0  0  0.417326  0  0.902927  0  0  0.427804  0  0.88752  0  0.647574  0  0.304678  0.40922  0  0.914816  0
H  H25  1  0.10715274  0.20111471  0.58186006  1  0  0.446535  0  0.842812  0  0  0.417339  0  0.902903  0  0  0.427816  0  0.887496  0  0.64758  0  0.30469  0.409233  0  0.914791  0
H  H26  1  0.91667795  0.29588355  0.55634403  1  0  0.450209  0  0.80193  0  0  0.42451  0  0.8698  0  0  0.432741  0  0.860271  0  0.624487  0  0.328266  0.418516  0  0.876838  0
H  H27  1  0.08332219  0.70411588  0.44365493  1  0  0.450199  0  0.801945  0  0  0.424502  0  0.869812  0  0  0.432732  0  0.860286  0  0.624487  0  0.328264  0.418508  0  0.87685  0
C  C28  1  0.50269064  0.17544893  0.43717593  1  0  0.717427  0  3.867859  0  0  0.66978  0  4.161639  0  0  0.705176  0  4.151532  0  1.586564  0  0.233912  0.645356  0  4.167243  0
C  C29  1  0.49730924  0.82455336  0.56282826  1  0  0.717421  0  3.867827  0  0  0.669839  0  4.161514  0  0  0.705249  0  4.15139  0  1.586589  0  0.233969  0.645417  0  4.167119  0
C  C30  1  0.43949118  0.26807005  0.40426230  1  0  -0.04149  0  3.677132  0  0  -0.013594  0  3.906718  0  0  -0.025045  0  3.930249  0  0.0366  0  -0.000755  -0.006626  0  3.891366  0
C  C31  1  0.56050898  0.73193319  0.59574510  1  0  -0.041419  0  3.677174  0  0  -0.013556  0  3.90676  0  0  -0.025012  0  3.930285  0  0.036597  0  -0.000725  -0.006591  0  3.891412  0
C  C32  1  0.29385413  0.27961279  0.40541401  1  0  -0.0518  0  3.606911  0  0  -0.09575  0  3.865833  0  0  -0.090334  0  3.880264  0  0.006206  0  -0.052682  -0.098669  0  3.855879  0
C  C33  1  0.70614547  0.72038854  0.59459122  1  0  -0.051725  0  3.606955  0  0  -0.095686  0  3.865904  0  0  -0.090271  0  3.880347  0  0.006206  0  -0.052646  -0.098601  0  3.855952  0
C  C34  1  0.24217401  0.37387472  0.38476314  1  0  0.084591  0  3.687226  0  0  0.068996  0  3.946933  0  0  0.068661  0  3.971499  0  0.246623  0  0.081004  0.071815  0  3.932336  0
C  C35  1  0.75782423  0.62612566  0.61523802  1  0  0.084497  0  3.687313  0  0  0.068856  0  3.947065  0  0  0.068524  0  3.971634  0  0.246646  0  0.080979  0.071667  0  3.932478  0
C  C36  1  0.32856113  0.45570108  0.36035026  1  0  -0.087101  0  3.638432  0  0  -0.129822  0  3.904758  0  0  -0.124146  0  3.916818  0  0.05646  0  -0.051386  -0.132945  0  3.896159  0
C  C37  1  0.67143738  0.54430025  0.63965269  1  0  -0.087077  0  3.638433  0  0  -0.129763  0  3.904726  0  0  -0.124085  0  3.916784  0  0.056579  0  -0.051392  -0.132889  0  3.896127  0
C  C38  1  0.47169079  0.43938078  0.35739597  1  0  0.068906  0  3.695996  0  0  0.066875  0  3.954808  0  0  0.060622  0  3.978822  0  0.193132  0  0.085126  0.070513  0  3.938645  0
C  C39  1  0.52830773  0.56062055  0.64260840  1  0  0.068768  0  3.695937  0  0  0.066751  0  3.954697  0  0  0.060496  0  3.978712  0  0.193659  0  0.085044  0.070406  0  3.938514  0
C  C40  1  0.52911009  0.34777825  0.37916893  1  0  -0.051212  0  3.638848  0  0  -0.093371  0  3.895422  0  0  -0.088178  0  3.911695  0  0.042346  0  -0.051487  -0.095977  0  3.883923  0
C  C41  1  0.47088871  0.65222404  0.62083510  1  0  -0.051307  0  3.638876  0  0  -0.09343  0  3.89546  0  0  -0.088234  0  3.911728  0  0.042031  0  -0.051514  -0.096042  0  3.883962  0
C  C42  1  0.42066583  0.82972349  0.28801581  1  0  0.721163  0  3.849478  0  0  0.674579  0  4.142544  0  0  0.709883  0  4.132541  0  1.644896  0  0.233556  0.650397  0  4.147977  0
C  C43  1  0.57933322  0.17027594  0.71198230  1  0  0.720961  0  3.849626  0  0  0.674522  0  4.142495  0  0  0.709826  0  4.132493  0  1.64489  0  0.233508  0.65034  0  4.147927  0
C  C44  1  0.39581091  0.74264505  0.16773160  1  0  -0.028612  0  3.645289  0  0  -0.001913  0  3.876515  0  0  -0.01141  0  3.897071  0  0.03595  0  0.004071  0.0036  0  3.863046  0
C  C45  1  0.60419196  0.25735628  0.83226773  1  0  -0.028556  0  3.645172  0  0  -0.001954  0  3.876423  0  0  -0.011455  0  3.896982  0  0.03649  0  0.004037  0.003559  0  3.862951  0
C  C46  1  0.25288994  0.67722379  0.09296023  1  0  -0.032123  0  3.587599  0  0  -0.077021  0  3.848644  0  0  -0.070484  0  3.860981  0  0.035171  0  -0.045757  -0.080414  0  3.839201  0
C  C47  1  0.74711237  0.32277564  0.90703905  1  0  -0.032044  0  3.587643  0  0  -0.076922  0  3.848671  0  0  -0.070378  0  3.861002  0  0.034966  0  -0.045711  -0.080304  0  3.839233  0
C  C48  1  0.24059415  0.60181863  0.98303261  1  0  0.094837  0  3.659678  0  0  0.079445  0  3.917628  0  0  0.079847  0  3.942152  0  0.164566  0  0.083933  0.082437  0  3.90298  0
C  C49  1  0.75941034  0.39818079  0.01696698  1  0  0.094679  0  3.659721  0  0  0.079323  0  3.9176  0  0  0.07974  0  3.942132  0  0.164791  0  0.083942  0.082316  0  3.902951  0
C  C50  1  0.36470520  0.58983377  0.94456993  1  0  -0.106561  0  3.673713  0  0  -0.154466  0  3.950187  0  0  -0.149938  0  3.963847  0  0.110971  0  -0.065115  -0.156849  0  3.940156  0
C  C51  1  0.63529792  0.41016470  0.05543054  1  0  -0.106515  0  3.673533  0  0  -0.15441  0  3.950004  0  0  -0.149878  0  3.96365  0  0.111235  0  -0.065111  -0.156792  0  3.93997  0
C  C52  1  0.50470393  0.65385626  0.02147838  1  0  0.064899  0  3.730396  0  0  0.061173  0  3.992808  0  0  0.05611  0  4.014844  0  0.222739  0  0.076583  0.063924  0  3.978373  0
C  C53  1  0.49530163  0.34613936  0.97852356  1  0  0.065007  0  3.730221  0  0  0.061175  0  3.992729  0  0  0.056113  0  4.014766  0  0.222889  0  0.076555  0.063925  0  3.978296  0
C  C54  1  0.52249405  0.72918900  0.13167255  1  0  -0.053749  0  3.632034  0  0  -0.096776  0  3.886479  0  0  -0.091635  0  3.901229  0  -0.023149  0  -0.055233  -0.099551  0  3.876741  0
C  C55  1  0.47750799  0.27080948  0.86832847  1  0  -0.053854  0  3.631916  0  0  -0.096811  0  3.886361  0  0  -0.091671  0  3.901112  0  -0.023687  0  -0.055225  -0.099585  0  3.876624  0
C  C56  1  0.04360754  0.99885125  0.66436647  1  0  0.732129  0  3.862216  0  0  0.685153  0  4.151405  0  0  0.720743  0  4.141153  0  1.639249  0  0.24351  0.660691  0  4.157178  0
C  C57  1  0.95639205  0.00114627  0.33563032  1  0  0.732218  0  3.862057  0  0  0.685219  0  4.151247  0  0  0.720811  0  4.140994  0  1.639338  0  0.243537  0.660756  0  4.157022  0
C  C58  1  0.10365241  0.00711012  0.77531597  1  0  -0.051506  0  3.689841  0  0  -0.026703  0  3.925098  0  0  -0.03843  0  3.947949  0  0.023454  0  0.000183  -0.019452  0  3.909985  0
C  C59  1  0.89634556  0.99288931  0.22468198  1  0  -0.051636  0  3.689852  0  0  -0.026783  0  3.925106  0  0  -0.038508  0  3.947949  0  0.02353  0  0.000133  -0.019532  0  3.909996  0
C  C60  1  0.21288968  0.94299653  0.79299445  1  0  -0.036531  0  3.601559  0  0  -0.082136  0  3.859412  0  0  -0.075503  0  3.873105  0  0.005972  0  -0.04305  -0.086096  0  3.850287  0
C  C61  1  0.78710828  0.05700289  0.20700349  1  0  -0.036498  0  3.601676  0  0  -0.082125  0  3.859519  0  0  -0.075493  0  3.873217  0  0.00601  0  -0.043057  -0.086088  0  3.850398  0
C  C62  1  0.26735321  0.95432298  0.89716590  1  0  0.074733  0  3.691803  0  0  0.070747  0  3.954448  0  0  0.065507  0  3.975279  0  0.220657  0  0.080558  0.073712  0  3.940609  0
C  C63  1  0.73264503  0.04567740  0.10283314  1  0  0.074778  0  3.691918  0  0  0.070788  0  3.954528  0  0  0.065541  0  3.975371  0  0.220636  0  0.080609  0.073752  0  3.940686  0
C  C64  1  0.22372551  0.03249100  0.98567813  1  0  -0.100026  0  3.675579  0  0  -0.148537  0  3.948506  0  0  -0.142692  0  3.961315  0  0.043505  0  -0.064809  -0.151862  0  3.939912  0
C  C65  1  0.77627382  0.96750938  0.01432035  1  0  -0.100101  0  3.675544  0  0  -0.148527  0  3.948402  0  0  -0.142684  0  3.961204  0  0.043813  0  -0.064769  -0.151832  0  3.939817  0
C  C66  1  0.11315792  0.09278216  0.96439061  1  0  0.059745  0  3.704344  0  0  0.054323  0  3.969431  0  0  0.048337  0  3.991979  0  0.222469  0  0.074859  0.057761  0  3.95433  0
C  C67  1  0.88684088  0.90722013  0.03560918  1  0  0.059856  0  3.704298  0  0  0.05437  0  3.969459  0  0  0.048384  0  3.992007  0  0.222221  0  0.074838  0.057809  0  3.954352  0
C  C68  1  0.04994914  0.07947951  0.86029325  1  0  -0.034896  0  3.625758  0  0  -0.078656  0  3.881204  0  0  -0.071828  0  3.894702  0  0.016351  0  -0.048654  -0.082541  0  3.871797  0
C  C69  1  0.95004938  0.92052182  0.13970545  1  0  -0.034792  0  3.625721  0  0  -0.078611  0  3.881242  0  0  -0.071777  0  3.894754  0  0.016231  0  -0.048651  -0.082496  0  3.871833  0
N  N70  1  0.56979613  0.52641539  0.33664829  1  0  0.503475  0  3.896895  0  0  0.523644  0  4.204103  0  0  0.54478  0  4.213815  0  0.373224  0  0.05997  0.509581  0  4.197504  0
N  N71  1  0.43019994  0.47358499  0.66335397  1  0  0.503338  0  3.896775  0  0  0.523518  0  4.203978  0  0  0.544656  0  4.213682  0  0.37248  0  0.059929  0.509448  0  4.197381  0
N  N72  1  0.09086328  0.38905446  0.39094432  1  0  0.470323  0  3.942205  0  0  0.529221  0  4.199865  0  0  0.532891  0  4.236506  0  0.40621  0  0.062747  0.515333  0  4.193563  0
N  N73  1  0.90913332  0.61094401  0.60905734  1  0  0.470264  0  3.942207  0  0  0.529199  0  4.199845  0  0  0.532841  0  4.236519  0  0.406469  0  0.062715  0.515312  0  4.193543  0
N  N74  1  0.63917513  0.64325779  0.98526584  1  0  0.497629  0  3.900282  0  0  0.526056  0  4.197685  0  0  0.546616  0  4.208027  0  0.367894  0  0.053146  0.512258  0  4.190783  0
N  N75  1  0.36082664  0.35673974  0.01473410  1  0  0.497582  0  3.90019  0  0  0.526055  0  4.197572  0  0  0.546615  0  4.207911  0  0.367847  0  0.05314  0.512258  0  4.190671  0
N  N76  1  0.09237722  0.52875747  0.90264361  1  0  0.477923  0  3.925966  0  0  0.539041  0  4.174104  0  0  0.541832  0  4.212654  0  0.425597  0  0.064664  0.524612  0  4.168447  0
N  N77  1  0.90762808  0.47124100  0.09735506  1  0  0.477933  0  3.925781  0  0  0.539021  0  4.17393  0  0  0.541749  0  4.21258  0  0.425559  0  0.064636  0.524593  0  4.168275  0
N  N78  1  0.37186852  0.87891306  0.91529490  1  0  0.504242  0  3.89919  0  0  0.527837  0  4.202507  0  0  0.549682  0  4.210856  0  0.369018  0  0.054754  0.51327  0  4.196908  0
N  N79  1  0.62812836  0.12108636  0.08470289  1  0  0.504319  0  3.89917  0  0  0.527919  0  4.202469  0  0  0.549766  0  4.21082  0  0.368967  0  0.054818  0.513353  0  4.19687  0
N  N80  1  0.05781110  0.16979952  0.05430345  1  0  0.502615  0  3.909566  0  0  0.527473  0  4.213989  0  0  0.549147  0  4.222447  0  0.383055  0  0.053315  0.512843  0  4.208751  0
N  N81  1  0.94218742  0.83020181  0.94569596  1  0  0.502546  0  3.909593  0  0  0.527423  0  4.214015  0  0  0.549098  0  4.222473  0  0.383004  0  0.053333  0.512793  0  4.208775  0
O  O82  1  0.64151817  0.18079342  0.45048460  1  0  -0.694364  0  1.98513  0  0  -0.656584  0  2.229557  0  0  -0.68132  0  2.218187  0  -1.167138  0  -0.369985  -0.638812  0  2.237896  0
O  O83  1  0.35848306  0.81920600  0.54951594  1  0  -0.694341  0  1.985202  0  0  -0.656569  0  2.229586  0  0  -0.68131  0  2.218208  0  -1.167144  0  -0.369962  -0.638797  0  2.237924  0
O  O84  1  0.41397077  0.09943110  0.45179968  1  0  -0.756987  0  2.145404  0  0  -0.7183  0  2.4103  0  0  -0.743243  0  2.397631  0  -1.19752  0  -0.396143  -0.698772  0  2.417873  0
O  O85  1  0.58603155  0.90056833  0.54820102  1  0  -0.75701  0  2.145316  0  0  -0.718341  0  2.410154  0  0  -0.743281  0  2.397458  0  -1.197506  0  -0.396202  -0.698812  0  2.417723  0
O  O86  1  0.69321963  0.50622464  0.32779946  1  0  -0.331476  0  1.75374  0  0  -0.315937  0  1.96546  0  0  -0.32693  0  1.960711  0  -0.45345  0  -0.11181  -0.309075  0  1.969467  0
O  O87  1  0.30677618  0.49377860  0.67220448  1  0  -0.331442  0  1.753798  0  0  -0.31589  0  1.965498  0  0  -0.326888  0  1.96075  0  -0.452802  0  -0.111826  -0.309027  0  1.96951  0
O  O88  1  0.52570850  0.61865823  0.33186928  1  0  -0.362186  0  1.797374  0  0  -0.330227  0  2.006956  0  0  -0.346226  0  2.005566  0  -0.481956  0  -0.107161  -0.319585  0  2.008156  0
O  O89  1  0.47428456  0.38133929  0.66812940  1  0  -0.362014  0  1.797265  0  0  -0.330093  0  2.006872  0  0  -0.346091  0  2.005479  0  -0.481932  0  -0.107058  -0.319449  0  2.008071  0
O  O90  1  0.05255081  0.48145453  0.38369696  1  0  -0.334656  0  1.765175  0  0  -0.339062  0  1.96409  0  0  -0.34474  0  1.967355  0  -0.468471  0  -0.12334  -0.330812  0  1.967893  0
O  O91  1  0.94744988  0.51854681  0.61630489  1  0  -0.334692  0  1.765169  0  0  -0.33908  0  1.964073  0  0  -0.344748  0  1.967347  0  -0.468706  0  -0.12337  -0.330831  0  1.967876  0
O  O92  1  0.01124396  0.30850967  0.40359180  1  0  -0.331646  0  1.772571  0  0  -0.323712  0  1.967267  0  0  -0.331283  0  1.972904  0  -0.459487  0  -0.112885  -0.314206  0  1.969437  0
O  O93  1  0.98875373  0.69148880  0.59640930  1  0  -0.331567  0  1.772564  0  0  -0.323658  0  1.967224  0  0  -0.331218  0  1.972876  0  -0.45943  0  -0.112841  -0.314146  0  1.969383  0
O  O94  1  0.55258181  0.90002807  0.34041397  1  0  -0.73214  0  2.086933  0  0  -0.690493  0  2.339922  0  0  -0.716643  0  2.329702  0  -1.201334  0  -0.386418  -0.670757  0  2.346363  0
O  O95  1  0.44741888  0.09997326  0.65958575  1  0  -0.732022  0  2.08706  0  0  -0.690418  0  2.339993  0  0  -0.716562  0  2.329766  0  -1.201339  0  -0.386383  -0.670687  0  2.346444  0
O  O96  1  0.31068481  0.82572821  0.32570106  1  0  -0.703023  0  1.997062  0  0  -0.6666  0  2.243255  0  0  -0.691065  0  2.231274  0  -1.179782  0  -0.372942  -0.648627  0  2.251764  0
O  O97  1  0.68931533  0.17427121  0.67429436  1  0  -0.702966  0  1.996919  0  0  -0.666607  0  2.243057  0  0  -0.691072  0  2.231077  0  -1.179824  0  -0.37294  -0.648632  0  2.251564  0
O  O98  1  0.76107535  0.67594698  0.05668679  1  0  -0.357913  0  1.798817  0  0  -0.339597  0  2.014729  0  0  -0.354122  0  2.0149  0  -0.465856  0  -0.12085  -0.329183  0  2.014663  0
O  O99  1  0.23892805  0.32405245  0.94331265  1  0  -0.357886  0  1.798799  0  0  -0.339604  0  2.014708  0  0  -0.354131  0  2.014877  0  -0.465914  0  -0.120853  -0.32919  0  2.014642  0
O  O100  1  0.62414679  0.60269811  0.88628980  1  0  -0.344662  0  1.75894  0  0  -0.334391  0  1.974516  0  0  -0.347153  0  1.973682  0  -0.45558  0  -0.126448  -0.325423  0  1.975554  0
O  O101  1  0.37585336  0.39730513  0.11370981  1  0  -0.34467  0  1.758937  0  0  -0.334384  0  1.97449  0  0  -0.347144  0  1.973652  0  -0.45556  0  -0.126436  -0.325416  0  1.975528  0
O  O102  1  0.09146839  0.44557712  0.81175012  1  0  -0.357384  0  1.797913  0  0  -0.345467  0  1.989221  0  0  -0.353697  0  1.992393  0  -0.501431  0  -0.123368  -0.335896  0  1.993854  0
O  O103  1  0.90854154  0.55442231  0.18825238  1  0  -0.35737  0  1.797786  0  0  -0.345408  0  1.989083  0  0  -0.353623  0  1.992288  0  -0.50134  0  -0.123329  -0.335836  0  1.993717  0
O  O104  1  0.97895634  0.55241562  0.92892777  1  0  -0.315398  0  1.828785  0  0  -0.322272  0  2.041223  0  0  -0.327407  0  2.046243  0  -0.433706  0  -0.110327  -0.314576  0  2.044928  0
O  O105  1  0.02104598  0.44758381  0.07107009  1  0  -0.315424  0  1.828765  0  0  -0.322295  0  2.041202  0  0  -0.327404  0  2.046253  0  -0.434105  0  -0.110348  -0.3146  0  2.04491  0
O  O106  1  0.92697719  0.03880645  0.64827989  1  0  -0.704539  0  2.029974  0  0  -0.663498  0  2.277048  0  0  -0.688965  0  2.265497  0  -1.187972  0  -0.389519  -0.644712  0  2.285098  0
O  O107  1  0.07302459  0.96119489  0.35171786  1  0  -0.704517  0  2.029842  0  0  -0.663458  0  2.276922  0  0  -0.688924  0  2.265369  0  -1.18801  0  -0.389506  -0.644671  0  2.284974  0
O  O108  1  0.11420366  0.95324722  0.59614443  1  0  -0.716475  0  2.088311  0  0  -0.675398  0  2.35182  0  0  -0.700892  0  2.338647  0  -1.194595  0  -0.398771  -0.656026  0  2.360539  0
O  O109  1  0.88579320  0.04674839  0.40385271  1  0  -0.716515  0  2.088208  0  0  -0.675456  0  2.35175  0  0  -0.700931  0  2.338537  0  -1.194607  0  -0.398792  -0.656084  0  2.360471  0
O  O110  1  0.41171735  0.80952893  0.83711943  1  0  -0.343038  0  1.740627  0  0  -0.3264  0  1.948208  0  0  -0.339258  0  1.94543  0  -0.453513  0  -0.1197  -0.317435  0  1.950126  0
O  O111  1  0.58827981  0.19047145  0.16287945  1  0  -0.343102  0  1.740602  0  0  -0.326456  0  1.9482  0  0  -0.339306  0  1.945401  0  -0.453527  0  -0.119746  -0.317491  0  1.950118  0
O  O112  1  0.41385184  0.88848819  0.00861487  1  0  -0.364797  0  1.794048  0  0  -0.345836  0  2.008291  0  0  -0.361717  0  2.010173  0  -0.46414  0  -0.124995  -0.335143  0  2.007071  0
O  O113  1  0.58614693  0.11151029  0.99138285  1  0  -0.364798  0  1.794083  0  0  -0.345873  0  2.008333  0  0  -0.361754  0  2.010216  0  -0.46414  0  -0.125026  -0.33518  0  2.00711  0
O  O114  1  0.12900073  0.19568922  0.14874961  1  0  -0.354759  0  1.761913  0  0  -0.338726  0  1.973236  0  0  -0.353094  0  1.973022  0  -0.465237  0  -0.125948  -0.329192  0  1.97357  0
O  O115  1  0.87100022  0.80430925  0.85124985  1  0  -0.354695  0  1.762044  0  0  -0.338705  0  1.973363  0  0  -0.353071  0  1.97315  0  -0.465249  0  -0.125947  -0.329174  0  1.973703  0
O  O116  1  0.93988237  0.20073739  0.02977724  1  0  -0.351538  0  1.820701  0  0  -0.33886  0  2.047522  0  0  -0.353086  0  2.046018  0  -0.464914  0  -0.118129  -0.329387  0  2.048731  0
O  O117  1  0.06011696  0.79926299  0.97022336  1  0  -0.351557  0  1.820566  0  0  -0.338844  0  2.047382  0  0  -0.353071  0  2.045875  0  -0.464879  0  -0.118143  -0.329371  0  2.048592  0
O  O118  1  0.79829213  0.82329846  0.42809939  1  0  -0.900075  0  1.913448  0  0  -0.858942  0  2.10805  0  0  -0.877004  0  2.076134  0  -1.263554  0  -0.623077  -0.844798  0  2.131667  0
O  O119  1  0.20170801  0.17670096  0.57190170  1  0  -0.900049  0  1.913464  0  0  -0.858908  0  2.108056  0  0  -0.876969  0  2.076143  0  -1.263586  0  -0.623077  -0.844767  0  2.131676  0
O  O120  1  0.93653014  0.25022711  0.59933730  1  0  -0.851547  0  1.897891  0  0  -0.803751  0  2.081233  0  0  -0.821717  0  2.054839  0  -1.222313  0  -0.572985  -0.789791  0  2.101041  0
O  O121  1  0.06346702  0.74977327  0.40066228  1  0  -0.851507  0  1.897822  0  0  -0.803728  0  2.081188  0  0  -0.821691  0  2.054793  0  -1.222322  0  -0.572989  -0.78977  0  2.100997  0
