# generated using pymatgen
data_ZnH11C16N4O
_symmetry_space_group_name_H-M   'P 1'
_cell_length_a   18.59172577
_cell_length_b   18.46782760
_cell_length_c   18.69676261
_cell_angle_alpha   102.25563148
_cell_angle_beta   110.18990584
_cell_angle_gamma   110.11851236
_symmetry_Int_Tables_number   1
_chemical_formula_structural   ZnH11C16N4O
_chemical_formula_sum   'Zn4 H44 C64 N16 O4'
_cell_volume   5243.26398292
_cell_formula_units_Z   4
loop_
 _symmetry_equiv_pos_site_id
 _symmetry_equiv_pos_as_xyz
  1  'x, y, z'
loop_
 _atom_site_type_symbol
 _atom_site_label
 _atom_site_symmetry_multiplicity
 _atom_site_fract_x
 _atom_site_fract_y
 _atom_site_fract_z
 _atom_site_occupancy
 _atom_site_pbe_bader_charge
 _atom_site_pbe_bader_spin_density
 _atom_site_pbe_cm5_charge
 _atom_site_pbe_ddec_charge
 _atom_site_pbe_ddec_spin_density
 _atom_site_pbe_ddec_sum_bond_order
 _atom_site_pbe_magmom
Zn  Zn0  1  0.87510803  0.51061520  0.40064035  1  1.187801  0  0.75267  0.612821  0  2.492317  0
Zn  Zn1  1  0.88448677  0.40976664  0.52385137  1  1.187047  0  0.748105  0.609573  0  2.482995  0
Zn  Zn2  1  0.09863873  0.49797397  0.62465035  1  1.237608  0  0.724521  0.667792  0  2.415554  0
Zn  Zn3  1  0.08646575  0.61912148  0.48750362  1  1.213745  0  0.746476  0.643509  0  2.380425  0
H  H4  1  0.82475257  0.53488916  0.22194433  1  0.102166  0  0.124234  0.113831  0  0.984214  0
H  H5  1  0.83398630  0.23142881  0.55704077  1  0.077274  0  0.123635  0.11402  0  0.985911  0
H  H6  1  0.62281001  0.97449735  0.10836749  1  0.029529  0  0.092775  0.095748  0  0.977785  0
H  H7  1  0.67063080  0.06876788  0.02807347  1  0.034682  0  0.094259  0.097868  0  0.978757  0
H  H8  1  0.61450880  0.12707028  0.00291995  1  0.013928  0  0.091373  0.092024  0  0.995555  0
H  H9  1  0.56048387  0.99414702  0.15542627  1  0.013638  0  0.09176  0.09312  0  0.998971  0
H  H10  1  0.49505720  0.08839925  0.12367171  1  0.020174  0  0.091694  0.088932  0  0.992578  0
H  H11  1  0.52963690  0.15433960  0.07392785  1  0.013529  0  0.09134  0.089563  0  0.980619  0
H  H12  1  0.37651488  0.99994519  0.99500052  1  0.029222  0  0.09251  0.091419  0  1.011206  0
H  H13  1  0.42323899  0.05618994  0.94494382  1  0.022843  0  0.091333  0.091694  0  1.020706  0
H  H14  1  0.14091729  0.52328197  0.37631406  1  0.103324  0  0.121463  0.111659  0  1.024147  0
H  H15  1  0.16078911  0.38609324  0.53719674  1  0.122827  0  0.121405  0.111283  0  1.034574  0
H  H16  1  0.82818512  0.23483847  0.39949407  1  0.115802  0  0.119969  0.109983  0  1.001884  0
H  H17  1  0.82403995  0.37217207  0.23791275  1  0.099984  0  0.119876  0.109746  0  0.997564  0
H  H18  1  0.66972023  0.48120439  0.34007708  1  0.103177  0  0.127033  0.118189  0  0.981121  0
H  H19  1  0.68891288  0.35891646  0.51493105  1  0.111383  0  0.127179  0.118309  0  0.982038  0
H  H20  1  0.09821393  0.78984138  0.59183400  1  0.144906  0  0.11931  0.111675  0  1.032986  0
H  H21  1  0.11908397  0.61235339  0.79690761  1  0.072935  0  0.11878  0.106822  0  1.012412  0
H  H22  1  0.84496888  0.51547636  0.64709874  1  0.086448  0  0.123415  0.113899  0  0.996004  0
H  H23  1  0.82682313  0.63260099  0.50494530  1  0.138475  0  0.123156  0.11487  0  0.995443  0
H  H24  1  0.50200891  0.87287033  0.99467298  1  0.016367  0  0.091973  0.055713  0  0.981409  0
H  H25  1  0.55699230  0.94330436  0.93219514  1  0.009708  0  0.094859  0.06005  0  0.972667  0
H  H26  1  0.41476958  0.04354276  0.83130221  1  0.045504  0  0.082481  0.108987  0  1.030112  0
H  H27  1  0.51837026  0.12892678  0.89754675  1  -0.003796  0  0.082626  0.105969  0  1.018356  0
H  H28  1  0.48642044  0.08459264  0.79144899  1  0.032711  0  0.082992  0.107468  0  1.00448  0
H  H29  1  0.58130787  0.03029912  0.85587478  1  0.0137  0  0.089512  0.083335  0  0.969152  0
H  H30  1  0.47590982  0.94830239  0.80563905  1  0.044554  0  0.084006  0.077194  0  1.01302  0
H  H31  1  0.43836607  0.96636414  0.15251345  1  0.022939  0  0.082964  0.104576  0  1.027044  0
H  H32  1  0.34493851  0.94073745  0.06269012  1  0.021487  0  0.08494  0.110571  0  1.024358  0
H  H33  1  0.34470812  0.87190155  0.11515125  1  0.028572  0  0.087101  0.11324  0  0.998673  0
H  H34  1  0.35899084  0.82240799  0.98571192  1  0.032914  0  0.082737  0.07365  0  1.011758  0
H  H35  1  0.44054100  0.83362101  0.07669775  1  0.03238  0  0.086153  0.076035  0  0.97504  0
H  H36  1  0.10826849  0.20124208  0.59277606  1  0.044142  0  0.090716  0.126141  0  1.010926  0
H  H37  1  0.12276084  0.26654600  0.53695866  1  0.033098  0  0.08741  0.113132  0  1.015814  0
H  H38  1  0.21345985  0.27804039  0.62175198  1  0.010204  0  0.089933  0.118933  0  0.994427  0
H  H39  1  0.17811875  0.39208527  0.66936911  1  0.043035  0  0.0919  0.088875  0  1.002607  0
H  H40  1  0.15527896  0.32137943  0.71784467  1  0.03839  0  0.102229  0.105679  0  0.955697  0
H  H41  1  0.19268824  0.75243616  0.42294289  1  0.07775  0  0.091882  0.140567  0  1.006985  0
H  H42  1  0.20464463  0.66599135  0.44132654  1  0.004842  0  0.077525  0.091633  0  1.062603  0
H  H43  1  0.26037333  0.71777501  0.39386028  1  0.033142  0  0.094498  0.128796  0  0.984058  0
H  H44  1  0.13257224  0.58506479  0.28733195  1  0.0427  0  0.100198  0.09633  0  0.967736  0
H  H45  1  0.12603472  0.67164819  0.26824235  1  0.059744  0  0.105388  0.111629  0  0.95962  0
H  H46  1  0.31046630  0.62564725  0.87735081  1  0.616266  0  0.362464  0.395745  0  0.824027  0
H  H47  1  0.31324036  0.94993992  0.66453458  1  0.62429  0  0.351987  0.384196  0  0.845437  0
C  C48  1  0.89372223  0.55904705  0.25800831  1  0.455565  0  0.018587  -0.040916  0  3.994637  0
C  C49  1  0.90261299  0.26801907  0.57907131  1  0.461122  0  0.016119  -0.047796  0  3.996415  0
C  C50  1  0.03458015  0.73901267  0.56737788  1  0.455534  0  0.024143  -0.021549  0  3.900146  0
C  C51  1  0.05410719  0.58408789  0.74764437  1  0.478552  0  0.021265  -0.030575  0  3.922561  0
C  C52  1  0.91351238  0.53450077  0.67139768  1  0.464787  0  0.020087  -0.039188  0  3.921802  0
C  C53  1  0.89505674  0.65895691  0.52194804  1  0.396316  0  0.019162  -0.040888  0  3.925862  0
C  C54  1  0.64221679  0.41433401  0.42274087  1  0.104057  0  -0.028543  0.029781  0  4.221331  0
C  C55  1  0.28286523  0.76358383  0.73873346  1  0.103919  0  0.008953  0.07301  0  4.08641  0
C  C56  1  0.95868190  0.74275679  0.56308495  1  0.094572  0  -0.026132  0.031519  0  4.201028  0
C  C57  1  0.97849345  0.57696086  0.75361887  1  0.090564  0  -0.026166  0.032625  0  4.203779  0
C  C58  1  0.56839603  0.98886115  0.09921766  1  -0.002832  0  -0.155347  -0.224447  0  3.832607  0
C  C59  1  0.60858967  0.06966469  0.01422013  1  -0.013459  0  -0.155823  -0.227013  0  3.854492  0
C  C60  1  0.53587134  0.99224528  0.93818392  1  0.011937  0  -0.077625  -0.011235  0  3.767849  0
C  C61  1  0.48521001  0.91910255  0.02303217  1  -0.002112  0  -0.078692  -0.015506  0  3.761826  0
C  C62  1  0.33790607  0.83046516  0.81443693  1  -0.117376  0  -0.060844  -0.131877  0  4.159353  0
C  C63  1  0.59140751  0.07405773  0.08986917  1  0.119597  0  -0.001574  0.1864  0  3.907802  0
C  C64  1  0.45659521  0.95572485  0.95587677  1  0.153543  0  0.005143  0.113096  0  3.828282  0
C  C65  1  0.04485506  0.31676269  0.62693137  1  0.452124  0  0.105184  0.176217  0  3.934  0
C  C66  1  0.03621231  0.61044910  0.30591290  1  0.474151  0  0.108368  0.176684  0  3.924623  0
C  C67  1  0.43586044  0.02635961  0.98932567  1  -0.006381  0  -0.157962  -0.183059  0  3.835146  0
C  C68  1  0.51208311  0.09085942  0.07318457  1  -0.007325  0  -0.15478  -0.184885  0  3.841257  0
C  C69  1  0.38650000  0.88859592  0.88026877  1  -0.179329  0  -0.013221  -0.044775  0  3.994622  0
C  C70  1  0.66729788  0.14035679  0.16243141  1  -0.412487  0  -0.051343  -0.120082  0  4.080563  0
C  C71  1  0.73202191  0.19807644  0.22026300  1  0.107079  0  -0.071569  -0.135483  0  4.199179  0
C  C72  1  0.96207156  0.16847367  0.61133608  1  -0.059272  0  -0.026708  -0.047891  0  4.099447  0
C  C73  1  0.95365817  0.59044208  0.15897293  1  -0.168613  0  -0.028447  -0.053498  0  4.104777  0
C  C74  1  0.95745793  0.10081545  0.61335428  1  -0.136465  0  -0.052483  -0.075167  0  4.348247  0
C  C75  1  0.95448502  0.59653430  0.09486976  1  -0.040041  0  -0.052132  -0.072232  0  4.343962  0
C  C76  1  0.95346057  0.02673037  0.61220001  1  -0.16641  0  -0.033789  -0.027194  0  4.272125  0
C  C77  1  0.95626728  0.60158338  0.02502146  1  -0.165132  0  -0.032358  -0.022642  0  4.264672  0
C  C78  1  0.95090801  0.95804250  0.60810132  1  0.033657  0  -0.033617  -0.022649  0  4.262563  0
C  C79  1  0.95973382  0.60458774  0.96073050  1  0.005673  0  -0.03204  -0.023483  0  4.262568  0
C  C80  1  0.95025839  0.88383684  0.59894343  1  -0.290931  0  -0.051036  -0.066894  0  4.344069  0
C  C81  1  0.96484167  0.60294643  0.89070239  1  -0.182518  0  -0.050483  -0.064156  0  4.345724  0
C  C82  1  0.13859401  0.49603938  0.42193831  1  0.455914  0  0.021685  -0.037543  0  3.920222  0
C  C83  1  0.14829223  0.42535998  0.50391314  1  0.445247  0  0.022736  -0.034794  0  3.924016  0
C  C84  1  0.95082890  0.81585276  0.58564303  1  0.123629  0  -0.027286  -0.057833  0  4.074084  0
C  C85  1  0.97011830  0.59595506  0.82595179  1  0.04275  0  -0.027799  -0.059932  0  4.076299  0
C  C86  1  0.56085385  0.40380922  0.41333306  1  -0.097287  0  -0.032394  -0.068914  0  4.090852  0
C  C87  1  0.49061125  0.39795613  0.40651711  1  -0.051923  0  -0.049813  -0.061202  0  4.347841  0
C  C88  1  0.41614995  0.39521541  0.40212383  1  -0.094785  0  -0.032476  -0.025467  0  4.260295  0
C  C89  1  0.34990397  0.39672724  0.40145118  1  -0.030591  0  -0.030034  -0.018579  0  4.258258  0
C  C90  1  0.28246396  0.40408049  0.40673539  1  0.005033  0  -0.051428  -0.068369  0  4.338133  0
C  C91  1  0.22565950  0.41693983  0.41779740  1  -0.224017  0  -0.025947  -0.05528  0  4.072364  0
C  C92  1  0.83668734  0.28123429  0.37173479  1  0.374024  0  0.014596  -0.044669  0  3.92238  0
C  C93  1  0.83471485  0.35148844  0.28918833  1  0.426409  0  0.013172  -0.048371  0  3.930949  0
C  C94  1  0.95928238  0.58609177  0.23423545  1  0.124065  0  -0.032264  -0.038917  0  4.20986  0
C  C95  1  0.96894400  0.24486365  0.60658030  1  0.128136  0  -0.031978  -0.036997  0  4.196814  0
C  C96  1  0.17130442  0.44068538  0.44214070  1  0.10425  0  -0.027555  0.030259  0  4.203197  0
C  C97  1  0.79927269  0.27028441  0.28820371  1  0.081727  0  -0.027089  0.059526  0  4.18367  0
C  C98  1  0.68872371  0.45349356  0.38451189  1  0.447651  0  0.020913  -0.047552  0  3.954845  0
C  C99  1  0.69858279  0.39109079  0.47416206  1  0.443911  0  0.019797  -0.048805  0  3.955725  0
C  C100  1  0.24749676  0.67694464  0.72334794  1  0.485679  0  0.073584  -0.053139  0  4.018551  0
C  C101  1  0.24682963  0.76467775  0.65873313  1  0.382417  0  0.083114  -0.029806  0  3.938349  0
C  C102  1  0.51908196  0.00815455  0.85777082  1  -0.021752  0  -0.166742  -0.127686  0  3.941104  0
C  C103  1  0.48267903  0.06966139  0.84434988  1  -0.08834  0  -0.248573  -0.353519  0  3.985191  0
C  C104  1  0.41493077  0.86914951  0.04394033  1  -0.032234  0  -0.165861  -0.124107  0  3.93507  0
C  C105  1  0.38447641  0.91506797  0.09604899  1  -0.078374  0  -0.24561  -0.349905  0  3.971809  0
C  C106  1  0.13507991  0.32786218  0.65776772  1  0.009688  0  -0.153583  -0.159385  0  3.993526  0
C  C107  1  0.14560807  0.26489728  0.59891011  1  -0.052937  0  -0.240783  -0.351694  0  3.947132  0
C  C108  1  0.12455762  0.64018838  0.31190673  1  -0.00675  0  -0.151362  -0.158388  0  4.005356  0
C  C109  1  0.19910604  0.69725808  0.39710464  1  -0.065967  0  -0.245354  -0.355904  0  3.960415  0
C  C110  1  0.25516362  0.62659439  0.77241023  1  1.472296  0  0.239459  0.565157  0  4.130974  0
C  C111  1  0.25607727  0.83329154  0.62964793  1  1.489848  0  0.227054  0.547338  0  4.189849  0
N  N112  1  0.92813685  0.56731313  0.33694762  1  -0.816132  0  -0.275491  -0.1815  0  3.571125  0
N  N113  1  0.93585374  0.34660336  0.58310716  1  -0.809364  0  -0.278436  -0.179159  0  3.592365  0
N  N114  1  0.02358349  0.37668729  0.61251476  1  -0.780457  0  -0.259758  -0.239056  0  3.461868  0
N  N115  1  0.01635101  0.59933217  0.36674163  1  -0.785949  0  -0.26143  -0.222944  0  3.463828  0
N  N116  1  0.10228690  0.51395223  0.46985756  1  -0.7727  0  -0.267259  -0.17799  0  3.57323  0
N  N117  1  0.10800666  0.46980067  0.51994397  1  -0.79492  0  -0.271316  -0.177884  0  3.627978  0
N  N118  1  0.88781323  0.36297401  0.41836479  1  -0.785642  0  -0.285223  -0.189574  0  3.588151  0
N  N119  1  0.88660821  0.40627881  0.36751509  1  -0.799402  0  -0.290431  -0.19741  0  3.599086  0
N  N120  1  0.76541210  0.45321022  0.41111012  1  -0.790608  0  -0.26645  -0.171089  0  3.552004  0
N  N121  1  0.77164872  0.41468264  0.46677659  1  -0.795419  0  -0.265746  -0.171293  0  3.553291  0
N  N122  1  0.19419698  0.63264322  0.64200881  1  -0.655177  0  -0.217066  -0.177382  0  3.455567  0
N  N123  1  0.19403003  0.68442858  0.60294812  1  -0.660404  0  -0.218576  -0.139493  0  3.517179  0
N  N124  1  0.01659220  0.65985463  0.53080263  1  -0.807089  0  -0.277152  -0.177173  0  3.597003  0
N  N125  1  0.03467115  0.54727898  0.66881952  1  -0.785745  0  -0.274763  -0.17715  0  3.595456  0
N  N126  1  0.94826019  0.51672591  0.62187098  1  -0.778159  0  -0.278326  -0.182091  0  3.612874  0
N  N127  1  0.93108887  0.61067531  0.50278064  1  -0.77982  0  -0.284891  -0.191919  0  3.648399  0
O  O128  1  0.21084753  0.54904895  0.74324403  1  -1.163659  0  -0.286419  -0.488109  0  2.24553  0
O  O129  1  0.31278751  0.66728860  0.85209897  1  -1.106133  0  -0.305172  -0.43794  0  2.236349  0
O  O130  1  0.21564762  0.82459394  0.55813882  1  -1.14039  0  -0.289831  -0.496922  0  2.123669  0
O  O131  1  0.31343611  0.90900683  0.69036627  1  -1.109696  0  -0.319489  -0.46049  0  2.275762  0
