# generated using pymatgen
data_MgH5C7NO5
_symmetry_space_group_name_H-M   'P 1'
_cell_length_a   8.53911696
_cell_length_b   8.88025700
_cell_length_c   10.00251543
_cell_angle_alpha   90.00000143
_cell_angle_beta   90.00006446
_cell_angle_gamma   97.23524935
_symmetry_Int_Tables_number   1
_chemical_formula_structural   MgH5C7NO5
_chemical_formula_sum   'Mg4 H20 C28 N4 O20'
_cell_volume   752.44675745
_cell_formula_units_Z   4
loop_
 _symmetry_equiv_pos_site_id
 _symmetry_equiv_pos_as_xyz
  1  'x, y, z'
loop_
 _atom_site_type_symbol
 _atom_site_label
 _atom_site_symmetry_multiplicity
 _atom_site_fract_x
 _atom_site_fract_y
 _atom_site_fract_z
 _atom_site_occupancy
 _atom_site_pbe_bader_spin_density
 _atom_site_pbe_cm5_charge
 _atom_site_pbe_ddec_charge
 _atom_site_pbe_ddec_spin_density
 _atom_site_pbe_ddec_sum_bond_order
 _atom_site_pbe_magmom
Mg  Mg0  1  0.20751622  0.85988561  0.55751088  1  0  0.82954  1.369574  0  1.439638  0
Mg  Mg1  1  0.29248533  0.14011476  0.05750767  1  0  0.829541  1.369733  0  1.439383  0
Mg  Mg2  1  0.79248284  0.14011228  0.44249006  1  0  0.829505  1.369687  0  1.439475  0
Mg  Mg3  1  0.70751797  0.85988881  0.94249127  1  0  0.82953  1.369668  0  1.439491  0
H  H4  1  0.10759710  0.49486221  0.47041773  1  0  0.118681  0.081691  0  1.039446  0
H  H5  1  0.39240415  0.50514050  0.97041509  1  0  0.118694  0.081701  0  1.039484  0
H  H6  1  0.89240123  0.50513908  0.52958221  1  0  0.118689  0.081701  0  1.039461  0
H  H7  1  0.60760238  0.49486081  0.02958585  1  0  0.118705  0.081691  0  1.03945  0
H  H8  1  0.43445857  0.25166278  0.68380020  1  0  0.118511  0.12393  0  0.992785  0
H  H9  1  0.06554184  0.74833648  0.18379981  1  0  0.118512  0.123896  0  0.992791  0
H  H10  1  0.56553566  0.74833397  0.31620074  1  0  0.11849  0.123897  0  0.992816  0
H  H11  1  0.93446030  0.25166709  0.81619413  1  0  0.118517  0.123929  0  0.992763  0
H  H12  1  0.58828271  0.50521156  0.73922234  1  0  0.109441  0.116708  0  1.035376  0
H  H13  1  0.91172324  0.49478610  0.23922625  1  0  0.109454  0.116716  0  1.035346  0
H  H14  1  0.41171591  0.49478293  0.26077860  1  0  0.109422  0.116674  0  1.035417  0
H  H15  1  0.08828241  0.50521747  0.76077768  1  0  0.109426  0.116683  0  1.035409  0
H  H16  1  0.41186538  0.96143901  0.36926033  1  0  0.300096  0.395086  0  0.943871  0
H  H17  1  0.08813749  0.03855914  0.86926038  1  0  0.300079  0.395036  0  0.943959  0
H  H18  1  0.58813061  0.03855319  0.63073461  1  0  0.300012  0.394986  0  0.944009  0
H  H19  1  0.91186977  0.96144784  0.13073655  1  0  0.300011  0.394972  0  0.944036  0
H  H20  1  0.26283329  0.90532507  0.28532937  1  0  0.311362  0.400153  0  0.922115  0
H  H21  1  0.23716609  0.09467420  0.78532757  1  0  0.311338  0.400124  0  0.922154  0
H  H22  1  0.73715801  0.09467621  0.71466857  1  0  0.311336  0.400226  0  0.922032  0
H  H23  1  0.76284352  0.90532371  0.21467137  1  0  0.311328  0.400205  0  0.922063  0
C  C24  1  0.14577122  0.20835634  0.55532438  1  0  0.239906  0.654701  0  4.165381  0
C  C25  1  0.35423677  0.79163950  0.05531827  1  0  0.239863  0.654577  0  4.165764  0
C  C26  1  0.85423750  0.79163476  0.44468055  1  0  0.239859  0.654653  0  4.165377  0
C  C27  1  0.64576830  0.20835953  0.94467367  1  0  0.239896  0.654677  0  4.165228  0
C  C28  1  0.25326167  0.35418967  0.57903147  1  0  -0.008129  -0.086231  0  3.919201  0
C  C29  1  0.24673918  0.64581410  0.07903025  1  0  -0.008163  -0.08631  0  3.919232  0
C  C30  1  0.74673300  0.64581048  0.42096947  1  0  -0.008176  -0.086357  0  3.919227  0
C  C31  1  0.75326178  0.35418946  0.92096569  1  0  -0.008185  -0.086395  0  3.919077  0
C  C32  1  0.21076753  0.49294010  0.53393880  1  0  0.061164  0.092818  0  3.937491  0
C  C33  1  0.28923266  0.50705913  0.03393661  1  0  0.06119  0.092859  0  3.937442  0
C  C34  1  0.78923153  0.50705779  0.46606314  1  0  0.061153  0.092816  0  3.937388  0
C  C35  1  0.71076903  0.49294103  0.96606233  1  0  0.061178  0.092888  0  3.937416  0
C  C36  1  0.39316174  0.35718555  0.65210216  1  0  -0.054302  -0.027148  0  3.890373  0
C  C37  1  0.10683848  0.64281256  0.15210180  1  0  -0.054265  -0.027021  0  3.890233  0
C  C38  1  0.60683366  0.64281119  0.34789978  1  0  -0.054271  -0.027087  0  3.890331  0
C  C39  1  0.89316600  0.35719101  0.84789414  1  0  -0.0543  -0.027088  0  3.890199  0
C  C40  1  0.42098311  0.62926964  0.64230464  1  0  0.118907  0.099813  0  3.974119  0
C  C41  1  0.07901870  0.37073188  0.14230425  1  0  0.11891  0.099706  0  3.974464  0
C  C42  1  0.57901243  0.37072824  0.35769930  1  0  0.118943  0.099896  0  3.974073  0
C  C43  1  0.92098578  0.62927169  0.85769769  1  0  0.118915  0.099851  0  3.974037  0
C  C44  1  0.47869998  0.49671747  0.68310940  1  0  -0.073059  -0.120653  0  3.928928  0
C  C45  1  0.02130380  0.50328066  0.18311196  1  0  -0.073092  -0.120677  0  3.929082  0
C  C46  1  0.52129528  0.50327815  0.31689354  1  0  -0.073036  -0.120624  0  3.929051  0
C  C47  1  0.97870419  0.49672292  0.81688998  1  0  -0.073043  -0.120634  0  3.929071  0
C  C48  1  0.50101636  0.78429816  0.68204268  1  0  0.23632  0.594045  0  4.171832  0
C  C49  1  0.99899010  0.21570403  0.18204067  1  0  0.236245  0.593879  0  4.171909  0
C  C50  1  0.49897933  0.21570086  0.31796025  1  0  0.236252  0.593762  0  4.171886  0
C  C51  1  0.00102375  0.78429956  0.81796027  1  0  0.236224  0.593843  0  4.171826  0
N  N52  1  0.28998732  0.62735805  0.56666461  1  0  -0.336043  -0.329135  0  3.485162  0
N  N53  1  0.21001161  0.37264004  0.06666234  1  0  -0.336036  -0.329106  0  3.485273  0
N  N54  1  0.71000940  0.37263983  0.43333833  1  0  -0.336023  -0.329137  0  3.485087  0
N  N55  1  0.78998789  0.62736125  0.93333860  1  0  -0.336033  -0.329166  0  3.485108  0
O  O56  1  0.43723106  0.89811624  0.63954235  1  0  -0.325528  -0.595149  0  2.254173  0
O  O57  1  0.06276811  0.10188301  0.13954093  1  0  -0.325522  -0.595101  0  2.254121  0
O  O58  1  0.56276756  0.10187825  0.36046059  1  0  -0.325529  -0.595062  0  2.253981  0
O  O59  1  0.93723314  0.89812283  0.86046401  1  0  -0.325496  -0.595018  0  2.253867  0
O  O60  1  0.19978670  0.08602812  0.58567377  1  0  -0.348248  -0.656111  0  2.294124  0
O  O61  1  0.30021284  0.91397452  0.08567161  1  0  -0.348233  -0.656125  0  2.293841  0
O  O62  1  0.80021192  0.91397544  0.41432117  1  0  -0.348238  -0.656162  0  2.293541  0
O  O63  1  0.69978563  0.08602791  0.91431533  1  0  -0.3482  -0.656076  0  2.293852  0
O  O64  1  0.00880804  0.22119831  0.51240812  1  0  -0.349014  -0.641961  0  2.257471  0
O  O65  1  0.49118598  0.77879864  0.01240612  1  0  -0.349022  -0.641861  0  2.257922  0
O  O66  1  0.99118121  0.77879616  0.48759482  1  0  -0.348979  -0.641813  0  2.257968  0
O  O67  1  0.50881235  0.22120266  0.98759382  1  0  -0.349052  -0.641957  0  2.257498  0
O  O68  1  0.31243054  0.88811994  0.37128477  1  0  -0.6119  -0.849159  0  2.082636  0
O  O69  1  0.18756764  0.11187821  0.87128392  1  0  -0.611869  -0.849129  0  2.082684  0
O  O70  1  0.68756207  0.11187340  0.62870917  1  0  -0.611797  -0.849172  0  2.082501  0
O  O71  1  0.81243743  0.88812990  0.12871302  1  0  -0.611782  -0.849135  0  2.082535  0
O  O72  1  0.62398423  0.79209057  0.75214911  1  0  -0.337675  -0.623005  0  2.300119  0
O  O73  1  0.87601968  0.20790935  0.25214998  1  0  -0.337639  -0.622905  0  2.300087  0
O  O74  1  0.37601483  0.20790732  0.24785583  1  0  -0.337644  -0.622865  0  2.300139  0
O  O75  1  0.12398128  0.79209421  0.74785596  1  0  -0.33762  -0.622914  0  2.300296  0
