# generated using pymatgen
data_Cu3H10C12(IN2)3
_symmetry_space_group_name_H-M   'P 1'
_cell_length_a   7.52321431
_cell_length_b   7.53721546
_cell_length_c   16.00673288
_cell_angle_alpha   77.22825960
_cell_angle_beta   87.52163240
_cell_angle_gamma   88.73324957
_symmetry_Int_Tables_number   1
_chemical_formula_structural   Cu3H10C12(IN2)3
_chemical_formula_sum   'Cu6 H20 C24 I6 N12'
_cell_volume   884.28930491
_cell_formula_units_Z   2
loop_
 _symmetry_equiv_pos_site_id
 _symmetry_equiv_pos_as_xyz
  1  'x, y, z'
loop_
 _atom_site_type_symbol
 _atom_site_label
 _atom_site_symmetry_multiplicity
 _atom_site_fract_x
 _atom_site_fract_y
 _atom_site_fract_z
 _atom_site_occupancy
 _atom_site_hle17_bader_spin_density
 _atom_site_hle17_ddec_charge
 _atom_site_hle17_ddec_spin_density
 _atom_site_hle17_ddec_sum_bond_order
 _atom_site_hle17_magmom
 _atom_site_hse06_10hf_bader_spin_density
 _atom_site_hse06_10hf_ddec_charge
 _atom_site_hse06_10hf_ddec_spin_density
 _atom_site_hse06_10hf_ddec_sum_bond_order
 _atom_site_hse06_10hf_magmom
 _atom_site_hse06_bader_spin_density
 _atom_site_hse06_ddec_charge
 _atom_site_hse06_ddec_spin_density
 _atom_site_hse06_ddec_sum_bond_order
 _atom_site_hse06_magmom
 _atom_site_pbe_bader_spin_density
 _atom_site_pbe_cm5_charge
 _atom_site_pbe_ddec_charge
 _atom_site_pbe_ddec_spin_density
 _atom_site_pbe_ddec_sum_bond_order
 _atom_site_pbe_magmom
Cu  Cu0  1  0.68237379  0.42164078  0.37518861  1  0  0.35617  0  2.075704  0  0  0.252741  0  2.561062  0  0  0.254431  0  2.517645  0  0  0.393283  0.255678  0  2.587421  0
Cu  Cu1  1  0.31763110  0.57835935  0.62481083  1  0  0.356197  0  2.075659  0  0  0.252819  0  2.561042  0  0  0.254509  0  2.517618  0  0  0.393312  0.25586  0  2.587332  0
Cu  Cu2  1  0.67185857  0.27622995  0.17274668  1  0  0.29453  0  2.150565  0  0  0.202565  0  2.640262  0  0  0.206119  0  2.592822  0  0  0.347191  0.204159  0  2.66938  0
Cu  Cu3  1  0.32814104  0.72376472  0.82725395  1  0  0.294523  0  2.150662  0  0  0.202538  0  2.640354  0  0  0.206098  0  2.592921  0  0  0.347188  0.204249  0  2.669385  0
Cu  Cu4  1  0.77656774  0.98547895  0.27120612  1  0  0.22213  0  2.126496  0  0  0.15274  0  2.606967  0  0  0.176876  0  2.544566  0  0  0.145762  0.137158  0  2.64878  0
Cu  Cu5  1  0.22343171  0.01452518  0.72879489  1  0  0.222123  0  2.126463  0  0  0.15274  0  2.606922  0  0  0.176873  0  2.544536  0  0  0.14576  0.137207  0  2.648647  0
H  H6  1  0.90730866  0.26083800  0.86120486  1  0  0.272249  0  0.916577  0  0  0.266358  0  0.978697  0  0  0.270549  0  0.975642  0  0  0.302646  0.263615  0  0.980915  0
H  H7  1  0.09269212  0.73916337  0.13879701  1  0  0.272211  0  0.916685  0  0  0.266322  0  0.978799  0  0  0.270512  0  0.975747  0  0  0.302618  0.263372  0  0.981069  0
H  H8  1  0.94980456  0.24573757  0.76008591  1  0  0.265262  0  0.950345  0  0  0.247639  0  1.03788  0  0  0.255357  0  1.029153  0  0  0.26876  0.242071  0  1.044418  0
H  H9  1  0.05020016  0.75426923  0.23991541  1  0  0.265293  0  0.950366  0  0  0.247678  0  1.037862  0  0  0.255399  0  1.029126  0  0  0.268761  0.24194  0  1.044381  0
H  H10  1  0.70953102  0.02804434  0.45786777  1  0  0.066821  0  0.993225  0  0  0.070244  0  1.070186  0  0  0.073897  0  1.066182  0  0  0.091541  0.067337  0  1.073392  0
H  H11  1  0.29045936  0.97195184  0.54213033  1  0  0.066841  0  0.993228  0  0  0.0702  0  1.07027  0  0  0.07385  0  1.066269  0  0  0.091538  0.067295  0  1.073475  0
H  H12  1  0.70739886  0.84251438  0.60711382  1  0  0.109336  0  0.942561  0  0  0.117434  0  1.003699  0  0  0.121085  0  1.002589  0  0  0.099367  0.114735  0  1.004788  0
H  H13  1  0.29258750  0.15748177  0.39288496  1  0  0.109299  0  0.942622  0  0  0.117434  0  1.003736  0  0  0.121083  0  1.002627  0  0  0.099399  0.114728  0  1.004838  0
H  H14  1  0.66778282  0.99958924  0.73025333  1  0  0.095607  0  0.972143  0  0  0.102961  0  1.043475  0  0  0.106251  0  1.039486  0  0  0.09431  0.10046  0  1.046519  0
H  H15  1  0.33221951  0.00041102  0.26974363  1  0  0.095658  0  0.972177  0  0  0.102976  0  1.043533  0  0  0.106266  0  1.039547  0  0  0.094328  0.100445  0  1.04665  0
H  H16  1  0.64424465  0.50804746  0.54308774  1  0  0.077396  0  0.968566  0  0  0.08121  0  1.044832  0  0  0.085579  0  1.039009  0  0  0.10081  0.077903  0  1.049281  0
H  H17  1  0.35577493  0.49194996  0.45691116  1  0  0.07739  0  0.968469  0  0  0.081212  0  1.044738  0  0  0.08558  0  1.038915  0  0  0.100836  0.077893  0  1.049223  0
H  H18  1  0.79574655  0.80358712  0.84507489  1  0  0.104959  0  0.9629  0  0  0.114875  0  1.027218  0  0  0.118014  0  1.024014  0  0  0.099204  0.112322  0  1.029917  0
H  H19  1  0.20424645  0.19640762  0.15492457  1  0  0.104998  0  0.962779  0  0  0.114858  0  1.027187  0  0  0.117995  0  1.023989  0  0  0.099223  0.112281  0  1.029946  0
H  H20  1  0.89344595  0.86231118  0.98386829  1  0  0.102637  0  0.944489  0  0  0.113614  0  1.002616  0  0  0.117483  0  1.000607  0  0  0.10086  0.11071  0  1.004412  0
H  H21  1  0.10654708  0.13768359  0.01613054  1  0  0.102594  0  0.944457  0  0  0.113575  0  1.002586  0  0  0.117445  0  1.000578  0  0  0.100826  0.110667  0  1.004386  0
H  H22  1  0.85350539  0.61610340  0.11758753  1  0  0.060207  0  0.979487  0  0  0.064357  0  1.057472  0  0  0.068588  0  1.052031  0  0  0.09534  0.06094  0  1.061834  0
H  H23  1  0.14649288  0.38389402  0.88241224  1  0  0.06026  0  0.979378  0  0  0.06443  0  1.05733  0  0  0.068651  0  1.051911  0  0  0.095345  0.06102  0  1.061675  0
H  H24  1  0.64067515  0.26517397  0.98434838  1  0  0.083616  0  0.964616  0  0  0.087883  0  1.037985  0  0  0.091826  0  1.034409  0  0  0.097699  0.084879  0  1.040642  0
H  H25  1  0.35932044  0.73482482  0.01565129  1  0  0.083635  0  0.964621  0  0  0.087918  0  1.037966  0  0  0.091863  0  1.034386  0  0  0.097712  0.084871  0  1.040691  0
C  C26  1  0.69175348  0.09248204  0.51237401  1  0  0.133177  0  3.664977  0  0  0.101813  0  3.911721  0  0  0.110612  0  3.926102  0  0  0.037976  0.096046  0  3.902649  0
C  C27  1  0.30824079  0.90751815  0.48762492  1  0  0.133182  0  3.66496  0  0  0.101878  0  3.911753  0  0  0.110682  0  3.926131  0  0  0.037995  0.096105  0  3.902672  0
C  C28  1  0.69114769  0.98972662  0.59597476  1  0  -0.099426  0  3.716173  0  0  -0.109359  0  3.969024  0  0  -0.116784  0  3.987781  0  0  -0.085507  -0.105048  0  3.957279  0
C  C29  1  0.30885063  0.01027501  0.40402212  1  0  -0.099441  0  3.716191  0  0  -0.109417  0  3.969052  0  0  -0.116842  0  3.987809  0  0  -0.08553  -0.105123  0  3.957329  0
C  C30  1  0.67059334  0.07643192  0.66418013  1  0  -0.029567  0  3.689884  0  0  -0.062439  0  3.944981  0  0  -0.054388  0  3.957166  0  0  -0.07545  -0.067928  0  3.937725  0
C  C31  1  0.32940498  0.92356832  0.33581750  1  0  -0.029636  0  3.689853  0  0  -0.062433  0  3.944967  0  0  -0.054383  0  3.957154  0  0  -0.075477  -0.067985  0  3.937852  0
C  C32  1  0.65117419  0.26636345  0.64553297  1  0  -0.048965  0  3.817577  0  0  -0.024409  0  4.048613  0  0  -0.032331  0  4.069568  0  0  -0.011873  -0.019982  0  4.036719  0
C  C33  1  0.34883739  0.73363395  0.35446664  1  0  -0.048876  0  3.817651  0  0  -0.024397  0  4.048788  0  0  -0.032318  0  4.069743  0  0  -0.011881  -0.020182  0  4.03681  0
C  C34  1  0.65371338  0.35987621  0.55973267  1  0  0.096265  0  3.681884  0  0  0.055873  0  3.932484  0  0  0.065928  0  3.943134  0  0  0.034659  0.04824  0  3.92795  0
C  C35  1  0.34629154  0.64012810  0.44026451  1  0  0.096152  0  3.681795  0  0  0.055794  0  3.932469  0  0  0.065849  0  3.943119  0  0  0.034558  0.048067  0  3.928135  0
C  C36  1  0.62376594  0.37361248  0.71069186  1  0  0.250062  0  3.706959  0  0  0.21332  0  3.969783  0  0  0.228324  0  3.983296  0  0  0.223038  0.201961  0  3.96223  0
C  C37  1  0.37624017  0.62638888  0.28930995  1  0  0.250124  0  3.706943  0  0  0.213371  0  3.969764  0  0  0.228375  0  3.983279  0  0  0.223063  0.203353  0  3.961189  0
C  C38  1  0.65289495  0.48973435  0.82396868  1  0  0.233816  0  3.726514  0  0  0.195672  0  3.997892  0  0  0.209972  0  4.012531  0  0  0.217554  0.184842  0  3.989513  0
C  C39  1  0.34710186  0.51026567  0.17603336  1  0  0.23373  0  3.726453  0  0  0.195652  0  3.997804  0  0  0.20995  0  4.012445  0  0  0.21758  0.186213  0  3.988325  0
C  C40  1  0.71515971  0.52758952  0.90360020  1  0  -0.054497  0  3.81177  0  0  -0.03205  0  4.05295  0  0  -0.039482  0  4.074078  0  0  -0.011617  -0.027759  0  4.040036  0
C  C41  1  0.28483320  0.47240924  0.09640014  1  0  -0.054465  0  3.811897  0  0  -0.032056  0  4.053094  0  0  -0.039486  0  4.07422  0  0  -0.011646  -0.027978  0  4.040085  0
C  C42  1  0.78376792  0.69938059  0.90395626  1  0  -0.021368  0  3.686619  0  0  -0.052666  0  3.938365  0  0  -0.04473  0  3.951033  0  0  -0.067286  -0.058461  0  3.931013  0
C  C43  1  0.21623293  0.30062224  0.09604361  1  0  -0.021362  0  3.686612  0  0  -0.052622  0  3.938374  0  0  -0.044686  0  3.951038  0  0  -0.067281  -0.058493  0  3.931181  0
C  C44  1  0.83839742  0.73161237  0.98096578  1  0  -0.100832  0  3.740249  0  0  -0.110506  0  3.987925  0  0  -0.117869  0  4.007299  0  0  -0.088274  -0.106288  0  3.976076  0
C  C45  1  0.16159815  0.26838914  0.01903364  1  0  -0.100861  0  3.740232  0  0  -0.110535  0  3.987874  0  0  -0.117898  0  4.007245  0  0  -0.088289  -0.10633  0  3.976064  0
C  C46  1  0.81769177  0.59568855  0.05511570  1  0  0.124065  0  3.689792  0  0  0.091745  0  3.940217  0  0  0.10002  0  3.9557  0  0  0.032337  0.086092  0  3.930701  0
C  C47  1  0.18229314  0.40431159  0.94488460  1  0  0.124117  0  3.689421  0  0  0.091777  0  3.939879  0  0  0.100048  0  3.955357  0  0  0.032364  0.086143  0  3.930338  0
C  C48  1  0.69843883  0.39863071  0.98103658  1  0  0.081804  0  3.662337  0  0  0.04341  0  3.911478  0  0  0.051472  0  3.924891  0  0  0.034501  0.038096  0  3.903123  0
C  C49  1  0.30155534  0.60136795  0.01896562  1  0  0.081832  0  3.662397  0  0  0.043448  0  3.911515  0  0  0.051508  0  3.924924  0  0  0.034482  0.038113  0  3.903291  0
I  I50  1  0.92960084  0.28176628  0.28285985  1  0  -0.370087  0  1.770185  0  0  -0.315497  0  2.252063  0  0  -0.331699  0  2.206634  0  0  -0.173977  -0.303565  0  2.281705  0
I  I51  1  0.07040129  0.71823648  0.71714125  1  0  -0.370115  0  1.770204  0  0  -0.315528  0  2.252083  0  0  -0.331735  0  2.206659  0  0  -0.17397  -0.303578  0  2.281708  0
I  I52  1  0.62618132  0.96044395  0.13480330  1  0  -0.415326  0  1.549978  0  0  -0.365575  0  1.9749  0  0  -0.386102  0  1.939564  0  0  -0.206166  -0.349911  0  1.997606  0
I  I53  1  0.37383298  0.03955354  0.86519440  1  0  -0.415328  0  1.549994  0  0  -0.36557  0  1.974912  0  0  -0.386092  0  1.939572  0  0  -0.206163  -0.3499  0  1.997641  0
I  I54  1  0.85032978  0.72127870  0.39123811  1  0  -0.415502  0  1.599578  0  0  -0.34712  0  2.02556  0  0  -0.371931  0  1.992069  0  0  -0.201207  -0.329219  0  2.048071  0
I  I55  1  0.14966970  0.27872131  0.60876390  1  0  -0.415489  0  1.59954  0  0  -0.347084  0  2.025504  0  0  -0.371893  0  1.992017  0  0  -0.201199  -0.329109  0  2.047946  0
N  N56  1  0.67340463  0.27584216  0.49395306  1  0  -0.278169  0  3.395474  0  0  -0.201956  0  3.689295  0  0  -0.213002  0  3.695122  0  0  -0.369103  -0.195464  0  3.685483  0
N  N57  1  0.32660147  0.72416471  0.50604699  1  0  -0.278087  0  3.395301  0  0  -0.201938  0  3.689194  0  0  -0.212982  0  3.69501  0  0  -0.369085  -0.195445  0  3.685373  0
N  N58  1  0.50488549  0.50961579  0.70742344  1  0  -0.240087  0  3.284056  0  0  -0.19166  0  3.6097  0  0  -0.197973  0  3.611286  0  0  -0.276593  -0.188481  0  3.609471  0
N  N59  1  0.49511680  0.49038856  0.29257314  1  0  -0.240068  0  3.284202  0  0  -0.191504  0  3.609723  0  0  -0.197817  0  3.611314  0  0  -0.276517  -0.188488  0  3.609141  0
N  N60  1  0.52129683  0.58050292  0.77871593  1  0  -0.224608  0  3.216932  0  0  -0.180341  0  3.536769  0  0  -0.187677  0  3.54012  0  0  -0.267999  -0.176301  0  3.53552  0
N  N61  1  0.47870542  0.41949310  0.22128455  1  0  -0.224553  0  3.217021  0  0  -0.180402  0  3.536902  0  0  -0.187735  0  3.540248  0  0  -0.267989  -0.176546  0  3.535305  0
N  N62  1  0.71832283  0.35954617  0.78300254  1  0  0.008627  0  3.577249  0  0  0.089378  0  3.798452  0  0  0.075936  0  3.822216  0  0  -0.138456  0.100212  0  3.782369  0
N  N63  1  0.28167674  0.64045397  0.21699696  1  0  0.008642  0  3.577079  0  0  0.089377  0  3.798288  0  0  0.075933  0  3.822055  0  0  -0.138472  0.098077  0  3.782129  0
N  N64  1  0.85246861  0.22967504  0.80896561  1  0  -0.471888  0  2.904102  0  0  -0.479356  0  3.145633  0  0  -0.488785  0  3.144435  0  0  -0.485456  -0.473921  0  3.14709  0
N  N65  1  0.14753366  0.77032377  0.19103336  1  0  -0.471918  0  2.904239  0  0  -0.479379  0  3.145782  0  0  -0.488809  0  3.144592  0  0  -0.48544  -0.47251  0  3.146825  0
N  N66  1  0.74661444  0.43258434  0.05608103  1  0  -0.26844  0  3.357782  0  0  -0.19293  0  3.64022  0  0  -0.205599  0  3.651279  0  0  -0.357901  -0.185597  0  3.633148  0
N  N67  1  0.25339040  0.56742263  0.94391715  1  0  -0.268578  0  3.357538  0  0  -0.193097  0  3.640038  0  0  -0.20576  0  3.65109  0  0  -0.357923  -0.185762  0  3.632947  0
