# generated using pymatgen
data_ZnH24C24(N3O2)2
_symmetry_space_group_name_H-M   'P 1'
_cell_length_a   9.29167389
_cell_length_b   11.77442192
_cell_length_c   13.15900000
_cell_angle_alpha   104.71258687
_cell_angle_beta   110.31850280
_cell_angle_gamma   108.01146149
_symmetry_Int_Tables_number   1
_chemical_formula_structural   ZnH24C24(N3O2)2
_chemical_formula_sum   'Zn2 H48 C48 N12 O8'
_cell_volume   1173.80211349
_cell_formula_units_Z   2
loop_
 _symmetry_equiv_pos_site_id
 _symmetry_equiv_pos_as_xyz
  1  'x, y, z'
loop_
 _atom_site_type_symbol
 _atom_site_label
 _atom_site_symmetry_multiplicity
 _atom_site_fract_x
 _atom_site_fract_y
 _atom_site_fract_z
 _atom_site_occupancy
 _atom_site_hle17_bader_spin_density
 _atom_site_hle17_ddec_charge
 _atom_site_hle17_ddec_spin_density
 _atom_site_hle17_ddec_sum_bond_order
 _atom_site_hle17_magmom
 _atom_site_hse06_10hf_bader_spin_density
 _atom_site_hse06_10hf_ddec_charge
 _atom_site_hse06_10hf_ddec_spin_density
 _atom_site_hse06_10hf_ddec_sum_bond_order
 _atom_site_hse06_10hf_magmom
 _atom_site_hse06_bader_spin_density
 _atom_site_hse06_ddec_charge
 _atom_site_hse06_ddec_spin_density
 _atom_site_hse06_ddec_sum_bond_order
 _atom_site_hse06_magmom
 _atom_site_pbe_bader_charge
 _atom_site_pbe_bader_spin_density
 _atom_site_pbe_cm5_charge
 _atom_site_pbe_ddec_charge
 _atom_site_pbe_ddec_spin_density
 _atom_site_pbe_ddec_sum_bond_order
 _atom_site_pbe_magmom
Zn  Zn0  1  0.07293822  0.70745949  0.44915152  1  0  0.996314  0  1.928869  0  0  0.812492  0  2.415209  0  0  0.858088  0  2.360039  0  1.256548  0  0.694796  0.780615  0  2.453248  0
Zn  Zn1  1  0.92706165  0.29254369  0.55085464  1  0  0.996246  0  1.928751  0  0  0.812436  0  2.415071  0  0  0.858082  0  2.359908  0  1.256472  0  0.694778  0.780578  0  2.453111  0
H  H2  1  0.16257946  0.61187417  0.66553551  1  0  0.127557  0  0.91476  0  0  0.136925  0  0.976912  0  0  0.140443  0  0.972268  0  0.181813  0  0.15106  0.134307  0  0.98021  0
H  H3  1  0.83742389  0.38812705  0.33446498  1  0  0.127541  0  0.914766  0  0  0.136907  0  0.976923  0  0  0.140427  0  0.972273  0  0.18179  0  0.151044  0.13429  0  0.980221  0
H  H4  1  0.49195568  0.81590484  0.55224973  1  0  0.099327  0  0.971399  0  0  0.101785  0  1.043319  0  0  0.104714  0  1.040184  0  0.181891  0  0.134411  0.099578  0  1.045493  0
H  H5  1  0.50804539  0.18409443  0.44774824  1  0  0.099309  0  0.971424  0  0  0.101761  0  1.043344  0  0  0.104689  0  1.040208  0  0.181903  0  0.134419  0.099553  0  1.045519  0
H  H6  1  0.54044709  0.58128554  0.79989765  1  0  0.101203  0  0.933208  0  0  0.116461  0  0.993413  0  0  0.117207  0  0.99299  0  0.099521  0  0.121346  0.115952  0  0.993511  0
H  H7  1  0.45955060  0.41870982  0.20010088  1  0  0.101234  0  0.93322  0  0  0.116481  0  0.993406  0  0  0.117226  0  0.992986  0  0.09922  0  0.12136  0.115972  0  0.993506  0
H  H8  1  0.38392685  0.60288826  0.83677497  1  0  0.099358  0  0.921478  0  0  0.115517  0  0.98075  0  0  0.116509  0  0.979657  0  0.098318  0  0.12328  0.114801  0  0.981387  0
H  H9  1  0.61607193  0.39711101  0.16322319  1  0  0.099364  0  0.92146  0  0  0.115517  0  0.980721  0  0  0.116508  0  0.979632  0  0.098318  0  0.123284  0.114801  0  0.98136  0
H  H10  1  0.90610080  0.66264520  0.92221312  1  0  0.106137  0  0.976822  0  0  0.125747  0  1.040819  0  0  0.125072  0  1.044533  0  0.055622  0  0.087242  0.126279  0  1.038425  0
H  H11  1  0.09389798  0.33735407  0.07778733  1  0  0.106119  0  0.976827  0  0  0.125708  0  1.040847  0  0  0.125032  0  1.044562  0  0.054506  0  0.087236  0.126241  0  1.038452  0
H  H12  1  0.96968586  0.80055680  0.88991562  1  0  0.10667  0  0.952448  0  0  0.132972  0  1.005166  0  0  0.133807  0  1.005765  0  0.057019  0  0.091149  0.131832  0  1.006081  0
H  H13  1  0.03031180  0.19944052  0.11008031  1  0  0.106696  0  0.952463  0  0  0.133002  0  1.005173  0  0  0.133835  0  1.005775  0  0.057162  0  0.091173  0.131862  0  1.006089  0
H  H14  1  0.76036700  0.67507836  0.80031101  1  0  0.10379  0  1.000391  0  0  0.117853  0  1.072585  0  0  0.119193  0  1.072574  0  0.05282  0  0.087022  0.117199  0  1.072023  0
H  H15  1  0.23962781  0.32491798  0.19968552  1  0  0.103721  0  1.000486  0  0  0.117805  0  1.072655  0  0  0.119146  0  1.072643  0  0.052875  0  0.087012  0.117153  0  1.072091  0
H  H16  1  0.13249547  0.83336675  0.11601105  1  0  0.111708  0  0.946739  0  0  0.13325  0  1.006551  0  0  0.133746  0  1.007756  0  0.030948  0  0.090941  0.132287  0  1.007812  0
H  H17  1  0.86750446  0.16663252  0.88398284  1  0  0.111723  0  0.946732  0  0  0.133269  0  1.006524  0  0  0.133768  0  1.007723  0  0.030924  0  0.09095  0.132308  0  1.007781  0
H  H18  1  0.20949025  0.00017974  0.20638897  1  0  0.105366  0  0.992263  0  0  0.119671  0  1.062319  0  0  0.121482  0  1.061786  0  0.02092  0  0.088226  0.118404  0  1.062664  0
H  H19  1  0.79051357  0.99982026  0.79360490  1  0  0.105339  0  0.992251  0  0  0.119645  0  1.062301  0  0  0.121452  0  1.061773  0  0.020645  0  0.088212  0.118376  0  1.062648  0
H  H20  1  0.15815634  0.95176704  0.05542528  1  0  0.104261  0  0.964775  0  0  0.123378  0  1.031375  0  0  0.123951  0  1.032988  0  0.060376  0  0.089095  0.121717  0  1.033201  0
H  H21  1  0.84184129  0.04823223  0.94456957  1  0  0.10433  0  0.964703  0  0  0.123434  0  1.031303  0  0  0.124006  0  1.032916  0  0.060095  0  0.089112  0.121771  0  1.033131  0
H  H22  1  0.59468442  0.06153087  0.17496960  1  0  0.107928  0  0.958878  0  0  0.129379  0  1.020752  0  0  0.130224  0  1.021943  0  0.029641  0  0.090749  0.128566  0  1.020563  0
H  H23  1  0.40532007  0.93847035  0.82502889  1  0  0.107934  0  0.958889  0  0  0.12939  0  1.020752  0  0  0.130235  0  1.021946  0  0.029622  0  0.090749  0.128576  0  1.020562  0
H  H24  1  0.76705820  0.07593529  0.29883432  1  0  0.097974  0  0.99609  0  0  0.114592  0  1.066462  0  0  0.115934  0  1.066494  0  0.063344  0  0.086469  0.113862  0  1.065931  0
H  H25  1  0.23294172  0.92406398  0.70116185  1  0  0.09797  0  0.99611  0  0  0.114589  0  1.066479  0  0  0.115933  0  1.066505  0  0.063439  0  0.08647  0.11386  0  1.065946  0
H  H26  1  0.56961794  0.93453859  0.22415859  1  0  0.110302  0  0.936085  0  0  0.135068  0  0.990451  0  0  0.136175  0  0.990282  0  0.032822  0  0.094978  0.133654  0  0.99196  0
H  H27  1  0.43038078  0.06546459  0.77583666  1  0  0.110321  0  0.936031  0  0  0.135061  0  0.990427  0  0  0.136165  0  0.990262  0  0.032697  0  0.094978  0.133646  0  0.991933  0
H  H28  1  0.31631594  0.74667846  0.89361759  1  0  0.099202  0  0.972695  0  0  0.11821  0  1.037676  0  0  0.119462  0  1.037341  0  0.060646  0  0.089507  0.117403  0  1.037749  0
H  H29  1  0.68368335  0.25332570  0.10637801  1  0  0.099303  0  0.972636  0  0  0.118306  0  1.037623  0  0  0.119559  0  1.037286  0  0.060729  0  0.089534  0.117501  0  1.037696  0
H  H30  1  0.39056174  0.90592708  0.99797952  1  0  0.10567  0  0.964381  0  0  0.128373  0  1.025131  0  0  0.129245  0  1.026069  0  0.044098  0  0.091681  0.126809  0  1.027036  0
H  H31  1  0.60944213  0.09407708  0.00201645  1  0  0.105686  0  0.96444  0  0  0.128418  0  1.025154  0  0  0.129283  0  1.026097  0  0.044125  0  0.0917  0.126858  0  1.027052  0
H  H32  1  0.36298042  0.77565726  0.04238167  1  0  0.108815  0  0.958865  0  0  0.132318  0  1.016852  0  0  0.132602  0  1.018121  0  0.032094  0  0.093286  0.131277  0  1.018076  0
H  H33  1  0.63701604  0.22434396  0.95761181  1  0  0.10882  0  0.959049  0  0  0.132337  0  1.016995  0  0  0.132616  0  1.018269  0  0.036688  0  0.093288  0.131296  0  1.01822  0
H  H34  1  0.14195894  0.13324428  0.27308898  1  0  0.105028  0  0.939017  0  0  0.11524  0  1.010098  0  0  0.116916  0  1.008649  0  0.119664  0  0.123719  0.113936  0  1.011045  0
H  H35  1  0.85804098  0.86675499  0.72690947  1  0  0.105087  0  0.939071  0  0  0.115269  0  1.010142  0  0  0.116957  0  1.008689  0  0.119697  0  0.123736  0.113955  0  1.011081  0
H  H36  1  0.99083740  0.14633290  0.32082847  1  0  0.097874  0  0.948782  0  0  0.112205  0  1.009584  0  0  0.11336  0  1.008597  0  0.100552  0  0.113318  0.111388  0  1.010082  0
H  H37  1  0.00916771  0.85366540  0.67917102  1  0  0.097998  0  0.948802  0  0  0.112239  0  1.009665  0  0  0.113396  0  1.008676  0  0.100468  0  0.113326  0.11141  0  1.010158  0
H  H38  1  0.87543834  0.83619567  0.30673378  1  0  0.128975  0  0.915513  0  0  0.139963  0  0.972471  0  0  0.142944  0  0.9692  0  0.226187  0  0.151391  0.13764  0  0.975009  0
H  H39  1  0.12456041  0.16380556  0.69326787  1  0  0.128912  0  0.9155  0  0  0.139907  0  0.972466  0  0  0.142929  0  0.969142  0  0.226203  0  0.151346  0.137584  0  0.975005  0
H  H40  1  0.38622313  0.01568505  0.57234627  1  0  0.099475  0  0.919699  0  0  0.112821  0  0.973607  0  0  0.114725  0  0.97179  0  0.128133  0  0.143073  0.111645  0  0.974555  0
H  H41  1  0.61377562  0.98431618  0.42765309  1  0  0.099482  0  0.919662  0  0  0.112831  0  0.973568  0  0  0.114735  0  0.97175  0  0.128112  0  0.143074  0.111654  0  0.974516  0
H  H42  1  0.79827932  0.53736702  0.61637572  1  0  0.0983  0  0.952094  0  0  0.108904  0  1.01189  0  0  0.11226  0  1.009946  0  0.096427  0  0.100175  0.1064  0  1.0136  0
H  H43  1  0.20172699  0.46262737  0.38362698  1  0  0.098215  0  0.952051  0  0  0.108834  0  1.011843  0  0  0.112191  0  1.009899  0  0.096428  0  0.100142  0.106328  0  1.013552  0
H  H44  1  0.43430374  0.58502096  0.34308228  1  0  0.101546  0  0.952384  0  0  0.109653  0  1.017256  0  0  0.113186  0  1.014805  0  0.086598  0  0.102058  0.107057  0  1.01922  0
H  H45  1  0.56570087  0.41497245  0.65692207  1  0  0.101544  0  0.95227  0  0  0.10967  0  1.017139  0  0  0.113204  0  1.014688  0  0.086399  0  0.102061  0.107072  0  1.019106  0
H  H46  1  0.30814192  0.63217672  0.14472302  1  0  0.103179  0  0.939254  0  0  0.114613  0  0.996282  0  0  0.118674  0  0.993034  0  0.058008  0  0.106307  0.111469  0  0.999125  0
H  H47  1  0.69186869  0.36783720  0.85528518  1  0  0.103378  0  0.939049  0  0  0.114705  0  0.996185  0  0  0.118791  0  0.992907  0  0.058102  0  0.106321  0.111561  0  0.999028  0
H  H48  1  0.78369459  0.48158580  0.07269366  1  0  0.098768  0  0.949869  0  0  0.110537  0  1.007043  0  0  0.113878  0  1.005219  0  0.070914  0  0.103692  0.108258  0  1.008046  0
H  H49  1  0.21630348  0.51842227  0.92731013  1  0  0.098795  0  0.949753  0  0  0.110533  0  1.006967  0  0  0.113874  0  1.005142  0  0.07087  0  0.103673  0.108254  0  1.00797  0
C  C50  1  0.27438469  0.66569781  0.65849874  1  0  0.179079  0  3.614058  0  0  0.100136  0  3.880558  0  0  0.114766  0  3.891107  0  1.002667  0  0.171872  0.091001  0  3.872563  0
C  C51  1  0.72561523  0.33430146  0.34149971  1  0  0.178966  0  3.614  0  0  0.100103  0  3.880543  0  0  0.114733  0  3.891092  0  1.002353  0  0.171876  0.09096  0  3.872551  0
C  C52  1  0.44477667  0.77071154  0.60360898  1  0  0.196311  0  3.707354  0  0  0.142666  0  3.996545  0  0  0.153402  0  4.009803  0  0.940342  0  0.151129  0.135998  0  3.986916  0
C  C53  1  0.55522273  0.22928480  0.39638791  1  0  0.196318  0  3.707367  0  0  0.14272  0  3.996568  0  0  0.153458  0  4.009824  0  0.940535  0  0.151125  0.136051  0  3.986942  0
C  C54  1  0.49658384  0.65421706  0.82819764  1  0  -0.047315  0  3.646002  0  0  -0.124665  0  3.893514  0  0  -0.119798  0  3.902915  0  0.273814  0  -0.041536  -0.127281  0  3.886368  0
C  C55  1  0.50341608  0.34578221  0.17180233  1  0  -0.047403  0  3.645974  0  0  -0.124645  0  3.89346  0  0  -0.119777  0  3.902861  0  0.274117  0  -0.041519  -0.127264  0  3.88632  0
C  C56  1  0.63474098  0.76922187  0.94206565  1  0  -0.035975  0  3.706205  0  0  -0.033562  0  3.95988  0  0  -0.035561  0  3.983811  0  0.009627  0  -0.018592  -0.032692  0  3.943482  0
C  C57  1  0.36526698  0.23077740  0.05793401  1  0  -0.035895  0  3.705985  0  0  -0.033565  0  3.959734  0  0  -0.035557  0  3.983663  0  0.009832  0  -0.018607  -0.032695  0  3.94334  0
C  C58  1  0.80764066  0.79977045  0.97321082  1  0  0.060815  0  3.700625  0  0  0.072402  0  3.9467  0  0  0.07207  0  3.970681  0  0.005716  0  -0.008957  0.073801  0  3.928849  0
C  C59  1  0.19235871  0.20022785  0.02678727  1  0  0.060778  0  3.700469  0  0  0.072369  0  3.946621  0  0  0.072035  0  3.970602  0  0.005533  0  -0.008978  0.073768  0  3.928771  0
C  C60  1  0.93581753  0.89929632  0.08427405  1  0  0.051716  0  3.705032  0  0  0.062609  0  3.951534  0  0  0.062074  0  3.976577  0  -0.074247  0  -0.011824  0.064158  0  3.932742  0
C  C61  1  0.06418814  0.10070296  0.91572657  1  0  0.051796  0  3.704999  0  0  0.062642  0  3.951531  0  0  0.062107  0  3.976568  0  -0.074281  0  -0.011791  0.064188  0  3.932743  0
C  C62  1  0.89008327  0.97039139  0.16118652  1  0  -0.057768  0  3.741228  0  0  -0.051179  0  3.993741  0  0  -0.054202  0  4.0194  0  -0.042405  0  -0.022877  -0.049931  0  3.976793  0
C  C63  1  0.10991327  0.02960398  0.83880869  1  0  -0.057876  0  3.741136  0  0  -0.051216  0  3.993541  0  0  -0.05423  0  4.019205  0  -0.042173  0  -0.022945  -0.049984  0  3.976583  0
C  C64  1  0.71730687  0.94105018  0.12917565  1  0  0.039708  0  3.732298  0  0  0.051121  0  3.981027  0  0  0.050252  0  4.006596  0  -0.011187  0  -0.019  0.052344  0  3.963058  0
C  C65  1  0.28269479  0.05894812  0.87082224  1  0  0.039756  0  3.732225  0  0  0.051121  0  3.980967  0  0  0.050253  0  4.00654  0  -0.01116  0  -0.019032  0.052343  0  3.962999  0
C  C66  1  0.58901348  0.84141099  0.01782480  1  0  0.038889  0  3.724895  0  0  0.049733  0  3.976024  0  0  0.04882  0  4.000988  0  -0.023824  0  -0.018565  0.051337  0  3.957815  0
C  C67  1  0.41098471  0.15858925  0.98216964  1  0  0.038937  0  3.724743  0  0  0.049839  0  3.975859  0  0  0.048915  0  4.000835  0  -0.023911  0  -0.018472  0.051443  0  3.957653  0
C  C68  1  0.86171649  0.72995894  0.89162867  1  0  -0.329536  0  3.721858  0  0  -0.406774  0  3.955297  0  0  -0.408622  0  3.965807  0  -0.101745  0  -0.246513  -0.405205  0  3.947498  0
C  C69  1  0.13828232  0.27003838  0.10836830  1  0  -0.329478  0  3.721947  0  0  -0.406703  0  3.955371  0  0  -0.40855  0  3.965885  0  -0.100859  0  -0.246519  -0.405134  0  3.947572  0
C  C70  1  0.11838388  0.92330205  0.11830366  1  0  -0.328689  0  3.719748  0  0  -0.406884  0  3.958129  0  0  -0.409008  0  3.968401  0  -0.036626  0  -0.245553  -0.405387  0  3.953027  0
C  C71  1  0.88161661  0.07669820  0.88169211  1  0  -0.328762  0  3.719665  0  0  -0.406951  0  3.958101  0  0  -0.409073  0  3.96837  0  -0.036003  0  -0.245582  -0.405452  0  3.953002  0
C  C72  1  0.66132390  0.00750503  0.21144129  1  0  -0.327126  0  3.738569  0  0  -0.407912  0  3.977278  0  0  -0.410227  0  3.988714  0  -0.081724  0  -0.244471  -0.405888  0  3.969092  0
C  C73  1  0.33867487  0.99249424  0.78855459  1  0  -0.327131  0  3.738579  0  0  -0.407887  0  3.977288  0  0  -0.410187  0  3.9887  0  -0.081777  0  -0.244443  -0.405863  0  3.969103  0
C  C74  1  0.40603774  0.81522594  0.98541653  1  0  -0.327352  0  3.734803  0  0  -0.407114  0  3.971845  0  0  -0.408909  0  3.982803  0  -0.086825  0  -0.242767  -0.405769  0  3.965927  0
C  C75  1  0.59396331  0.18477529  0.01457656  1  0  -0.327555  0  3.734963  0  0  -0.407364  0  3.972002  0  0  -0.40915  0  3.982963  0  -0.091486  0  -0.242858  -0.406023  0  3.966087  0
C  C76  1  0.03001554  0.07619513  0.27982168  1  0  -0.055975  0  3.637179  0  0  -0.135323  0  3.885805  0  0  -0.131278  0  3.895337  0  0.270486  0  -0.047638  -0.137389  0  3.878808  0
C  C77  1  0.96998615  0.92380121  0.72017502  1  0  -0.056191  0  3.637393  0  0  -0.135379  0  3.885856  0  0  -0.131357  0  3.895422  0  0.270512  0  -0.047614  -0.137384  0  3.878775  0
C  C78  1  0.00836220  0.90489651  0.36522470  1  0  0.182917  0  3.60006  0  0  0.102843  0  3.860863  0  0  0.117005  0  3.872224  0  0.959642  0  0.170589  0.09405  0  3.85275  0
C  C79  1  0.99163602  0.09510178  0.63477387  1  0  0.18294  0  3.600143  0  0  0.10287  0  3.860961  0  0  0.117011  0  3.872303  0  0.959626  0  0.170623  0.094075  0  3.85285  0
C  C80  1  0.26822046  0.99726706  0.50012891  1  0  0.200792  0  3.703749  0  0  0.147962  0  3.990398  0  0  0.158863  0  4.003577  0  0.998604  0  0.153953  0.141166  0  3.980481  0
C  C81  1  0.73178002  0.00273319  0.49987218  1  0  0.200803  0  3.703798  0  0  0.147964  0  3.990455  0  0  0.158869  0  4.003628  0  0.99861  0  0.153955  0.141171  0  3.980535  0
C  C82  1  0.76420971  0.63156229  0.44583345  1  0  0.624732  0  3.940106  0  0  0.574919  0  4.24032  0  0  0.608325  0  4.232973  0  1.54875  0  0.190156  0.552382  0  4.244348  0
C  C83  1  0.23579419  0.36843991  0.55417348  1  0  0.62476  0  3.940128  0  0  0.57493  0  4.240348  0  0  0.608336  0  4.232998  0  1.540653  0  0.190134  0.552394  0  4.244372  0
C  C84  1  0.62896566  0.56672679  0.47626234  1  0  -0.064161  0  3.759767  0  0  -0.045765  0  3.998029  0  0  -0.052202  0  4.020593  0  -0.025422  0  -0.022293  -0.041304  0  3.982306  0
C  C85  1  0.37103833  0.43326956  0.52374024  1  0  -0.064338  0  3.759783  0  0  -0.0459  0  3.998029  0  0  -0.052332  0  4.020589  0  -0.01765  0  -0.022277  -0.041438  0  3.9823  0
C  C86  1  0.66742613  0.52129319  0.56642932  1  0  -0.070567  0  3.730535  0  0  -0.092454  0  3.979734  0  0  -0.093156  0  3.999856  0  -0.076203  0  -0.08758  -0.092177  0  3.96605  0
C  C87  1  0.33257733  0.47870022  0.43357627  1  0  -0.070389  0  3.73035  0  0  -0.092305  0  3.979536  0  0  -0.092991  0  3.999618  0  -0.076131  0  -0.087532  -0.092025  0  3.965851  0
C  C88  1  0.46103719  0.54566133  0.41037342  1  0  -0.077409  0  3.739614  0  0  -0.100792  0  3.994131  0  0  -0.101611  0  4.013725  0  -0.024923  0  -0.085874  -0.099854  0  3.980727  0
C  C89  1  0.53896971  0.45433208  0.58963072  1  0  -0.077243  0  3.739346  0  0  -0.100648  0  3.993829  0  0  -0.10147  0  4.013416  0  -0.024749  0  -0.085823  -0.099709  0  3.980425  0
C  C90  1  0.10778714  0.63062453  0.25107368  1  0  0.627099  0  3.930903  0  0  0.583042  0  4.218438  0  0  0.616042  0  4.212359  0  1.571676  0  0.194328  0.560761  0  4.221466  0
C  C91  1  0.89220985  0.36937963  0.74893428  1  0  0.626863  0  3.931099  0  0  0.582802  0  4.218633  0  0  0.615802  0  4.212553  0  1.570497  0  0.194175  0.56053  0  4.221665  0
C  C92  1  0.05119115  0.56279502  0.12119853  1  0  -0.052234  0  3.749741  0  0  -0.029424  0  3.980344  0  0  -0.035274  0  4.00185  0  -0.036726  0  -0.015111  -0.025556  0  3.965531  0
C  C93  1  0.94881325  0.43721206  0.87880963  1  0  -0.05216  0  3.749734  0  0  -0.029363  0  3.980317  0  0  -0.035214  0  4.001827  0  -0.036842  0  -0.015206  -0.025525  0  3.965542  0
C  C94  1  0.17346827  0.57435587  0.08023183  1  0  -0.08873  0  3.755794  0  0  -0.110736  0  4.006612  0  0  -0.111323  0  4.025142  0  -0.081843  0  -0.084604  -0.11066  0  3.994948  0
C  C95  1  0.82653499  0.42565122  0.91977681  1  0  -0.088841  0  3.755457  0  0  -0.110746  0  4.006236  0  0  -0.111354  0  4.024762  0  -0.081712  0  -0.084473  -0.110661  0  3.994584  0
C  C96  1  0.87742701  0.48833768  0.03992836  1  0  -0.078455  0  3.741842  0  0  -0.100271  0  3.990028  0  0  -0.100879  0  4.009551  0  0.016026  0  -0.085198  -0.099768  0  3.976551  0
C  C97  1  0.12257392  0.51167136  0.96008092  1  0  -0.078422  0  3.741818  0  0  -0.100214  0  3.990046  0  0  -0.100817  0  4.009555  0  0.016456  0  -0.085094  -0.099704  0  3.97658  0
N  N98  1  0.27682427  0.71494400  0.57756894  1  0  -0.412888  0  3.28913  0  0  -0.332768  0  3.599758  0  0  -0.354578  0  3.609511  0  -1.23454  0  -0.354859  -0.318046  0  3.592135  0
N  N99  1  0.72317622  0.28505625  0.42243063  1  0  -0.412707  0  3.288927  0  0  -0.332708  0  3.599651  0  0  -0.35453  0  3.609424  0  -1.234445  0  -0.354816  -0.317994  0  3.592041  0
N  N100  1  0.54569475  0.75988723  0.69681107  1  0  -0.250262  0  2.86569  0  0  -0.244823  0  3.135656  0  0  -0.253395  0  3.151666  0  -0.654208  0  -0.207103  -0.238933  0  3.124924  0
N  N101  1  0.45430471  0.24010521  0.30318571  1  0  -0.250313  0  2.865731  0  0  -0.244815  0  3.135705  0  0  -0.253387  0  3.151711  0  -0.654349  0  -0.207094  -0.23893  0  3.124974  0
N  N102  1  0.43524675  0.69256470  0.72995107  1  0  0.041971  0  3.566056  0  0  0.160523  0  3.755778  0  0  0.14907  0  3.781783  0  -0.827298  0  -0.129883  0.166404  0  3.740744  0
N  N103  1  0.56475094  0.30743067  0.27004518  1  0  0.042052  0  3.565935  0  0  0.160463  0  3.755782  0  0  0.14901  0  3.781783  0  -0.827108  0  -0.129945  0.166359  0  3.740719  0
N  N104  1  0.11745847  0.88829031  0.45182495  1  0  -0.416659  0  3.279972  0  0  -0.341447  0  3.595377  0  0  -0.362775  0  3.60453  0  -1.241033  0  -0.353288  -0.327155  0  3.588547  0
N  N105  1  0.88253916  0.11170896  0.54817673  1  0  -0.416642  0  3.28006  0  0  -0.341402  0  3.595427  0  0  -0.362746  0  3.604609  0  -1.241023  0  -0.353265  -0.327118  0  3.588601  0
N  N106  1  0.25744818  0.07934933  0.44853640  1  0  -0.239156  0  2.856813  0  0  -0.235454  0  3.118197  0  0  -0.244112  0  3.132819  0  -0.666641  0  -0.203935  -0.229621  0  3.108369  0
N  N107  1  0.74254892  0.92064701  0.55145917  1  0  -0.239101  0  2.856805  0  0  -0.235389  0  3.118219  0  0  -0.244038  0  3.132835  0  -0.666659  0  -0.203874  -0.229559  0  3.108396  0
N  N108  1  0.09210718  0.01885683  0.36288059  1  0  0.056287  0  3.527905  0  0  0.17905  0  3.713567  0  0  0.169694  0  3.735167  0  -0.801924  0  -0.122767  0.184601  0  3.699408  0
N  N109  1  0.90788992  0.98113951  0.63711498  1  0  0.056292  0  3.527999  0  0  0.17897  0  3.713663  0  0  0.169586  0  3.735334  0  -0.801982  0  -0.122844  0.184507  0  3.699488  0
O  O110  1  0.91791328  0.65172809  0.51595095  1  0  -0.67538  0  2.049845  0  0  -0.602378  0  2.326534  0  0  -0.630789  0  2.311372  0  -1.181973  0  -0.349651  -0.582464  0  2.335966  0
O  O111  1  0.08209356  0.34826923  0.48405559  1  0  -0.67533  0  2.04987  0  0  -0.602336  0  2.326557  0  0  -0.630768  0  2.311424  0  -1.181828  0  -0.349671  -0.582425  0  2.335989  0
O  O112  1  0.72862764  0.65892639  0.35714931  1  0  -0.616763  0  1.886223  0  0  -0.575144  0  2.105994  0  0  -0.596247  0  2.096669  0  -1.175326  0  -0.334146  -0.560239  0  2.111959  0
O  O113  1  0.27137799  0.34107484  0.64286011  1  0  -0.616824  0  1.886211  0  0  -0.575188  0  2.105975  0  0  -0.596302  0  2.096658  0  -1.175358  0  -0.33416  -0.560286  0  2.111936  0
O  O114  1  0.99607357  0.58524759  0.28674646  1  0  -0.659611  0  2.01409  0  0  -0.590504  0  2.284151  0  0  -0.618746  0  2.268294  0  -1.175646  0  -0.344524  -0.570954  0  2.294668  0
O  O115  1  0.00393142  0.41475852  0.71326010  1  0  -0.659565  0  2.013843  0  0  -0.590468  0  2.283891  0  0  -0.618725  0  2.268047  0  -1.17603  0  -0.344487  -0.570913  0  2.294393  0
O  O116  1  0.25230393  0.72458244  0.31693282  1  0  -0.613152  0  1.876907  0  0  -0.569661  0  2.088776  0  0  -0.591594  0  2.080967  0  -1.180152  0  -0.331959  -0.554165  0  2.093713  0
O  O117  1  0.74770159  0.27542660  0.68307910  1  0  -0.613047  0  1.877138  0  0  -0.569552  0  2.089014  0  0  -0.591485  0  2.081208  0  -1.178533  0  -0.331876  -0.554061  0  2.093948  0
