# generated using pymatgen
data_Zn3H20C30(N2O3)4
_symmetry_space_group_name_H-M   'P 1'
_cell_length_a   12.02114772
_cell_length_b   12.95847301
_cell_length_c   12.95847316
_cell_angle_alpha   108.34970763
_cell_angle_beta   106.09638374
_cell_angle_gamma   106.09648280
_symmetry_Int_Tables_number   1
_chemical_formula_structural   Zn3H20C30(N2O3)4
_chemical_formula_sum   'Zn6 H40 C60 N16 O24'
_cell_volume   1687.38673952
_cell_formula_units_Z   2
loop_
 _symmetry_equiv_pos_site_id
 _symmetry_equiv_pos_as_xyz
  1  'x, y, z'
loop_
 _atom_site_type_symbol
 _atom_site_label
 _atom_site_symmetry_multiplicity
 _atom_site_fract_x
 _atom_site_fract_y
 _atom_site_fract_z
 _atom_site_occupancy
 _atom_site_pbe_bader_charge
 _atom_site_pbe_bader_spin_density
 _atom_site_pbe_cm5_charge
 _atom_site_pbe_ddec_charge
 _atom_site_pbe_ddec_spin_density
 _atom_site_pbe_ddec_sum_bond_order
 _atom_site_pbe_magmom
Zn  Zn0  1  0.98713704  0.48715241  0.25779664  1  1.31401  0  0.682639  0.798681  0  2.356552  0
Zn  Zn1  1  0.51286223  0.74220235  0.51284729  1  1.314025  0  0.682684  0.798736  0  2.356502  0
Zn  Zn2  1  0.01286064  0.51284471  0.74219938  1  1.314063  0  0.682649  0.798727  0  2.356553  0
Zn  Zn3  1  0.48714019  0.25780188  0.48715680  1  1.314054  0  0.682642  0.79872  0  2.356553  0
Zn  Zn4  1  0.74999943  0.22253536  0.77746521  1  1.331982  0  0.662728  0.892335  0  2.275421  0
Zn  Zn5  1  0.25000013  0.77746620  0.22253577  1  1.331977  0  0.662742  0.892307  0  2.275431  0
H  H6  1  0.66928209  0.16951289  0.33156860  1  0.216031  0  0.120443  0.135497  0  1.073856  0
H  H7  1  0.83071729  0.66842943  0.83048631  1  0.21602  0  0.120448  0.135513  0  1.073837  0
H  H8  1  0.33071932  0.83048689  0.66843076  1  0.216005  0  0.120436  0.135489  0  1.073837  0
H  H9  1  0.16928028  0.33156946  0.16951255  1  0.215962  0  0.120427  0.135482  0  1.07385  0
H  H10  1  0.79101795  0.91599375  0.46074899  1  0.149861  0  0.106533  0.12101  0  1.067696  0
H  H11  1  0.70898256  0.53924902  0.08400516  1  0.149809  0  0.106509  0.120983  0  1.067698  0
H  H12  1  0.20898210  0.08400692  0.53925029  1  0.149835  0  0.106515  0.120979  0  1.067738  0
H  H13  1  0.29101848  0.46074988  0.91599460  1  0.149818  0  0.106516  0.120999  0  1.067718  0
H  H14  1  0.98474506  0.23396409  0.23625091  1  0.134261  0  0.138693  0.103812  0  1.010846  0
H  H15  1  0.51525470  0.76374886  0.76603909  1  0.134242  0  0.138697  0.103813  0  1.010842  0
H  H16  1  0.01525488  0.76603835  0.76374813  1  0.134249  0  0.138697  0.103805  0  1.010882  0
H  H17  1  0.48474497  0.23625094  0.23396368  1  0.134259  0  0.1387  0.103831  0  1.010821  0
H  H18  1  0.91459185  0.60955363  0.49721962  1  0.135322  0  0.116008  0.120557  0  1.031522  0
H  H19  1  0.58540799  0.50278144  0.39044729  1  0.135315  0  0.116004  0.120545  0  1.03151  0
H  H20  1  0.08540820  0.39044704  0.50278121  1  0.135313  0  0.116006  0.120563  0  1.031489  0
H  H21  1  0.41459168  0.49721834  0.60955240  1  0.135326  0  0.116011  0.12055  0  1.0315  0
H  H22  1  0.96551614  0.70952793  0.22764928  1  0.173278  0  0.143548  0.119123  0  0.997077  0
H  H23  1  0.53448617  0.77235108  0.29047126  1  0.173229  0  0.143545  0.119113  0  0.99708  0
H  H24  1  0.03448452  0.29047008  0.77235088  1  0.173275  0  0.143545  0.119102  0  0.997089  0
H  H25  1  0.46551437  0.22764870  0.70952865  1  0.173247  0  0.14355  0.119094  0  0.997084  0
H  H26  1  0.75691103  0.07875650  0.42484052  1  0.115901  0  0.115339  0.133839  0  0.989353  0
H  H27  1  0.74309048  0.57515979  0.92124228  1  0.115888  0  0.115338  0.133828  0  0.989387  0
H  H28  1  0.24309087  0.92124240  0.57515947  1  0.115843  0  0.11533  0.133819  0  0.989346  0
H  H29  1  0.25690957  0.42484088  0.07875855  1  0.115845  0  0.115328  0.133785  0  0.989359  0
H  H30  1  0.73482654  0.38579592  0.31784782  1  0.110744  0  0.119361  0.116159  0  1.014146  0
H  H31  1  0.76517063  0.68215160  0.61420297  1  0.110722  0  0.119357  0.116183  0  1.01414  0
H  H32  1  0.26517190  0.61420298  0.68215204  1  0.110745  0  0.119361  0.116164  0  1.014163  0
H  H33  1  0.23482644  0.31784818  0.38579758  1  0.11072  0  0.119342  0.116139  0  1.014139  0
H  H34  1  0.86571679  0.81112875  0.52237670  1  0.128346  0  0.125549  0.127982  0  1.016043  0
H  H35  1  0.63428257  0.47762214  0.18887097  1  0.128332  0  0.125551  0.127963  0  1.01604  0
H  H36  1  0.13428326  0.18887192  0.47762258  1  0.128351  0  0.125522  0.127956  0  1.016064  0
H  H37  1  0.36571760  0.52237676  0.81112857  1  0.128361  0  0.125543  0.127984  0  1.016063  0
H  H38  1  0.93475372  0.03374305  0.17521236  1  0.089911  0  0.1106  0.118239  0  0.990033  0
H  H39  1  0.56524532  0.82478599  0.96625703  1  0.089915  0  0.110609  0.118251  0  0.990066  0
H  H40  1  0.06524558  0.96625584  0.82478695  1  0.08991  0  0.110592  0.118247  0  0.990038  0
H  H41  1  0.43475349  0.17521380  0.03374398  1  0.089937  0  0.110607  0.118269  0  0.990045  0
H  H42  1  0.98033462  0.87541376  0.21893972  1  0.136379  0  0.113052  0.13045  0  1.003897  0
H  H43  1  0.51966420  0.78105640  0.12458532  1  0.136317  0  0.112987  0.130372  0  1.003921  0
H  H44  1  0.01966468  0.12458513  0.78105805  1  0.136428  0  0.113019  0.13041  0  1.003901  0
H  H45  1  0.48033559  0.21894162  0.87541539  1  0.13643  0  0.113033  0.130445  0  1.003885  0
C  C46  1  0.91926359  0.66103764  0.44536495  1  0.439894  0  -0.002695  -0.033513  0  3.990189  0
C  C47  1  0.58073656  0.55463619  0.33896344  1  0.439909  0  -0.002687  -0.033479  0  3.990172  0
C  C48  1  0.08073733  0.33896303  0.55463688  1  0.439914  0  -0.00268  -0.033516  0  3.990223  0
C  C49  1  0.41926311  0.44536360  0.66103779  1  0.439911  0  -0.002675  -0.033439  0  3.990147  0
C  C50  1  0.94591181  0.70901975  0.30419963  1  0.986055  0  0.15271  0.125685  0  3.853597  0
C  C51  1  0.55408904  0.69580010  0.29098067  1  0.986131  0  0.152727  0.125728  0  3.853677  0
C  C52  1  0.05409047  0.29098004  0.69580150  1  0.986044  0  0.152694  0.125717  0  3.853541  0
C  C53  1  0.44590939  0.30419880  0.70901996  1  0.98608  0  0.152713  0.125771  0  3.853531  0
C  C54  1  0.74403530  0.21530001  0.31017948  1  0.218828  0  -0.001852  -0.105412  0  3.883354  0
C  C55  1  0.75596321  0.68981904  0.78469851  1  0.218858  0  -0.001902  -0.105474  0  3.883323  0
C  C56  1  0.25596525  0.78469977  0.68982043  1  0.218896  0  -0.00188  -0.1055  0  3.883263  0
C  C57  1  0.24403312  0.31017897  0.21530053  1  0.218596  0  -0.001945  -0.105574  0  3.883382  0
C  C58  1  0.82735217  0.38624150  0.00749290  1  1.586075  0  0.204754  0.471688  0  4.192414  0
C  C59  1  0.67264639  0.99250619  0.61375913  1  1.586082  0  0.204725  0.471611  0  4.19249  0
C  C60  1  0.17265894  0.61376896  0.99251847  1  1.585909  0  0.204613  0.471666  0  4.192196  0
C  C61  1  0.32734395  0.00748382  0.38623432  1  1.586111  0  0.204711  0.471727  0  4.192133  0
C  C62  1  0.84345076  0.06803244  0.29750547  1  0.281877  0  0.09147  0.150497  0  4.043196  0
C  C63  1  0.65654978  0.70249394  0.93196819  1  0.281847  0  0.091477  0.150536  0  4.043209  0
C  C64  1  0.15655015  0.93196823  0.70249404  1  0.281861  0  0.091485  0.150578  0  4.043117  0
C  C65  1  0.34345077  0.29750585  0.06803249  1  0.281872  0  0.091503  0.150601  0  4.04313  0
C  C66  1  0.92855624  0.33177171  0.01106480  1  1.600973  0  0.199037  0.467452  0  4.225436  0
C  C67  1  0.57144055  0.98893399  0.66822757  1  1.600447  0  0.19903  0.467325  0  4.225313  0
C  C68  1  0.07144864  0.66822810  0.98894164  1  1.600895  0  0.199109  0.467595  0  4.225085  0
C  C69  1  0.42855303  0.01105959  0.33177246  1  1.600926  0  0.199213  0.467735  0  4.225013  0
C  C70  1  0.90724681  0.24610776  0.25803388  1  0.982391  0  0.14651  0.103462  0  3.8983  0
C  C71  1  0.59275345  0.74196728  0.75389419  1  0.982373  0  0.146531  0.103458  0  3.898235  0
C  C72  1  0.09275275  0.75389380  0.74196633  1  0.982384  0  0.14653  0.103445  0  3.898162  0
C  C73  1  0.40724660  0.25803340  0.24610819  1  0.982625  0  0.146478  0.103399  0  3.898222  0
C  C74  1  0.88938618  0.88393146  0.34339737  1  0.256239  0  0.094494  0.161291  0  4.014518  0
C  C75  1  0.61061397  0.65660039  0.11606753  1  0.25635  0  0.094471  0.161313  0  4.014564  0
C  C76  1  0.11061436  0.11606832  0.65660177  1  0.256187  0  0.094476  0.161301  0  4.01447  0
C  C77  1  0.38938620  0.34339851  0.88393278  1  0.256333  0  0.094519  0.161363  0  4.014578  0
C  C78  1  0.74999958  0.34775231  0.65224721  1  1.584812  0  0.205534  0.465113  0  4.159774  0
C  C79  1  0.24999934  0.65224570  0.34775018  1  1.584699  0  0.205474  0.465006  0  4.159817  0
C  C80  1  0.80339967  0.03331609  0.37721001  1  0.022035  0  -0.082684  -0.132212  0  3.950741  0
C  C81  1  0.69660116  0.62279031  0.96668214  1  0.021961  0  -0.082742  -0.132281  0  3.950855  0
C  C82  1  0.19660050  0.96668280  0.62278875  1  0.022009  0  -0.082726  -0.132321  0  3.950768  0
C  C83  1  0.30340051  0.37721214  0.03331889  1  0.022026  0  -0.082701  -0.132203  0  3.950762  0
C  C84  1  0.92948784  0.91802085  0.26299788  1  0.019877  0  -0.082731  -0.14335  0  3.958469  0
C  C85  1  0.57051153  0.73699895  0.08197778  1  0.019921  0  -0.082636  -0.14327  0  3.958518  0
C  C86  1  0.07051470  0.08198159  0.73700106  1  0.019842  0  -0.082628  -0.143242  0  3.958549  0
C  C87  1  0.42948566  0.26299905  0.91801916  1  0.019862  0  -0.082683  -0.143346  0  3.958509  0
C  C88  1  0.75000051  0.42129899  0.57870152  1  1.582416  0  0.207477  0.478003  0  4.233654  0
C  C89  1  0.25000004  0.57870079  0.42129608  1  1.582409  0  0.207558  0.478176  0  4.233454  0
C  C90  1  0.90482073  0.00892111  0.23913917  1  -0.054219  0  -0.090814  -0.162122  0  4.002999  0
C  C91  1  0.59517942  0.76086022  0.99107890  1  -0.05406  0  -0.090862  -0.162191  0  4.003123  0
C  C92  1  0.09517932  0.99107955  0.76085934  1  -0.054073  0  -0.090874  -0.162256  0  4.003092  0
C  C93  1  0.40481977  0.23914045  0.00892094  1  -0.054196  0  -0.090858  -0.162261  0  4.003102  0
C  C94  1  0.82553138  0.94118319  0.39927983  1  -0.006544  0  -0.090589  -0.156421  0  3.98061  0
C  C95  1  0.67447038  0.60071870  0.05881489  1  -0.006442  0  -0.09055  -0.156366  0  3.980584  0
C  C96  1  0.17447052  0.05881571  0.60071938  1  -0.006478  0  -0.090559  -0.156338  0  3.980567  0
C  C97  1  0.32552930  0.39928109  0.94118557  1  -0.006521  0  -0.090591  -0.156441  0  3.980661  0
C  C98  1  0.89371933  0.76007119  0.45846740  1  0.258004  0  -0.001967  -0.106199  0  3.921086  0
C  C99  1  0.60628027  0.54153171  0.23992790  1  0.258299  0  -0.001976  -0.10619  0  3.921031  0
C  C100  1  0.10627997  0.23992771  0.54153268  1  0.258026  0  -0.00196  -0.106185  0  3.92107  0
C  C101  1  0.39372200  0.45846808  0.76007323  1  0.258171  0  -0.001971  -0.106254  0  3.921091  0
C  C102  1  0.77590360  0.32095800  0.30051776  1  0.430879  0  -0.003264  -0.026822  0  3.990723  0
C  C103  1  0.72409277  0.69948144  0.67904073  1  0.43092  0  -0.003164  -0.026781  0  3.990772  0
C  C104  1  0.22409484  0.67904090  0.69948210  1  0.430869  0  -0.003215  -0.026762  0  3.99067  0
C  C105  1  0.27590468  0.30051922  0.32095943  1  0.431194  0  -0.003166  -0.026709  0  3.990708  0
N  N106  1  0.95134183  0.63017933  0.34869304  1  -1.235102  0  -0.350094  -0.283161  0  3.538204  0
N  N107  1  0.54865935  0.65130737  0.36981986  1  -1.235138  0  -0.350122  -0.283206  0  3.538356  0
N  N108  1  0.04865996  0.36982135  0.65130824  1  -1.235058  0  -0.350069  -0.283144  0  3.538276  0
N  N109  1  0.45133995  0.34869153  0.63017868  1  -1.235066  0  -0.350109  -0.283264  0  3.538291  0
N  N110  1  0.87749898  0.33908738  0.26814713  1  -1.218418  0  -0.350522  -0.279656  0  3.573675  0
N  N111  1  0.62249896  0.73185269  0.66091348  1  -1.218395  0  -0.350597  -0.279711  0  3.573712  0
N  N112  1  0.12249983  0.66091241  0.73185311  1  -1.218364  0  -0.350603  -0.279759  0  3.573709  0
N  N113  1  0.37749936  0.26814799  0.33908844  1  -1.218645  0  -0.350524  -0.279674  0  3.573812  0
N  N114  1  0.82835595  0.16825541  0.28283141  1  -1.269325  0  -0.223827  0.009027  0  3.80236  0
N  N115  1  0.67164421  0.71716852  0.83174535  1  -1.269335  0  -0.223809  0.00908  0  3.802345  0
N  N116  1  0.17164621  0.83174615  0.71716870  1  -1.269386  0  -0.223812  0.009139  0  3.802273  0
N  N117  1  0.32835374  0.28283126  0.16825543  1  -1.269347  0  -0.223812  0.009119  0  3.802184  0
N  N118  1  0.91064453  0.78995491  0.36807901  1  -1.259154  0  -0.220262  0.010161  0  3.780184  0
N  N119  1  0.58935584  0.63191976  0.21004471  1  -1.259196  0  -0.220215  0.010177  0  3.780094  0
N  N120  1  0.08935602  0.21004488  0.63192013  1  -1.259176  0  -0.220207  0.010194  0  3.780014  0
N  N121  1  0.41064346  0.36807914  0.78995537  1  -1.259082  0  -0.220263  0.010195  0  3.780065  0
O  O122  1  0.91439213  0.25468671  0.91343221  1  -1.166068  0  -0.319538  -0.520052  0  2.281213  0
O  O123  1  0.58560603  0.08656856  0.74531375  1  -1.166077  0  -0.319509  -0.519988  0  2.281024  0
O  O124  1  0.08560518  0.74530953  0.08656652  1  -1.166076  0  -0.319472  -0.520027  0  2.281293  0
O  O125  1  0.41439515  0.91343477  0.25468975  1  -1.166098  0  -0.319571  -0.520127  0  2.281255  0
O  O126  1  0.73513256  0.34790407  0.90912327  1  -1.158918  0  -0.308442  -0.497863  0  2.312465  0
O  O127  1  0.76486668  0.09087703  0.65209660  1  -1.158875  0  -0.30842  -0.497817  0  2.312423  0
O  O128  1  0.26487136  0.65210370  0.09088000  1  -1.158913  0  -0.308349  -0.497758  0  2.312822  0
O  O129  1  0.23513003  0.90912186  0.34790049  1  -1.159069  0  -0.308394  -0.49779  0  2.312673  0
O  O130  1  0.84378281  0.46539031  0.10382791  1  -1.174925  0  -0.299194  -0.493463  0  2.369556  0
O  O131  1  0.65621602  0.89617192  0.53461043  1  -1.174902  0  -0.299172  -0.493405  0  2.369534  0
O  O132  1  0.15623638  0.53462277  0.89616940  1  -1.174804  0  -0.299121  -0.493535  0  2.36886  0
O  O133  1  0.34376956  0.10383136  0.46538284  1  -1.174859  0  -0.299166  -0.49356  0  2.368945  0
O  O134  1  0.01636795  0.36827204  0.11098745  1  -1.172632  0  -0.299508  -0.498709  0  2.327754  0
O  O135  1  0.48362948  0.88901321  0.63172807  1  -1.17215  0  -0.299539  -0.498637  0  2.32768  0
O  O136  1  0.98362785  0.63172066  0.88901365  1  -1.172535  0  -0.299658  -0.49889  0  2.327349  0
O  O137  1  0.51637317  0.11098748  0.36827961  1  -1.172566  0  -0.299665  -0.498922  0  2.327362  0
O  O138  1  0.85469683  0.50218788  0.60538516  1  -1.164671  0  -0.301802  -0.506087  0  2.318153  0
O  O139  1  0.64530301  0.39461475  0.49781096  1  -1.164645  0  -0.301818  -0.506116  0  2.318065  0
O  O140  1  0.14530322  0.49781280  0.39461490  1  -1.164646  0  -0.301853  -0.506219  0  2.318018  0
O  O141  1  0.35469629  0.60538413  0.50218449  1  -1.164624  0  -0.301862  -0.506168  0  2.318089  0
O  O142  1  0.85222941  0.37331298  0.73626290  1  -1.157023  0  -0.288804  -0.497265  0  2.396698  0
O  O143  1  0.64776867  0.26373651  0.62668564  1  -1.157052  0  -0.288837  -0.497279  0  2.396671  0
O  O144  1  0.14776975  0.62668148  0.26373190  1  -1.157005  0  -0.28879  -0.497245  0  2.396647  0
O  O145  1  0.35222841  0.73626326  0.37331183  1  -1.157036  0  -0.288804  -0.497252  0  2.396706  0
