# generated using pymatgen
data_PrH21(C9O2)3
_symmetry_space_group_name_H-M   'P 1'
_cell_length_a   7.77106079
_cell_length_b   13.32412279
_cell_length_c   13.36160000
_cell_angle_alpha   116.30240820
_cell_angle_beta   101.53251060
_cell_angle_gamma   101.03272093
_symmetry_Int_Tables_number   1
_chemical_formula_structural   PrH21(C9O2)3
_chemical_formula_sum   'Pr2 H42 C54 O12'
_cell_volume   1151.84238802
_cell_formula_units_Z   2
loop_
 _symmetry_equiv_pos_site_id
 _symmetry_equiv_pos_as_xyz
  1  'x, y, z'
loop_
 _atom_site_type_symbol
 _atom_site_label
 _atom_site_symmetry_multiplicity
 _atom_site_fract_x
 _atom_site_fract_y
 _atom_site_fract_z
 _atom_site_occupancy
 _atom_site_hle17_bader_spin_density
 _atom_site_hle17_ddec_charge
 _atom_site_hle17_ddec_spin_density
 _atom_site_hle17_ddec_sum_bond_order
 _atom_site_hle17_magmom
 _atom_site_hse06_10hf_bader_spin_density
 _atom_site_hse06_10hf_ddec_charge
 _atom_site_hse06_10hf_ddec_spin_density
 _atom_site_hse06_10hf_ddec_sum_bond_order
 _atom_site_hse06_10hf_magmom
 _atom_site_hse06_bader_spin_density
 _atom_site_hse06_ddec_charge
 _atom_site_hse06_ddec_spin_density
 _atom_site_hse06_ddec_sum_bond_order
 _atom_site_hse06_magmom
 _atom_site_pbe_bader_charge
 _atom_site_pbe_bader_spin_density
 _atom_site_pbe_cm5_charge
 _atom_site_pbe_ddec_charge
 _atom_site_pbe_ddec_spin_density
 _atom_site_pbe_ddec_sum_bond_order
 _atom_site_pbe_magmom
Pr  Pr0  1  0.49710138  0.99997052  0.99965873  1  0  2.236849  0  1.69637  0  0  2.071944  0  2.161586  0  0  2.117474  0  2.111135  0  2.223513  0  1.509294  2.035998  0  2.202087  0
Pr  Pr1  1  0.99710536  0.00001413  0.99966825  1  0  2.236827  0  1.697081  0  0  2.072136  0  2.161821  0  0  2.117708  0  2.111288  0  2.224843  0  1.509443  2.036038  0  2.202597  0
H  H2  1  0.56732852  0.17391375  0.35137908  1  0  0.116201  0  0.974279  0  0  0.124912  0  1.037795  0  0  0.12851  0  1.037544  0  0.109724  0  0.105909  0.122371  0  1.038154  0
H  H3  1  0.39222625  0.17635155  0.82611491  1  0  0.114651  0  0.972523  0  0  0.122931  0  1.036614  0  0  0.126427  0  1.036497  0  0.109555  0  0.105209  0.120433  0  1.036931  0
H  H4  1  0.89359955  0.82618396  0.17752632  1  0  0.11546  0  0.974546  0  0  0.12379  0  1.038469  0  0  0.12734  0  1.038302  0  0.089448  0  0.106048  0.121259  0  1.038811  0
H  H5  1  0.21644902  0.64913552  0.82298750  1  0  0.116165  0  0.975178  0  0  0.124548  0  1.038886  0  0  0.128083  0  1.038703  0  0.117472  0  0.10617  0.122041  0  1.039225  0
H  H6  1  0.06734006  0.35092510  0.17411505  1  0  0.116334  0  0.974424  0  0  0.124929  0  1.038149  0  0  0.128469  0  1.037958  0  0.107703  0  0.10628  0.122391  0  1.038507  0
H  H7  1  0.71565008  0.82342112  0.64969598  1  0  0.115733  0  0.973418  0  0  0.124145  0  1.036975  0  0  0.127671  0  1.036803  0  0.115237  0  0.106445  0.121623  0  1.037332  0
H  H8  1  0.23899145  0.03446831  0.38399925  1  0  0.098945  0  0.937403  0  0  0.110246  0  0.997335  0  0  0.112783  0  0.99599  0  0.099276  0  0.108193  0.108367  0  0.998389  0
H  H9  1  0.20535162  0.35064511  0.96502217  1  0  0.098719  0  0.937745  0  0  0.109962  0  0.997877  0  0  0.112515  0  0.996465  0  0.118744  0  0.107244  0.108103  0  0.998917  0
H  H10  1  0.70448150  0.96542890  0.34952889  1  0  0.09754  0  0.937268  0  0  0.108709  0  0.997513  0  0  0.111244  0  0.996185  0  0.118546  0  0.106425  0.106834  0  0.998555  0
H  H11  1  0.85353352  0.61491540  0.64931078  1  0  0.099058  0  0.937712  0  0  0.109939  0  0.99812  0  0  0.112487  0  0.996715  0  0.117834  0  0.107756  0.108057  0  0.999195  0
H  H12  1  0.73881012  0.38501449  0.03436794  1  0  0.098966  0  0.937831  0  0  0.110044  0  0.998129  0  0  0.112595  0  0.996712  0  0.103769  0  0.107838  0.108178  0  0.999162  0
H  H13  1  0.35437204  0.64923267  0.61439226  1  0  0.098086  0  0.937413  0  0  0.109091  0  0.997785  0  0  0.111645  0  0.996379  0  0.116805  0  0.107715  0.107212  0  0.998864  0
H  H14  1  0.72893562  0.25681382  0.54306954  1  0  0.085437  0  0.995382  0  0  0.094576  0  1.061615  0  0  0.096051  0  1.063406  0  0.081804  0  0.097072  0.093494  0  1.060462  0
H  H15  1  0.47163331  0.28563810  0.74317727  1  0  0.085313  0  0.996705  0  0  0.0947  0  1.06253  0  0  0.096216  0  1.0642  0  0.087718  0  0.096804  0.093589  0  1.061458  0
H  H16  1  0.97215418  0.74307986  0.28629731  1  0  0.086025  0  0.99588  0  0  0.095391  0  1.061706  0  0  0.096924  0  1.063339  0  0.093312  0  0.097237  0.094295  0  1.060579  0
H  H17  1  0.18619393  0.45703987  0.71433923  1  0  0.084527  0  0.997974  0  0  0.094019  0  1.063608  0  0  0.095485  0  1.0654  0  0.074024  0  0.096559  0.092942  0  1.062456  0
H  H18  1  0.22939394  0.54288914  0.25724904  1  0  0.085371  0  0.996653  0  0  0.094809  0  1.062494  0  0  0.096291  0  1.064207  0  0.079389  0  0.097301  0.093739  0  1.061332  0
H  H19  1  0.68571271  0.71436333  0.45763271  1  0  0.085236  0  0.996269  0  0  0.094528  0  1.062188  0  0  0.096027  0  1.063912  0  0.078553  0  0.096429  0.093436  0  1.061067  0
H  H20  1  0.92880102  0.29301509  0.73210145  1  0  0.087846  0  0.95771  0  0  0.099394  0  1.016078  0  0  0.101638  0  1.01632  0  0.076797  0  0.098953  0.09782  0  1.015925  0
H  H21  1  0.63440829  0.43850114  0.70754378  1  0  0.08601  0  0.956305  0  0  0.09796  0  1.014243  0  0  0.100276  0  1.014416  0  0.0649  0  0.097435  0.096338  0  1.01415  0
H  H22  1  0.13573332  0.70695632  0.43924264  1  0  0.087514  0  0.957344  0  0  0.099258  0  1.015586  0  0  0.101513  0  1.01579  0  0.052497  0  0.098806  0.097684  0  1.01544  0
H  H23  1  0.19704889  0.26843486  0.56183232  1  0  0.08773  0  0.957866  0  0  0.0995  0  1.016019  0  0  0.101744  0  1.016223  0  0.058468  0  0.098851  0.097927  0  1.01588  0
H  H24  1  0.42883056  0.73149591  0.29334803  1  0  0.088124  0  0.957445  0  0  0.099751  0  1.01576  0  0  0.101983  0  1.016028  0  0.065644  0  0.098626  0.098179  0  1.015601  0
H  H25  1  0.69578977  0.56166723  0.26915023  1  0  0.086854  0  0.956735  0  0  0.098767  0  1.014683  0  0  0.101019  0  1.014925  0  0.060699  0  0.097961  0.09718  0  1.014558  0
H  H26  1  0.82245881  0.17521568  0.82355550  1  0  0.106112  0  0.950376  0  0  0.114675  0  1.012272  0  0  0.117507  0  1.011665  0  0.084874  0  0.106777  0.112607  0  1.012822  0
H  H27  1  0.64610194  0.64829554  0.82553574  1  0  0.104967  0  0.950531  0  0  0.114184  0  1.011553  0  0  0.116963  0  1.010991  0  0.100476  0  0.10703  0.112168  0  1.012042  0
H  H28  1  0.14710931  0.82487673  0.64847360  1  0  0.105975  0  0.950659  0  0  0.114702  0  1.012302  0  0  0.117515  0  1.011718  0  0.097249  0  0.106949  0.112659  0  1.012808  0
H  H29  1  0.99861459  0.17694687  0.35192787  1  0  0.104813  0  0.949949  0  0  0.113918  0  1.011285  0  0  0.11676  0  1.010592  0  0.095655  0  0.106132  0.11185  0  1.011845  0
H  H30  1  0.32178906  0.82302807  0.17501171  1  0  0.105386  0  0.95002  0  0  0.114753  0  1.010951  0  0  0.117587  0  1.010284  0  0.08844  0  0.106974  0.112694  0  1.011498  0
H  H31  1  0.49784622  0.35179688  0.17719406  1  0  0.104669  0  0.95089  0  0  0.113607  0  1.012235  0  0  0.116361  0  1.011673  0  0.099433  0  0.106137  0.111577  0  1.012745  0
H  H32  1  0.51091234  0.02208943  0.72321735  1  0  0.094362  0  0.962638  0  0  0.105049  0  1.022434  0  0  0.10736  0  1.021844  0  0.058118  0  0.106052  0.103351  0  1.022982  0
H  H33  1  0.48903857  0.70165765  0.97846316  1  0  0.093827  0  0.963205  0  0  0.104457  0  1.022822  0  0  0.106852  0  1.022078  0  0.088031  0  0.10606  0.102732  0  1.02341  0
H  H34  1  0.98887319  0.97813370  0.70115792  1  0  0.094481  0  0.962604  0  0  0.104947  0  1.022626  0  0  0.107346  0  1.021886  0  0.0733  0  0.105963  0.103217  0  1.023207  0
H  H35  1  0.78678462  0.27699806  0.29827056  1  0  0.094242  0  0.963339  0  0  0.105191  0  1.022673  0  0  0.107518  0  1.022046  0  0.056917  0  0.106042  0.103436  0  1.023289  0
H  H36  1  0.00979912  0.72309877  0.02146120  1  0  0.094484  0  0.962584  0  0  0.105519  0  1.021835  0  0  0.107841  0  1.021249  0  0.052981  0  0.106266  0.103828  0  1.022359  0
H  H37  1  0.28744472  0.29828726  0.27669959  1  0  0.094937  0  0.963009  0  0  0.105557  0  1.022667  0  0  0.107896  0  1.022005  0  0.060032  0  0.106106  0.103827  0  1.023275  0
H  H38  1  0.30836760  0.98663949  0.53445564  1  0  0.087224  0  0.994316  0  0  0.096669  0  1.059633  0  0  0.098121  0  1.061774  0  0.11545  0  0.09584  0.095565  0  1.058257  0
H  H39  1  0.32266327  0.54828674  0.01313702  1  0  0.088307  0  0.993991  0  0  0.097732  0  1.059275  0  0  0.099165  0  1.061432  0  0.085251  0  0.096719  0.096667  0  1.057872  0
H  H40  1  0.82179288  0.01339728  0.54768686  1  0  0.08923  0  0.994285  0  0  0.098226  0  1.059941  0  0  0.099741  0  1.061975  0  0.078789  0  0.097032  0.097129  0  1.058547  0
H  H41  1  0.77318906  0.46527803  0.45133303  1  0  0.087739  0  0.996804  0  0  0.09627  0  1.062986  0  0  0.097764  0  1.065049  0  0.091111  0  0.09534  0.095183  0  1.061583  0
H  H42  1  0.80791654  0.53479937  0.98620909  1  0  0.086576  0  0.996489  0  0  0.095873  0  1.061928  0  0  0.09736  0  1.06401  0  0.098799  0  0.095792  0.094785  0  1.060523  0
H  H43  1  0.27422930  0.45150713  0.46474473  1  0  0.088201  0  0.993144  0  0  0.09742  0  1.058644  0  0  0.098858  0  1.060771  0  0.09005  0  0.096202  0.096345  0  1.057272  0
C  C44  1  0.28952298  0.08482381  0.22229986  1  0  0.705643  0  3.902679  0  0  0.665809  0  4.185911  0  0  0.702295  0  4.174471  0  1.479206  0  0.204845  0.641159  0  4.192454  0
C  C45  1  0.20415091  0.13778668  0.91504916  1  0  0.706855  0  3.898857  0  0  0.666054  0  4.183577  0  0  0.702532  0  4.172073  0  1.479941  0  0.205202  0.641422  0  4.190166  0
C  C46  1  0.70491782  0.91531454  0.13756856  1  0  0.704731  0  3.900465  0  0  0.664374  0  4.184529  0  0  0.700863  0  4.173089  0  1.480736  0  0.203903  0.639726  0  4.191091  0
C  C47  1  0.06658864  0.77726023  0.86215698  1  0  0.704141  0  3.902521  0  0  0.664177  0  4.185906  0  0  0.700639  0  4.174492  0  1.496184  0  0.203653  0.639553  0  4.192417  0
C  C48  1  0.78933851  0.22276859  0.08505395  1  0  0.706239  0  3.902079  0  0  0.665906  0  4.186086  0  0  0.702392  0  4.174661  0  1.475316  0  0.20486  0.641282  0  4.192627  0
C  C49  1  0.56621314  0.86217059  0.77722037  1  0  0.704244  0  3.90281  0  0  0.664351  0  4.186158  0  0  0.700818  0  4.174703  0  1.484062  0  0.203963  0.639725  0  4.192701  0
C  C50  1  0.42718314  0.12329151  0.33534669  1  0  -0.227344  0  3.659905  0  0  -0.242403  0  3.913117  0  0  -0.255392  0  3.929554  0  -0.047394  0  -0.094096  -0.233977  0  3.902171  0
C  C51  1  0.30319564  0.21181353  0.87653694  1  0  -0.224879  0  3.658404  0  0  -0.239124  0  3.912034  0  0  -0.252047  0  3.928548  0  0.025113  0  -0.091914  -0.230746  0  3.901071  0
C  C52  1  0.80403465  0.87678412  0.21210117  1  0  -0.225832  0  3.661064  0  0  -0.240174  0  3.914351  0  0  -0.253164  0  3.930853  0  0.046654  0  -0.093573  -0.231746  0  3.903392  0
C  C53  1  0.09149011  0.66455457  0.78785144  1  0  -0.227132  0  3.661218  0  0  -0.241417  0  3.913629  0  0  -0.254401  0  3.93016  0  -0.064683  0  -0.093589  -0.232995  0  3.902608  0
C  C54  1  0.92702126  0.33550957  0.12350397  1  0  -0.227058  0  3.660227  0  0  -0.241742  0  3.9134  0  0  -0.254738  0  3.92995  0  -0.032162  0  -0.094191  -0.233304  0  3.902416  0
C  C55  1  0.59118545  0.78806425  0.66473092  1  0  -0.226676  0  3.660868  0  0  -0.240847  0  3.913513  0  0  -0.253764  0  3.930022  0  -0.000453  0  -0.09343  -0.232458  0  3.902511  0
C  C56  1  0.38155558  0.09062417  0.41136475  1  0  -0.018441  0  3.694374  0  0  -0.041371  0  3.93726  0  0  -0.035282  0  3.953522  0  -0.053319  0  -0.062918  -0.045249  0  3.92622  0
C  C57  1  0.29110755  0.32099762  0.90902382  1  0  -0.018659  0  3.697676  0  0  -0.041805  0  3.940712  0  0  -0.03569  0  3.956943  0  -0.147624  0  -0.062452  -0.045715  0  3.929727  0
C  C58  1  0.79095184  0.90932250  0.32073278  1  0  -0.016803  0  3.694918  0  0  -0.039857  0  3.937604  0  0  -0.033746  0  3.953881  0  -0.141694  0  -0.061231  -0.043749  0  3.92656  0
C  C59  1  0.96945276  0.58814381  0.67876190  1  0  -0.018207  0  3.696214  0  0  -0.040843  0  3.938851  0  0  -0.034678  0  3.955074  0  -0.064125  0  -0.06223  -0.044768  0  3.927843  0
C  C60  1  0.88146235  0.41183024  0.09067098  1  0  -0.01942  0  3.696205  0  0  -0.042158  0  3.939192  0  0  -0.036036  0  3.955472  0  -0.064084  0  -0.063512  -0.046052  0  3.928176  0
C  C61  1  0.46983821  0.67888546  0.58802803  1  0  -0.016531  0  3.695981  0  0  -0.039548  0  3.93904  0  0  -0.033426  0  3.955271  0  -0.123603  0  -0.061658  -0.043462  0  3.928034  0
C  C62  1  0.50428384  0.11790628  0.52416769  1  0  0.057518  0  3.830199  0  0  0.08071  0  4.057373  0  0  0.078281  0  4.081176  0  -0.056636  0  -0.014818  0.082242  0  4.041163  0
C  C63  1  0.38657745  0.40620653  0.88194103  1  0  0.058126  0  3.82961  0  0  0.081576  0  4.056842  0  0  0.079151  0  4.080621  0  -0.076544  0  -0.014879  0.083106  0  4.040662  0
C  C64  1  0.88637232  0.88201478  0.40623387  1  0  0.056704  0  3.828719  0  0  0.0803  0  4.055707  0  0  0.077846  0  4.079536  0  -0.042097  0  -0.014929  0.081842  0  4.039507  0
C  C65  1  0.97985123  0.47568812  0.59356497  1  0  0.058977  0  3.832174  0  0  0.08193  0  4.059555  0  0  0.079466  0  4.083408  0  -0.07416  0  -0.015626  0.083482  0  4.043323  0
C  C66  1  0.00431935  0.52427180  0.11789686  1  0  0.059042  0  3.830266  0  0  0.082066  0  4.057588  0  0  0.079598  0  4.081461  0  -0.053582  0  -0.014191  0.083607  0  4.04137  0
C  C67  1  0.48013210  0.59369333  0.47571254  1  0  0.059289  0  3.832378  0  0  0.082268  0  4.060021  0  0  0.079838  0  4.08386  0  -0.077966  0  -0.015901  0.083801  0  4.043803  0
C  C68  1  0.68065195  0.20471566  0.58180786  1  0  -0.107042  0  3.717767  0  0  -0.124469  0  3.956971  0  0  -0.125912  0  3.978312  0  -0.065049  0  -0.08602  -0.123335  0  3.942485  0
C  C69  1  0.47557235  0.37672245  0.79537948  1  0  -0.108709  0  3.714514  0  0  -0.126528  0  3.954064  0  0  -0.12796  0  3.975431  0  -0.062667  0  -0.085831  -0.125403  0  3.939561  0
C  C70  1  0.97593062  0.79520540  0.37713211  1  0  -0.108763  0  3.715013  0  0  -0.126609  0  3.954475  0  0  -0.128033  0  3.975779  0  -0.06416  0  -0.086195  -0.125485  0  3.940023  0
C  C71  1  0.09898164  0.41833545  0.62325903  1  0  -0.106934  0  3.717914  0  0  -0.124541  0  3.957121  0  0  -0.125989  0  3.978524  0  -0.073687  0  -0.084949  -0.123402  0  3.942574  0
C  C72  1  0.18082091  0.58160063  0.20490052  1  0  -0.107986  0  3.717528  0  0  -0.125737  0  3.957043  0  0  -0.127172  0  3.978483  0  -0.06629  0  -0.086666  -0.124599  0  3.942501  0
C  C73  1  0.59863887  0.62329400  0.41871847  1  0  -0.108488  0  3.716884  0  0  -0.125974  0  3.956119  0  0  -0.127421  0  3.977475  0  -0.082515  0  -0.084957  -0.124839  0  3.941624  0
C  C74  1  0.79310066  0.22535213  0.68870383  1  0  -0.078249  0  3.780804  0  0  -0.088368  0  4.027513  0  0  -0.09132  0  4.049192  0  -0.047782  0  -0.09059  -0.08638  0  4.012735  0
C  C75  1  0.56688020  0.46301865  0.77504911  1  0  -0.074132  0  3.77707  0  0  -0.084426  0  4.023686  0  0  -0.087429  0  4.045294  0  -0.045095  0  -0.087885  -0.082414  0  4.008959  0
C  C76  1  0.06768210  0.77461928  0.46346046  1  0  -0.075911  0  3.778053  0  0  -0.086068  0  4.024878  0  0  -0.088997  0  4.046559  0  -0.058381  0  -0.090559  -0.084093  0  4.010099  0
C  C77  1  0.10451919  0.31165804  0.53714030  1  0  -0.078033  0  3.778985  0  0  -0.088226  0  4.02584  0  0  -0.091158  0  4.047481  0  -0.024983  0  -0.090071  -0.086243  0  4.011076  0
C  C78  1  0.29302040  0.68828863  0.22547406  1  0  -0.078788  0  3.778941  0  0  -0.08902  0  4.026045  0  0  -0.091991  0  4.047725  0  -0.030545  0  -0.090689  -0.087021  0  4.011259  0
C  C79  1  0.60377214  0.53708171  0.31211407  1  0  -0.075904  0  3.775937  0  0  -0.086093  0  4.022276  0  0  -0.08903  0  4.043867  0  -0.013714  0  -0.087874  -0.084126  0  4.007563  0
C  C80  1  0.73344030  0.15965442  0.74033004  1  0  -0.055833  0  3.711608  0  0  -0.071702  0  3.962172  0  0  -0.072745  0  3.982286  0  -0.031512  0  -0.08007  -0.070803  0  3.948429  0
C  C81  1  0.57310699  0.58062993  0.84084553  1  0  -0.055311  0  3.712189  0  0  -0.071938  0  3.963294  0  0  -0.072903  0  3.983289  0  -0.088357  0  -0.08244  -0.071094  0  3.949631  0
C  C82  1  0.07372959  0.84038588  0.58076182  1  0  -0.058513  0  3.711616  0  0  -0.074767  0  3.962745  0  0  -0.075811  0  3.982833  0  -0.060368  0  -0.082861  -0.073859  0  3.948994  0
C  C83  1  0.99290029  0.26002182  0.41947141  1  0  -0.054128  0  3.710724  0  0  -0.070726  0  3.961818  0  0  -0.071687  0  3.981808  0  -0.040053  0  -0.080972  -0.069865  0  3.948128  0
C  C84  1  0.23296568  0.73996460  0.15950027  1  0  -0.055319  0  3.711556  0  0  -0.071797  0  3.962311  0  0  -0.072784  0  3.982368  0  -0.031935  0  -0.080221  -0.070917  0  3.948586  0
C  C85  1  0.49245733  0.41941567  0.26022016  1  0  -0.052974  0  3.709899  0  0  -0.069323  0  3.960933  0  0  -0.070207  0  3.98091  0  -0.048939  0  -0.07994  -0.068511  0  3.947287  0
C  C86  1  0.55874939  0.07356490  0.68391919  1  0  -0.07296  0  3.773528  0  0  -0.085746  0  4.025508  0  0  -0.087968  0  4.046288  0  -0.05876  0  -0.091344  -0.084242  0  4.011359  0
C  C87  1  0.48529467  0.61064838  0.92680926  1  0  -0.070571  0  3.77387  0  0  -0.083027  0  4.025592  0  0  -0.085248  0  4.046261  0  -0.050439  0  -0.088321  -0.081531  0  4.011547  0
C  C88  1  0.98520670  0.92652751  0.61038502  1  0  -0.070475  0  3.771371  0  0  -0.082782  0  4.022748  0  0  -0.085029  0  4.043475  0  -0.054294  0  -0.088782  -0.081262  0  4.008666  0
C  C89  1  0.87431133  0.31622361  0.38927107  1  0  -0.07313  0  3.775839  0  0  -0.085915  0  4.027346  0  0  -0.088132  0  4.0481  0  -0.044765  0  -0.089559  -0.084392  0  4.013257  0
C  C90  1  0.05813153  0.68382199  0.07316899  1  0  -0.072805  0  3.774207  0  0  -0.085868  0  4.026107  0  0  -0.088115  0  4.046912  0  -0.059379  0  -0.090641  -0.084363  0  4.011966  0
C  C91  1  0.37461900  0.38930006  0.31611693  1  0  -0.073758  0  3.774622  0  0  -0.086372  0  4.026347  0  0  -0.088559  0  4.046999  0  -0.052609  0  -0.090069  -0.084892  0  4.01233  0
C  C92  1  0.44467169  0.05362885  0.57776150  1  0  -0.113654  0  3.727202  0  0  -0.131633  0  3.966196  0  0  -0.133629  0  3.988015  0  -0.083663  0  -0.087129  -0.130049  0  3.951292  0
C  C93  1  0.39157098  0.52441401  0.94637039  1  0  -0.115782  0  3.729664  0  0  -0.134034  0  3.968787  0  0  -0.136027  0  3.990638  0  -0.030769  0  -0.088246  -0.132492  0  3.953873  0
C  C94  1  0.89107679  0.94639290  0.52410597  1  0  -0.116262  0  3.728667  0  0  -0.134148  0  3.967822  0  0  -0.136178  0  3.989663  0  -0.048867  0  -0.088327  -0.132571  0  3.952916  0
C  C95  1  0.86640025  0.42212551  0.47535791  1  0  -0.115445  0  3.731195  0  0  -0.132696  0  3.970304  0  0  -0.134738  0  3.992219  0  -0.051414  0  -0.087591  -0.131109  0  3.955332  0
C  C96  1  0.94435926  0.57789800  0.05333699  1  0  -0.11393  0  3.728355  0  0  -0.1317  0  3.967539  0  0  -0.133746  0  3.989448  0  -0.070517  0  -0.087886  -0.130114  0  3.9526  0
C  C97  1  0.36700767  0.47546024  0.42189526  1  0  -0.115753  0  3.728672  0  0  -0.133554  0  3.967876  0  0  -0.135533  0  3.989728  0  -0.044571  0  -0.087699  -0.132014  0  3.952951  0
O  O98  1  0.34136511  0.10408151  0.14377044  1  0  -0.821954  0  2.029822  0  0  -0.760602  0  2.281024  0  0  -0.785128  0  2.267914  0  -1.216733  0  -0.437553  -0.742572  0  2.289233  0
O  O99  1  0.23626840  0.03938188  0.89555021  1  0  -0.824975  0  2.031485  0  0  -0.762857  0  2.282949  0  0  -0.787419  0  2.269926  0  -1.210619  0  -0.44151  -0.744836  0  2.291105  0
O  O100  1  0.73740048  0.89596586  0.03973674  1  0  -0.822988  0  2.02838  0  0  -0.761506  0  2.279655  0  0  -0.785888  0  2.266315  0  -1.214307  0  -0.439845  -0.743595  0  2.288032  0
O  O101  1  0.19798422  0.85616354  0.96018843  1  0  -0.822204  0  2.031107  0  0  -0.760693  0  2.282331  0  0  -0.78519  0  2.269226  0  -1.232944  0  -0.439064  -0.742691  0  2.290529  0
O  O102  1  0.84182129  0.14381846  0.10407142  1  0  -0.82258  0  2.031901  0  0  -0.760673  0  2.283114  0  0  -0.785181  0  2.26987  0  -1.217875  0  -0.438878  -0.74254  0  2.291105  0
O  O103  1  0.69674856  0.96060366  0.85609678  1  0  -0.823148  0  2.032638  0  0  -0.761498  0  2.283679  0  0  -0.785988  0  2.270467  0  -1.220629  0  -0.439467  -0.743501  0  2.29193  0
O  O104  1  0.11886794  0.03402668  0.20017442  1  0  -0.689216  0  1.976591  0  0  -0.636264  0  2.215914  0  0  -0.661082  0  2.207471  0  -1.182556  0  -0.382808  -0.618771  0  2.221246  0
O  O105  1  0.08526566  0.16726016  0.96604080  1  0  -0.688058  0  1.972003  0  0  -0.63517  0  2.211763  0  0  -0.659853  0  2.203174  0  -1.18755  0  -0.378825  -0.617743  0  2.217113  0
O  O106  1  0.58525795  0.96626711  0.16633755  1  0  -0.687189  0  1.973418  0  0  -0.634328  0  2.213079  0  0  -0.65913  0  2.204642  0  -1.187123  0  -0.380011  -0.616865  0  2.218419  0
O  O107  1  0.91728287  0.79890008  0.83318731  1  0  -0.689209  0  1.974515  0  0  -0.636523  0  2.214111  0  0  -0.661224  0  2.205507  0  -1.183064  0  -0.382042  -0.619104  0  2.21955  0
O  O108  1  0.61839525  0.20119498  0.03452240  1  0  -0.690023  0  1.975183  0  0  -0.637142  0  2.215057  0  0  -0.661873  0  2.206459  0  -1.184896  0  -0.381145  -0.619681  0  2.220382  0
O  O109  1  0.41781963  0.83278720  0.79875088  1  0  -0.688491  0  1.973233  0  0  -0.635919  0  2.212595  0  0  -0.660576  0  2.204001  0  -1.183938  0  -0.381174  -0.618552  0  2.218034  0
