# generated using pymatgen
data_NiH22C26SN6O7
_symmetry_space_group_name_H-M   'P 1'
_cell_length_a   9.91234518
_cell_length_b   10.86094387
_cell_length_c   13.04052836
_cell_angle_alpha   72.00791100
_cell_angle_beta   87.05473045
_cell_angle_gamma   77.14371062
_symmetry_Int_Tables_number   1
_chemical_formula_structural   NiH22C26SN6O7
_chemical_formula_sum   'Ni2 H44 C52 S2 N12 O14'
_cell_volume   1301.55626766
_cell_formula_units_Z   2
loop_
 _symmetry_equiv_pos_site_id
 _symmetry_equiv_pos_as_xyz
  1  'x, y, z'
loop_
 _atom_site_type_symbol
 _atom_site_label
 _atom_site_symmetry_multiplicity
 _atom_site_fract_x
 _atom_site_fract_y
 _atom_site_fract_z
 _atom_site_occupancy
 _atom_site_hle17_ddec_charge
 _atom_site_hle17_ddec_spin_density
 _atom_site_hle17_ddec_sum_bond_order
 _atom_site_hle17_magmom
 _atom_site_hse06_10hf_ddec_charge
 _atom_site_hse06_10hf_ddec_spin_density
 _atom_site_hse06_10hf_ddec_sum_bond_order
 _atom_site_hse06_10hf_magmom
 _atom_site_hse06_ddec_charge
 _atom_site_hse06_ddec_spin_density
 _atom_site_hse06_ddec_sum_bond_order
 _atom_site_hse06_magmom
 _atom_site_pbe_cm5_charge
 _atom_site_pbe_ddec_charge
 _atom_site_pbe_ddec_spin_density
 _atom_site_pbe_ddec_sum_bond_order
 _atom_site_pbe_magmom
Ni  Ni0  1  0.05778693  0.07580494  0.68193375  1  0.662075  -0.006223  2.181367  -0.006  0.660903  -0.003154  2.614492  -0.004  0.790902  -0.002976  2.506154  -0.004  0.596709  0.574286  -0.005087  2.690214  -0.002
Ni  Ni1  1  0.94221630  0.92419433  0.31806978  1  0.662006  -0.006224  2.181367  -0.006  0.660917  -0.003154  2.614477  -0.004  0.790824  -0.002976  2.506147  -0.004  0.596666  0.574194  0.005459  2.690227  0.002
H  H2  1  0.69764772  0.31686325  0.58566081  1  0.105686  -1e-05  0.951858  0.0  0.117756  -2.1e-05  1.008539  0.0  0.119933  -2.2e-05  1.00808  0.0  0.102245  0.116191  -2e-05  1.008929  0.0
H  H3  1  0.30235133  0.68313693  0.41433725  1  0.105659  -1.1e-05  0.951872  0.0  0.117761  -2.1e-05  1.008516  0.0  0.119912  -2.2e-05  1.00809  0.0  0.102228  0.116174  2.4e-05  1.008913  0.0
H  H4  1  0.16921200  0.66511360  0.64698190  1  0.116581  -3.6e-05  0.959385  0.0  0.125918  -5.5e-05  1.021246  0.0  0.129152  -5.6e-05  1.018454  0.0  0.110387  0.123456  -5.3e-05  1.023556  0.0
H  H5  1  0.83078728  0.33488559  0.35301641  1  0.116539  -3.9e-05  0.959378  0.0  0.12591  -5.5e-05  1.021214  0.0  0.129143  -5.6e-05  1.018424  0.0  0.110377  0.123452  5.5e-05  1.023513  0.0
H  H6  1  0.28091814  0.42691243  0.68191940  1  0.098062  1.7e-05  0.956718  0.0  0.104183  2.2e-05  1.025314  0.0  0.106871  2e-05  1.024772  0.0  0.103972  0.102334  1.5e-05  1.025592  0.0
H  H7  1  0.71907529  0.57308574  0.31808089  1  0.09808  1.3e-05  0.956643  0.0  0.104216  2.2e-05  1.025232  0.0  0.106902  2e-05  1.02469  0.0  0.103963  0.102367  -1.4e-05  1.025499  0.0
H  H8  1  0.53977095  0.44616570  0.92943213  1  0.094194  -9e-06  0.973292  0.0  0.104168  -2e-06  1.036999  0.0  0.106774  -3e-06  1.03594  0.0  0.104095  0.102355  -6e-06  1.037869  0.0
H  H9  1  0.46023242  0.55383347  0.07056298  1  0.094321  -8e-06  0.973316  0.0  0.104293  -2e-06  1.037  0.0  0.10689  -2e-06  1.035965  0.0  0.10414  0.102478  5e-06  1.037862  0.0
H  H10  1  0.43030896  0.68686704  0.89158440  1  0.093175  -2e-06  0.991389  0.0  0.102388  -4e-06  1.055895  0.0  0.105397  -4e-06  1.054075  0.0  0.102354  0.100074  9e-06  1.057477  0.0
H  H11  1  0.56969720  0.31313314  0.10841037  1  0.093157  -0.0  0.99138  0.0  0.102345  -4e-06  1.055907  0.0  0.105357  -4e-06  1.054087  0.0  0.102351  0.10004  -7e-06  1.057489  0.0
H  H12  1  0.23611732  0.17200562  0.85121190  1  0.102158  -9.7e-05  0.947459  0.0  0.106821  -0.000271  1.017315  0.0  0.10943  -0.00028  1.015406  0.0  0.10536  0.104536  -0.00019  1.019579  0.0
H  H13  1  0.76387738  0.82798669  0.14879679  1  0.102217  -9.6e-05  0.947353  0.0  0.106888  -0.000271  1.017211  0.0  0.109497  -0.00028  1.015303  0.0  0.105348  0.104582  0.000201  1.019475  0.0
H  H14  1  0.10265546  0.07644032  0.01287018  1  0.102936  6e-05  0.93988  0.0  0.113641  5.3e-05  0.99829  0.0  0.117162  4.6e-05  0.995978  0.0  0.107876  0.111256  -7e-05  0.999719  0.0
H  H15  1  0.89734542  0.92355111  0.98714469  1  0.102931  6.3e-05  0.93986  0.0  0.113604  5.3e-05  0.998306  0.0  0.117128  4.6e-05  0.995991  0.0  0.107862  0.111214  7.7e-05  0.999749  0.0
H  H16  1  0.42574343  0.07382232  0.22147860  1  0.110057  -8e-06  0.941363  0.0  0.116141  -1.3e-05  1.006252  0.0  0.120153  -7e-06  1.003158  0.0  0.107553  0.113217  9e-06  1.008741  0.0
H  H17  1  0.57427297  0.92618102  0.77852499  1  0.110077  -9e-06  0.94133  0.0  0.116165  -1.3e-05  1.006171  0.0  0.12015  -8e-06  1.003109  0.0  0.107539  0.113222  1.3e-05  1.008653  0.0
H  H18  1  0.56601123  0.15886060  0.06177052  1  0.118909  -1.6e-05  0.984009  0.0  0.1251  -2.2e-05  1.048786  0.0  0.129079  -1.7e-05  1.045611  0.0  0.106115  0.122225  3e-06  1.051065  0.0
H  H19  1  0.43399444  0.84114158  0.93822527  1  0.118881  -1.5e-05  0.98408  0.0  0.125121  -2.2e-05  1.048805  0.0  0.129103  -1.7e-05  1.045607  0.0  0.106124  0.122245  -2e-06  1.05109  0.0
H  H20  1  0.36755411  0.10089953  0.67993078  1  0.136445  9.5e-05  0.949217  0.0  0.142255  0.000203  1.016247  0.0  0.144938  0.000239  1.012272  0.0  0.149529  0.140014  0.000134  1.019668  0.0
H  H21  1  0.63244738  0.89909870  0.32007001  1  0.136438  9.4e-05  0.949226  0.0  0.142221  0.000202  1.016296  0.0  0.144903  0.000239  1.012323  0.0  0.149515  0.139976  -0.000112  1.019712  0.0
H  H22  1  0.08365529  0.19786263  0.42280895  1  0.117138  3.9e-05  0.927597  0.0  0.125776  0.000174  0.986613  0.0  0.127235  0.000196  0.984596  0.0  0.143923  0.124685  0.000119  0.987984  0.0
H  H23  1  0.91634079  0.80214554  0.57719323  1  0.117101  4.5e-05  0.927639  0.0  0.125769  0.000174  0.986625  0.0  0.12723  0.000197  0.984604  0.0  0.143919  0.124684  -0.000115  0.987988  0.0
H  H24  1  0.55454613  0.21751739  0.41930174  1  0.095639  3e-05  0.915669  0.0  0.109578  4.6e-05  0.978422  0.0  0.110369  4.2e-05  0.977899  0.0  0.117537  0.109296  1.7e-05  0.977947  0.0
H  H25  1  0.44545022  0.78248574  0.58069485  1  0.09562  2.9e-05  0.915603  0.0  0.109556  4.7e-05  0.978388  0.0  0.11033  4.2e-05  0.977881  0.0  0.117513  0.109295  -2.1e-05  0.977898  0.0
H  H26  1  0.58175599  0.15864079  0.56162328  1  0.115224  1.2e-05  0.923697  0.0  0.12766  3.7e-05  0.987019  0.0  0.129349  2.7e-05  0.985407  0.0  0.124422  0.126509  2.1e-05  0.987619  0.0
H  H27  1  0.41824361  0.84136137  0.43837347  1  0.11519  1.3e-05  0.923729  0.0  0.127704  3.6e-05  0.98695  0.0  0.129394  2.8e-05  0.985332  0.0  0.124458  0.126571  -4.1e-05  0.987548  0.0
H  H28  1  0.30964648  0.45505759  0.41012570  1  0.086081  3e-06  0.988862  0.0  0.091242  3e-06  1.061446  0.0  0.09381  4e-06  1.061192  0.0  0.093001  0.089529  1.7e-05  1.06146  0.0
H  H29  1  0.69035031  0.54494357  0.58987294  1  0.086123  4e-06  0.988887  0.0  0.091269  3e-06  1.061479  0.0  0.093834  4e-06  1.061232  0.0  0.093006  0.089547  1.8e-05  1.061496  0.0
H  H30  1  0.87898889  0.20974730  0.84162222  1  0.136385  -6e-05  0.929542  0.0  0.144703  -0.000101  0.989081  0.0  0.148172  -0.00012  0.984737  0.0  0.152923  0.141922  -5.3e-05  0.992471  0.0
H  H31  1  0.12101116  0.79025288  0.15837657  1  0.136369  -6.1e-05  0.929552  0.0  0.144689  -0.000101  0.989088  0.0  0.148157  -0.00012  0.984746  0.0  0.152929  0.141921  6.7e-05  0.992478  0.0
H  H32  1  0.07560080  0.38293687  0.55603934  1  0.099612  -3.2e-05  0.940653  0.0  0.107022  -6.4e-05  1.002606  0.0  0.108481  -7e-05  1.001321  0.0  0.139723  0.105864  -4.8e-05  1.003684  0.0
H  H33  1  0.92440049  0.61706233  0.44395967  1  0.099625  -3.1e-05  0.94063  0.0  0.107029  -6.4e-05  1.00258  0.0  0.108489  -6.9e-05  1.001294  0.0  0.139731  0.105861  5.2e-05  1.003658  0.0
H  H34  1  0.74555882  0.43210206  0.86689271  1  0.093767  0.0  0.945022  0.0  0.106935  -2e-06  1.01107  0.0  0.107929  -0.0  1.010436  0.0  0.116729  0.106004  -1e-06  1.01182  0.0
H  H35  1  0.25443830  0.56790208  0.13310437  1  0.093797  8e-06  0.944908  0.0  0.106947  -3e-06  1.010993  0.0  0.107948  1e-06  1.010353  0.0  0.116725  0.106019  -1e-06  1.011745  0.0
H  H36  1  0.78057306  0.58261193  0.77772946  1  0.108987  -1.6e-05  0.911587  0.0  0.119503  -2.6e-05  0.978651  0.0  0.121616  -2.6e-05  0.976354  0.0  0.123937  0.117772  -3.2e-05  0.980593  0.0
H  H37  1  0.21942655  0.41739022  0.22226729  1  0.108969  -1.5e-05  0.911563  0.0  0.119501  -2.6e-05  0.978627  0.0  0.121607  -2.6e-05  0.976333  0.0  0.123908  0.117755  2.9e-05  0.980587  0.0
H  H38  1  0.89548517  0.30392782  0.03117410  1  0.098067  2e-06  0.941344  0.0  0.110999  -1e-06  0.998343  0.0  0.113124  -0.0  0.998261  0.0  0.104127  0.109361  1.1e-05  0.998526  0.0
H  H39  1  0.10451094  0.69607631  0.96882300  1  0.098037  -1e-06  0.941373  0.0  0.110969  -1e-06  0.99838  0.0  0.113096  -1e-06  0.998297  0.0  0.104121  0.109344  -6e-06  0.998557  0.0
H  H40  1  0.95927449  0.68196644  0.82611574  1  0.102524  -2e-06  0.93848  0.0  0.115246  -6e-06  0.994472  0.0  0.117776  -6e-06  0.993941  0.0  0.105853  0.113166  -3e-06  0.995481  0.0
H  H41  1  0.04072232  0.31803470  0.17388136  1  0.10253  -0.0  0.938481  0.0  0.11523  -6e-06  0.994496  0.0  0.117758  -6e-06  0.993969  0.0  0.105882  0.113158  -1e-06  0.995517  0.0
H  H42  1  0.87270340  0.12582133  0.44718378  1  0.399386  2.7e-05  0.913624  0.0  0.374312  4.7e-05  0.971072  0.0  0.386761  5.6e-05  0.952943  0.0  0.277133  0.365408  1.7e-05  0.983926  0.0
H  H43  1  0.12729051  0.87417888  0.55281979  1  0.399621  2.8e-05  0.913321  0.0  0.374455  4.7e-05  0.970917  0.0  0.386917  5.6e-05  0.952775  0.0  0.277156  0.365549  -1.9e-05  0.983756  0.0
H  H44  1  0.83700173  0.09623082  0.57127259  1  0.398162  5.3e-05  0.922669  0.0  0.364944  0.000135  0.993549  0.0  0.375554  0.000136  0.977808  0.0  0.269715  0.357366  9.1e-05  1.004782  0.0
H  H45  1  0.16299884  0.90376248  0.42873336  1  0.398145  5.3e-05  0.922673  0.0  0.364962  0.000135  0.993493  0.0  0.375573  0.000136  0.977749  0.0  0.269708  0.357369  -8.2e-05  1.004742  0.0
C  C46  1  0.61063242  0.39720401  0.54847020  1  -0.099732  6.5e-05  3.736426  0.0  -0.11795  4.6e-05  3.981694  0.0  -0.120457  4e-05  4.003545  0.0  -0.091686  -0.116074  4.4e-05  3.96673  0.0
C  C47  1  0.38936515  0.60279814  0.45152738  1  -0.099667  6.6e-05  3.736371  0.0  -0.117896  4.7e-05  3.981657  0.0  -0.120382  3.5e-05  4.003518  0.0  -0.091663  -0.116021  -8e-06  3.966729  0.0
C  C48  1  0.23088155  0.83529659  0.75385951  1  0.609619  -0.000387  3.894514  0.0  0.56509  -0.000944  4.196962  0.0  0.602854  -0.000988  4.193706  0.0  0.204182  0.538977  -0.000617  4.198191  0.0
C  C49  1  0.76911739  0.16469963  0.24614112  1  0.609671  -0.000385  3.894575  0.0  0.565109  -0.000943  4.197069  0.0  0.602869  -0.000986  4.193815  0.0  0.204235  0.53901  0.000701  4.198324  0.0
C  C50  1  0.29160685  0.69068020  0.76897330  1  -0.050502  0.000625  3.728395  0.001  -0.027885  0.000743  3.958364  0.001  -0.033891  0.000609  3.978198  0.001  -0.009277  -0.024217  0.000659  3.945587  0.001
C  C51  1  0.70839169  0.30931796  0.23102300  1  -0.050538  0.000614  3.72837  0.001  -0.027901  0.000744  3.95834  0.001  -0.033907  0.000612  3.978177  0.001  -0.009262  -0.024219  -0.000625  3.945607  -0.001
C  C52  1  0.24851484  0.61758071  0.71001595  1  -0.056144  -0.000177  3.680141  0.0  -0.082299  -0.000204  3.931342  0.0  -0.081761  -0.000222  3.949631  0.0  -0.073116  -0.082688  -0.000147  3.919449  0.0
C  C53  1  0.75148163  0.38241747  0.28998348  1  -0.056148  -0.000167  3.680097  0.0  -0.08233  -0.000204  3.931274  0.0  -0.081802  -0.000222  3.949587  0.0  -0.073113  -0.082707  0.000181  3.919363  0.0
C  C54  1  0.31101157  0.48375080  0.72913228  1  -0.051111  0.000131  3.724783  0.0  -0.076338  9.1e-05  3.977892  0.0  -0.077487  9.3e-05  3.999671  0.0  -0.076015  -0.075335  6.9e-05  3.962816  0.0
C  C55  1  0.68898615  0.51624639  0.27086660  1  -0.051114  0.00014  3.724681  0.0  -0.076356  9e-05  3.977829  0.0  -0.077506  9.3e-05  3.99961  0.0  -0.076013  -0.07535  1.2e-05  3.962716  0.0
C  C56  1  0.41536003  0.42397548  0.80781242  1  -0.103086  -8.1e-05  3.755606  0.0  -0.080101  -3.4e-05  4.00204  0.0  -0.085497  -3.7e-05  4.025054  0.0  -0.019476  -0.076393  -4.8e-05  3.986412  0.0
C  C57  1  0.58463220  0.57602365  0.19218535  1  -0.103132  -7.6e-05  3.755563  0.0  -0.080181  -3.5e-05  4.002077  0.0  -0.085577  -3.6e-05  4.025089  0.0  -0.019537  -0.076471  1.2e-05  3.986423  0.0
C  C58  1  0.45850178  0.49508320  0.86803230  1  -0.080483  4.2e-05  3.772845  0.0  -0.101336  -2.6e-05  4.01788  0.0  -0.102807  -1.8e-05  4.039605  0.0  -0.087512  -0.100382  -6.6e-05  4.003505  0.0
C  C59  1  0.54149846  0.50491199  0.13196472  1  -0.080742  2.8e-05  3.772922  0.0  -0.101582  -2.6e-05  4.018002  0.0  -0.103059  -1.8e-05  4.039727  0.0  -0.087532  -0.100627  8.9e-05  4.003615  0.0
C  C60  1  0.39712352  0.62821328  0.84758130  1  -0.066097  -0.000308  3.734278  0.0  -0.087775  -0.00033  3.97583  0.0  -0.089086  -0.000318  3.996377  0.0  -0.082532  -0.086781  -0.000191  3.962141  0.0
C  C61  1  0.60287929  0.37178391  0.15241513  1  -0.065888  -0.000301  3.734215  0.0  -0.087533  -0.00033  3.97574  0.0  -0.088845  -0.00032  3.996286  0.0  -0.082472  -0.086532  0.000245  3.962074  0.0
C  C62  1  0.40534204  0.17648016  0.94813244  1  -0.109136  -7.6e-05  3.767835  0.0  -0.083914  -1.4e-05  4.01175  0.0  -0.090344  -2.8e-05  4.037035  0.0  -0.020552  -0.079574  4.8e-05  3.994358  0.0
C  C63  1  0.59465866  0.82351709  0.05186940  1  -0.109231  -7.9e-05  3.767879  0.0  -0.084046  -1.3e-05  4.011894  0.0  -0.090481  -2.3e-05  4.037182  0.0  -0.020584  -0.079676  -3.1e-05  3.994503  0.0
C  C64  1  0.27631153  0.15216984  0.93227708  1  -0.058625  -2.7e-05  3.725648  0.0  -0.08138  -0.000148  3.977983  0.0  -0.082946  -0.000138  4.000527  0.0  -0.079687  -0.07998  -9.6e-05  3.962401  0.0
C  C65  1  0.72368924  0.84782249  0.06773065  1  -0.058764  -2.2e-05  3.725723  0.0  -0.081526  -0.000148  3.978062  0.0  -0.083091  -0.000141  4.000608  0.0  -0.07979  -0.080157  0.000118  3.962513  0.0
C  C66  1  0.20227290  0.09874908  0.02227695  1  -0.052957  1e-05  3.704889  0.0  -0.077353  0.000117  3.954557  0.0  -0.077381  9.6e-05  3.973661  0.0  -0.075876  -0.077419  -4.3e-05  3.94144  0.0
C  C67  1  0.79772966  0.90124829  0.97773400  1  -0.053012  2e-06  3.704877  0.0  -0.077342  0.000118  3.954528  0.0  -0.077379  9.3e-05  3.97363  0.0  -0.075825  -0.077388  0.000171  3.941425  0.0
C  C68  1  0.25549041  0.07241861  0.12638451  1  -0.047196  0.000574  3.729832  0.0  -0.027244  0.000283  3.963466  0.0  -0.032672  0.000332  3.98248  0.0  -0.009438  -0.023391  -0.000107  3.950839  0.0
C  C69  1  0.74451451  0.92758173  0.87362406  1  -0.046696  0.00057  3.7297  0.0  -0.02685  0.000281  3.963365  0.0  -0.032255  0.000337  3.982331  0.0  -0.009338  -0.022997  0.000165  3.95071  0.0
C  C70  1  0.38520042  0.09666652  0.14014237  1  -0.05  6.1e-05  3.698534  0.0  -0.07487  0.000144  3.949712  0.0  -0.075675  0.000118  3.968886  0.0  -0.076529  -0.074418  -0.00013  3.936956  0.0
C  C71  1  0.61481163  0.90333382  0.85986214  1  -0.050217  7.2e-05  3.698696  0.0  -0.075002  0.000145  3.949865  0.0  -0.075792  0.000117  3.969054  0.0  -0.076615  -0.074571  0.000201  3.937084  0.0
C  C72  1  0.46188901  0.14717651  0.05085143  1  -0.081565  0.000149  3.744791  0.0  -0.104639  9.8e-05  3.994291  0.0  -0.106389  9.3e-05  4.015934  0.0  -0.086251  -0.102876  -7e-06  3.97934  0.0
C  C73  1  0.53811582  0.85282472  0.94914847  1  -0.081459  0.000142  3.744857  0.0  -0.104595  9.7e-05  3.994366  0.0  -0.106337  8.8e-05  4.016001  0.0  -0.0862  -0.102827  7.1e-05  3.979415  0.0
C  C74  1  0.17827729  0.01427906  0.22511658  1  0.630385  -0.000496  3.871098  -0.001  0.584222  0.000111  4.176002  -0.001  0.623161  3.8e-05  4.171285  -0.001  0.214664  0.557274  -6.2e-05  4.178166  0.001
C  C75  1  0.82173408  0.98571938  0.77489612  1  0.630042  -0.000493  3.87174  -0.001  0.583958  0.00011  4.176516  -0.001  0.622897  3.6e-05  4.1718  -0.001  0.214553  0.556995  0.000137  4.178664  -0.001
C  C76  1  0.31959839  0.13519622  0.60050921  1  0.160712  -0.000667  3.583545  -0.001  0.084227  -0.000127  3.848999  0.0  0.102105  -0.000308  3.861419  -0.001  0.164977  0.07242  0.000106  3.840539  0.0
C  C77  1  0.68040139  0.86480498  0.39949086  1  0.160706  -0.000659  3.583471  -0.001  0.084248  -0.000127  3.848947  0.0  0.102126  -0.00031  3.861362  -0.001  0.16496  0.072448  3.1e-05  3.840484  0.0
C  C78  1  0.17716421  0.18709511  0.46701583  1  0.20224  0.000219  3.666482  0.0  0.149909  0.000486  3.963239  0.0  0.164225  0.000399  3.977285  0.0  0.152899  0.140363  0.000467  3.953025  0.0
C  C79  1  0.82283487  0.81290908  0.53298424  1  0.202245  0.000207  3.666367  0.0  0.149884  0.000487  3.963132  0.0  0.1642  0.000395  3.977177  0.0  0.152909  0.140358  -0.000306  3.952889  0.0
C  C80  1  0.51322801  0.22963202  0.49626093  1  -0.055504  0.000154  3.618549  0.0  -0.132633  0.000213  3.864086  0.0  -0.128339  0.000206  3.872773  0.0  -0.038201  -0.134531  0.000179  3.856437  0.0
C  C81  1  0.48677003  0.77036815  0.50373716  1  -0.055461  0.000162  3.61843  0.0  -0.13264  0.000213  3.864025  0.0  -0.12833  0.000207  3.872711  0.0  -0.038157  -0.13452  -0.000156  3.856378  0.0
C  C82  1  0.50398915  0.37000021  0.49844244  1  0.074003  5.2e-05  3.739111  0.0  0.093079  3.9e-05  3.979934  0.0  0.092116  2.4e-05  4.005016  0.0  -0.012841  0.093442  0.000106  3.962922  0.0
C  C83  1  0.49600739  0.63000195  0.50155671  1  0.074059  5.8e-05  3.738909  0.0  0.093087  3.7e-05  3.979832  0.0  0.092125  2.9e-05  4.004902  0.0  -0.012815  0.093456  4.5e-05  3.962864  0.0
C  C84  1  0.39336943  0.47417463  0.44999530  1  -0.132266  9e-06  3.757692  0.0  -0.151594  3.4e-05  4.00755  0.0  -0.15485  2.5e-05  4.030443  0.0  -0.103623  -0.149264  -5e-06  3.991812  0.0
C  C85  1  0.60662713  0.52582752  0.55000308  1  -0.132341  5e-06  3.757631  0.0  -0.151642  3.5e-05  4.007506  0.0  -0.1549  2.1e-05  4.030409  0.0  -0.103657  -0.149309  -1.7e-05  3.991774  0.0
C  C86  1  0.92155867  0.27872976  0.77648078  1  0.172476  0.001042  3.573722  0.001  0.100435  -0.000134  3.834505  0.0  0.119438  0.000115  3.845698  0.0  0.171498  0.086989  -0.000156  3.828027  0.0
C  C87  1  0.07844013  0.72127141  0.22351778  1  0.172528  0.001045  3.573661  0.001  0.10049  -0.000135  3.834441  0.0  0.119495  0.000113  3.845627  0.0  0.17151  0.087039  0.00021  3.827963  0.0
C  C88  1  0.01988327  0.36962762  0.63100230  1  0.1868  0.000739  3.682395  0.0  0.14209  3e-06  3.965947  0.0  0.156305  0.000164  3.981311  0.0  0.149831  0.132201  -5.2e-05  3.956147  0.0
C  C89  1  0.98011600  0.63037158  0.36899678  1  0.186796  0.000737  3.682319  0.0  0.142096  3e-06  3.965908  0.0  0.156312  0.000163  3.981263  0.0  0.149814  0.132216  9.6e-05  3.956077  0.0
C  C90  1  0.82793360  0.48389198  0.83132497  1  -0.059982  -0.00016  3.620917  0.0  -0.138861  -0.000186  3.869389  0.0  -0.13462  -0.00019  3.877872  0.0  -0.039949  -0.141312  -0.000135  3.863812  0.0
C  C91  1  0.17206525  0.51610917  0.16867131  1  -0.060003  -0.000173  3.620883  0.0  -0.138954  -0.000185  3.869408  0.0  -0.134714  -0.000193  3.87789  0.0  -0.039944  -0.141402  0.000135  3.863831  0.0
C  C92  1  0.91763576  0.49203210  0.91841701  1  0.06249  -1.5e-05  3.753378  0.0  0.082158  -1.1e-05  3.994524  0.0  0.080325  -3e-06  4.020494  0.0  -0.014582  0.08368  2.2e-05  3.976443  0.0
C  C93  1  0.08236259  0.50797105  0.08158028  1  0.062639  -1.2e-05  3.753484  0.0  0.08239  -1.2e-05  3.994523  0.0  0.080565  -1e-06  4.020479  0.0  -0.014562  0.08391  -6.1e-05  3.976448  0.0
C  C94  1  0.94139830  0.39018113  0.01687373  1  -0.110557  -2.2e-05  3.74895  0.0  -0.131581  -1.9e-05  3.999955  0.0  -0.13482  -1.2e-05  4.024188  0.0  -0.089824  -0.129181  3.4e-05  3.983546  0.0
C  C95  1  0.05860004  0.60982203  0.98312433  1  -0.110579  -1.7e-05  3.748884  0.0  -0.131627  -1.8e-05  3.999888  0.0  -0.134866  -1.6e-05  4.024119  0.0  -0.089811  -0.129243  0.000135  3.983462  0.0
C  C96  1  0.97691444  0.60197865  0.90236909  1  -0.098879  -1.6e-05  3.740432  0.0  -0.118946  -1.6e-05  3.988154  0.0  -0.121663  -1.2e-05  4.011423  0.0  -0.087237  -0.117393  3e-06  3.972986  0.0
C  C97  1  0.02308164  0.39802549  0.09762954  1  -0.09897  -2.5e-05  3.740608  0.0  -0.119035  -1.5e-05  3.988295  0.0  -0.121754  -1.4e-05  4.011563  0.0  -0.087247  -0.117495  6.4e-05  3.973169  0.0
S  S98  1  0.49732841  0.25392398  0.83561963  1  1.074679  -7e-06  5.244269  0.0  1.00312  1e-06  5.731054  0.0  1.042685  -4e-06  5.718575  0.0  0.478437  0.975224  5e-06  5.740047  0.0
S  S99  1  0.50267183  0.74607525  0.16438170  1  1.074764  -7e-06  5.24419  0.0  1.003214  2e-06  5.730992  0.0  1.042782  -2e-06  5.718517  0.0  0.478443  0.975323  -2e-06  5.739994  0.0
N  N100  1  0.19071688  0.13159135  0.57683108  1  -0.339089  0.008723  3.361583  0.007  -0.297044  0.009159  3.684186  0.007  -0.342021  0.010505  3.703553  0.007  -0.353577  -0.266843  0.005979  3.670592  0.004
N  N101  1  0.80928366  0.86841086  0.42317023  1  -0.339031  0.00873  3.361498  0.007  -0.297008  0.009158  3.684116  0.007  -0.341963  0.010508  3.703457  0.007  -0.353531  -0.266779  -0.005939  3.670489  -0.004
N  N102  1  0.29029519  0.22556564  0.42283656  1  -0.268748  0.000949  2.841301  0.001  -0.27279  0.000696  3.111681  0.001  -0.280596  0.000666  3.12226  0.001  -0.219447  -0.266716  0.000596  3.10402  0.0
N  N103  1  0.70970187  0.77443853  0.57716357  1  -0.268685  0.000942  2.841125  0.001  -0.272705  0.000697  3.111507  0.001  -0.28051  0.000666  3.122089  0.001  -0.219419  -0.2666  -0.000448  3.103813  0.0
N  N104  1  0.37913211  0.19211266  0.50859474  1  0.055519  0.000501  3.550607  0.001  0.174773  0.000722  3.737653  0.001  0.164679  0.000799  3.760198  0.001  -0.128086  0.179944  0.000504  3.724074  0.001
N  N105  1  0.62086568  0.80788852  0.49140463  1  0.055452  0.000491  3.550612  0.001  0.174686  0.000722  3.737691  0.001  0.164585  0.000796  3.760247  0.001  -0.128086  0.179855  -0.00044  3.724119  -0.001
N  N106  1  0.99606135  0.24991847  0.69453305  1  -0.328081  -0.009725  3.329241  -0.008  -0.288689  -0.010719  3.650839  -0.007  -0.331886  -0.012101  3.664261  -0.008  -0.34884  -0.260822  -0.007308  3.644086  -0.005
N  N107  1  0.00393890  0.75008074  0.30546752  1  -0.328068  -0.009726  3.329204  -0.008  -0.288721  -0.010719  3.650851  -0.007  -0.331895  -0.012101  3.664242  -0.008  -0.348812  -0.260835  0.007349  3.644063  0.005
N  N108  1  0.96499941  0.46893807  0.66959856  1  -0.267318  -0.000985  2.837643  -0.001  -0.268031  -0.000774  3.102162  -0.001  -0.27643  -0.000745  3.11489  -0.001  -0.217016  -0.262115  -0.000615  3.094024  -0.001
N  N109  1  0.03499763  0.53106209  0.33039879  1  -0.267261  -0.000984  2.837597  -0.001  -0.26798  -0.000775  3.102098  -0.001  -0.276375  -0.000745  3.114825  -0.001  -0.216998  -0.262073  0.000639  3.093948  0.001
N  N110  1  0.90313360  0.40916933  0.76160956  1  0.05742  -0.00032  3.539402  0.0  0.175466  -0.000361  3.728585  0.0  0.166174  -0.000376  3.748619  0.0  -0.124395  0.180575  -0.000229  3.716761  0.0
N  N111  1  0.09686444  0.59083083  0.23838852  1  0.057306  -0.000324  3.539402  0.0  0.175406  -0.000361  3.72855  0.0  0.166099  -0.000375  3.748618  0.0  -0.124406  0.180546  0.000224  3.716723  0.0
O  O112  1  0.12742922  0.89163692  0.68452544  1  -0.559266  -0.012861  2.099282  -0.014  -0.524387  -0.012234  2.369409  -0.013  -0.580627  -0.012216  2.365099  -0.012  -0.296424  -0.483665  -0.00902  2.370236  -0.009
O  O113  1  0.87257036  0.10836525  0.31547284  1  -0.559221  -0.012862  2.099388  -0.014  -0.524391  -0.012236  2.369535  -0.013  -0.580606  -0.012221  2.365207  -0.012  -0.296406  -0.483629  0.009076  2.370369  0.009
O  O114  1  0.27914163  0.89421166  0.80657688  1  -0.578708  0.001655  1.926155  0.002  -0.544266  0.00161  2.155117  0.002  -0.570068  0.001448  2.144232  0.002  -0.304915  -0.526785  0.00115  2.163007  0.002
O  O115  1  0.72085771  0.10578261  0.19342732  1  -0.578799  0.001651  1.926181  0.002  -0.544323  0.00161  2.155141  0.002  -0.570119  0.001447  2.144259  0.002  -0.304912  -0.526769  -0.001184  2.162997  -0.002
O  O116  1  0.47083691  0.21125198  0.74512998  1  -0.587177  3e-06  2.01808  0.0  -0.542156  1.4e-05  2.276346  0.0  -0.563397  1.3e-05  2.268335  0.0  -0.301698  -0.526917  1.1e-05  2.281371  0.0
O  O117  1  0.52916426  0.78874327  0.25487160  1  -0.587143  1e-06  2.018057  0.0  -0.542124  1.3e-05  2.27635  0.0  -0.563352  1.5e-05  2.268312  0.0  -0.301696  -0.526919  7e-06  2.281415  0.0
O  O118  1  0.63887631  0.23907678  0.87008411  1  -0.590057  1.1e-05  1.949318  0.0  -0.547457  2e-06  2.195504  0.0  -0.567201  1e-05  2.18545  0.0  -0.313582  -0.533408  1.2e-05  2.20228  0.0
O  O119  1  0.36111842  0.76092440  0.12991688  1  -0.590115  9e-06  1.949199  0.0  -0.547495  3e-06  2.195369  0.0  -0.567237  7e-06  2.185308  0.0  -0.313583  -0.533444  9e-06  2.20215  0.0
O  O120  1  0.06268689  0.98748195  0.20492145  1  -0.550267  0.015966  2.105338  0.017  -0.526758  0.013113  2.393467  0.013  -0.581966  0.013267  2.38493  0.013  -0.303805  -0.487167  -0.008855  2.397963  -0.009
O  O121  1  0.93732473  0.01251548  0.79508998  1  -0.550212  0.015965  2.105788  0.017  -0.526714  0.013115  2.393854  0.013  -0.58195  0.01327  2.385339  0.013  -0.303747  -0.487138  0.008966  2.398329  0.009
O  O122  1  0.22793057  0.99551123  0.31639169  1  -0.588327  -0.000211  1.982192  0.0  -0.544702  -0.0  2.210734  0.0  -0.571585  -2.2e-05  2.20194  0.0  -0.299813  -0.525909  6.5e-05  2.216513  0.0
O  O123  1  0.77208875  0.00447927  0.68361978  1  -0.588306  -0.000214  1.982355  0.0  -0.544663  -1e-06  2.210824  0.0  -0.571549  -2.3e-05  2.20203  0.0  -0.299858  -0.525924  2.6e-05  2.216616  0.0
O  O124  1  0.87296422  0.15943485  0.50909395  1  -0.856665  0.001042  1.807292  0.001  -0.818761  0.001582  1.980215  0.001  -0.837515  0.001507  1.942835  0.001  -0.615948  -0.806396  0.001421  2.006402  0.001
O  O125  1  0.12702543  0.84056633  0.49090950  1  -0.856909  0.001043  1.807046  0.001  -0.818948  0.001584  1.979995  0.001  -0.83772  0.001509  1.942595  0.001  -0.615961  -0.806519  -0.001567  2.006238  -0.001
