# generated using pymatgen
data_AlH15(C11O2)3
_symmetry_space_group_name_H-M   'P 1'
_cell_length_a   3.98541969
_cell_length_b   20.44466698
_cell_length_c   20.46234525
_cell_angle_alpha   60.06071748
_cell_angle_beta   87.22685329
_cell_angle_gamma   87.09571613
_symmetry_Int_Tables_number   1
_chemical_formula_structural   AlH15(C11O2)3
_chemical_formula_sum   'Al1 H15 C33 O6'
_cell_volume   1442.42310024
_cell_formula_units_Z   1
loop_
 _symmetry_equiv_pos_site_id
 _symmetry_equiv_pos_as_xyz
  1  'x, y, z'
loop_
 _atom_site_type_symbol
 _atom_site_label
 _atom_site_symmetry_multiplicity
 _atom_site_fract_x
 _atom_site_fract_y
 _atom_site_fract_z
 _atom_site_occupancy
 _atom_site_pbe_bader_charge
 _atom_site_pbe_bader_spin_density
 _atom_site_pbe_cm5_charge
 _atom_site_pbe_ddec_charge
 _atom_site_pbe_ddec_spin_density
 _atom_site_pbe_ddec_sum_bond_order
 _atom_site_pbe_magmom
Al  Al0  1  0.03954500  0.49967142  0.49965798  1  2.505627  0  0.426792  1.595046  0  2.57531  0
H  H1  1  0.84065956  0.30945674  0.70679467  1  0.114342  0  0.109828  0.11436  0  0.986193  0
H  H2  1  0.81847834  0.23667094  0.84780305  1  0.084168  0  0.105642  0.109836  0  0.989583  0
H  H3  1  0.23843827  0.70921779  0.30694401  1  0.098674  0  0.11024  0.114723  0  0.986248  0
H  H4  1  0.23782835  0.85037191  0.23544854  1  0.079417  0  0.10559  0.109192  0  0.989091  0
H  H5  1  0.27026799  0.30947047  0.48519689  1  0.064229  0  0.11029  0.115676  0  0.987225  0
H  H6  1  0.27313198  0.23773772  0.41580229  1  0.096933  0  0.105392  0.109593  0  0.988455  0
H  H7  1  0.78624425  0.70694388  0.48388593  1  0.090912  0  0.110366  0.115034  0  0.986697  0
H  H8  1  0.76431191  0.84810942  0.41574591  1  0.07098  0  0.105733  0.109706  0  0.989098  0
H  H9  1  0.18924624  0.48245957  0.70891845  1  0.104902  0  0.11011  0.114951  0  0.987862  0
H  H10  1  0.18564265  0.41306111  0.84999458  1  0.05046  0  0.105153  0.10898  0  0.988653  0
H  H11  1  0.87263001  0.47935963  0.30728039  1  0.099707  0  0.10981  0.114253  0  0.987075  0
H  H12  1  0.85545522  0.41121406  0.23452784  1  0.071926  0  0.105572  0.109395  0  0.988548  0
H  H13  1  0.48676433  0.09586079  0.09671463  1  0.073446  0  0.109829  0.118354  0  0.98492  0
H  H14  1  0.52130825  0.09696607  0.30660851  1  0.088851  0  0.110161  0.118465  0  0.984426  0
H  H15  1  0.52070481  0.30717317  0.09524169  1  0.081737  0  0.109354  0.117153  0  0.984787  0
C  C16  1  0.52582708  0.44237868  0.61584639  1  1.523706  0  0.272532  0.646887  0  4.070453  0
C  C17  1  0.56604665  0.44062869  0.44227137  1  1.557957  0  0.273415  0.648022  0  4.067804  0
C  C18  1  0.52422152  0.61599620  0.44081085  1  1.598962  0  0.273312  0.6472  0  4.069937  0
C  C19  1  0.69318206  0.33080496  0.73881323  1  0.013885  0  -0.077022  -0.081409  0  3.981118  0
C  C20  1  0.68172159  0.29055996  0.81709300  1  -0.092968  0  -0.082608  -0.132136  0  3.954318  0
C  C21  1  0.35738071  0.74031559  0.32952883  1  0.045817  0  -0.07773  -0.083097  0  3.98474  0
C  C22  1  0.35617463  0.81865985  0.28998981  1  -0.104204  0  -0.082319  -0.129494  0  3.954979  0
C  C23  1  0.40294895  0.33034139  0.43098035  1  0.086588  0  -0.07848  -0.084065  0  3.987533  0
C  C24  1  0.40401439  0.29064616  0.39233554  1  -0.064424  0  -0.082483  -0.130182  0  3.955598  0
C  C25  1  0.66197849  0.73903584  0.43007761  1  -0.037818  0  -0.078003  -0.082795  0  3.985123  0
C  C26  1  0.65083573  0.81737467  0.39210868  1  -0.034894  0  -0.082051  -0.130203  0  3.95592  0
C  C27  1  0.33063613  0.42925518  0.73999760  1  0.033472  0  -0.078528  -0.084853  0  3.985819  0
C  C28  1  0.32797535  0.39061346  0.81831335  1  -0.07087  0  -0.081917  -0.129636  0  3.951908  0
C  C29  1  0.73776592  0.42704109  0.32988536  1  -0.048667  0  -0.076976  -0.081921  0  3.983305  0
C  C30  1  0.72930748  0.38903471  0.28961325  1  -0.01975  0  -0.082942  -0.130029  0  3.951241  0
C  C31  1  0.51584654  0.40011948  0.69964776  1  0.044619  0  -0.011108  -0.043759  0  3.962834  0
C  C32  1  0.50152464  0.32028229  0.85807918  1  0.054066  0  0.003258  0.142956  0  4.107502  0
C  C33  1  0.49744814  0.28029791  0.93793445  1  -0.04717  0  -0.041211  -0.104962  0  4.107512  0
C  C34  1  0.49841283  0.24589676  0.00673795  1  -0.358079  0  -0.040842  -0.10019  0  4.098285  0
C  C35  1  0.50210210  0.20613635  0.08671196  1  0.112658  0  0.001679  0.144749  0  4.142916  0
C  C36  1  0.51349555  0.69990491  0.39941557  1  -0.074015  0  -0.010789  -0.043999  0  3.96419  0
C  C37  1  0.50120112  0.85846021  0.32092510  1  0.069806  0  0.003408  0.140564  0  4.11359  0
C  C38  1  0.49863837  0.93832572  0.28106562  1  -0.160878  0  -0.04116  -0.103873  0  4.110661  0
C  C39  1  0.49928496  0.00717147  0.24658439  1  -0.211839  0  -0.040773  -0.100173  0  4.102803  0
C  C40  1  0.50311710  0.08710529  0.20634246  1  0.133801  0  0.001074  0.144284  0  4.146327  0
C  C41  1  0.57125970  0.39856014  0.40037145  1  -0.063742  0  -0.010503  -0.044457  0  3.96391  0
C  C42  1  0.56332361  0.31997870  0.32042231  1  0.102113  0  0.004125  0.140872  0  4.113958  0
C  C43  1  0.55274435  0.28083461  0.27983505  1  -0.384777  0  -0.04125  -0.104967  0  4.111038  0
C  C44  1  0.53816286  0.24686278  0.24517006  1  -0.001652  0  -0.040838  -0.099092  0  4.100343  0
C  C45  1  0.52262357  0.20674256  0.20552864  1  0.027364  0  0.001914  0.144006  0  4.146065  0
C  C46  1  0.49623091  0.12681634  0.12706402  1  0.101668  0  -0.069354  -0.16091  0  3.847557  0
C  C47  1  0.51603810  0.12740170  0.24525011  1  0.035058  0  -0.069632  -0.160179  0  3.846365  0
C  C48  1  0.51512679  0.24578509  0.12628032  1  0.008784  0  -0.069649  -0.159788  0  3.846685  0
O  O49  1  0.30183681  0.58242791  0.42641175  1  -1.255719  0  -0.239895  -0.597132  0  2.358956  0
O  O50  1  0.28732766  0.49037212  0.58242180  1  -1.260214  0  -0.239935  -0.596746  0  2.359985  0
O  O51  1  0.32706777  0.42692895  0.49096766  1  -1.262699  0  -0.240955  -0.60369  0  2.38036  0
O  O52  1  0.75632472  0.58263424  0.48853575  1  -1.257645  0  -0.23857  -0.599181  0  2.374038  0
O  O53  1  0.79707600  0.48754909  0.42725995  1  -1.256085  0  -0.238189  -0.593382  0  2.355381  0
O  O54  1  0.77371118  0.42786177  0.58262270  1  -1.258527  0  -0.238864  -0.597956  0  2.374444  0
