# generated using pymatgen
data_CaH6C6(NO3)2
_symmetry_space_group_name_H-M   'P 1'
_cell_length_a   6.51839233
_cell_length_b   7.89101779
_cell_length_c   9.31623761
_cell_angle_alpha   100.09955678
_cell_angle_beta   93.62042050
_cell_angle_gamma   107.76981978
_symmetry_Int_Tables_number   1
_chemical_formula_structural   CaH6C6(NO3)2
_chemical_formula_sum   'Ca2 H12 C12 N4 O12'
_cell_volume   445.77157122
_cell_formula_units_Z   2
loop_
 _symmetry_equiv_pos_site_id
 _symmetry_equiv_pos_as_xyz
  1  'x, y, z'
loop_
 _atom_site_type_symbol
 _atom_site_label
 _atom_site_symmetry_multiplicity
 _atom_site_fract_x
 _atom_site_fract_y
 _atom_site_fract_z
 _atom_site_occupancy
 _atom_site_hle17_bader_spin_density
 _atom_site_hle17_ddec_charge
 _atom_site_hle17_ddec_spin_density
 _atom_site_hle17_ddec_sum_bond_order
 _atom_site_hle17_magmom
 _atom_site_hse06_10hf_bader_spin_density
 _atom_site_hse06_10hf_ddec_charge
 _atom_site_hse06_10hf_ddec_spin_density
 _atom_site_hse06_10hf_ddec_sum_bond_order
 _atom_site_hse06_10hf_magmom
 _atom_site_hse06_bader_spin_density
 _atom_site_hse06_ddec_charge
 _atom_site_hse06_ddec_spin_density
 _atom_site_hse06_ddec_sum_bond_order
 _atom_site_hse06_magmom
 _atom_site_pbe_bader_spin_density
 _atom_site_pbe_cm5_charge
 _atom_site_pbe_ddec_charge
 _atom_site_pbe_ddec_spin_density
 _atom_site_pbe_ddec_sum_bond_order
 _atom_site_pbe_magmom
Ca  Ca0  1  0.77296388  0.09798897  0.63837830  1  0  1.494875  0  1.146821  0  0  1.341463  0  1.506386  0  0  1.386284  0  1.462283  0  0  0.870529  1.305865  0  1.539308  0
Ca  Ca1  1  0.22703460  0.90201023  0.36162778  1  0  1.494893  0  1.146853  0  0  1.341476  0  1.506429  0  0  1.386288  0  1.462339  0  0  0.870541  1.305869  0  1.539358  0
H  H2  1  0.21542965  0.29951651  0.94521622  1  0  0.093331  0  0.955753  0  0  0.09379  0  1.030892  0  0  0.097257  0  1.028294  0  0  0.121338  0.091098  0  1.03316  0
H  H3  1  0.78456988  0.70050031  0.05479009  1  0  0.093263  0  0.955712  0  0  0.093752  0  1.030815  0  0  0.097216  0  1.028217  0  0  0.12129  0.091056  0  1.033076  0
H  H4  1  0.88537610  0.05104046  0.00070650  1  0  0.084873  0  0.972906  0  0  0.087923  0  1.048128  0  0  0.09154  0  1.044419  0  0  0.124826  0.085164  0  1.051234  0
H  H5  1  0.11460924  0.94893095  0.99928170  1  0  0.084668  0  0.972547  0  0  0.087717  0  1.047897  0  0  0.09133  0  1.044193  0  0  0.124748  0.084958  0  1.051005  0
H  H6  1  0.53894948  0.70679219  0.48727182  1  0  0.430084  0  0.873083  0  0  0.396485  0  0.940455  0  0  0.408759  0  0.922442  0  0  0.304202  0.387669  0  0.95341  0
H  H7  1  0.46105471  0.29321459  0.51272743  1  0  0.430091  0  0.87303  0  0  0.396449  0  0.940468  0  0  0.408721  0  0.922459  0  0  0.304198  0.387634  0  0.953421  0
H  H8  1  0.59559934  0.69524246  0.65624849  1  0  0.425703  0  0.878388  0  0  0.393069  0  0.94472  0  0  0.404158  0  0.928553  0  0  0.296635  0.385083  0  0.956371  0
H  H9  1  0.40440592  0.30476736  0.34374710  1  0  0.42564  0  0.878465  0  0  0.392966  0  0.944839  0  0  0.404049  0  0.928683  0  0  0.296605  0.384981  0  0.956488  0
H  H10  1  0.14723651  0.29650346  0.48339412  1  0  0.429179  0  0.877038  0  0  0.397676  0  0.940942  0  0  0.409395  0  0.92389  0  0  0.294043  0.389303  0  0.953131  0
H  H11  1  0.85276226  0.70348086  0.51659406  1  0  0.429117  0  0.877151  0  0  0.397621  0  0.941029  0  0  0.40933  0  0.923993  0  0  0.294041  0.38925  0  0.953215  0
H  H12  1  0.07270135  0.44661331  0.58214953  1  0  0.424233  0  0.83459  0  0  0.402477  0  0.898497  0  0  0.411841  0  0.886237  0  0  0.318094  0.395723  0  0.906694  0
H  H13  1  0.92729569  0.55337069  0.41784172  1  0  0.424371  0  0.834291  0  0  0.402562  0  0.898332  0  0  0.411932  0  0.886109  0  0  0.318132  0.395801  0  0.906544  0
C  C14  1  0.66252958  0.47676382  0.77893164  1  0  0.629497  0  3.936796  0  0  0.576709  0  4.237878  0  0  0.609806  0  4.230337  0  0  0.218662  0.554284  0  4.242148  0
C  C15  1  0.33747252  0.52323558  0.22105639  1  0  0.629581  0  3.936568  0  0  0.576707  0  4.237709  0  0  0.609786  0  4.230203  0  0  0.218744  0.554285  0  4.241975  0
C  C16  1  0.83805032  0.48615357  0.89743475  1  0  0.061314  0  3.701772  0  0  0.065873  0  3.94992  0  0  0.064459  0  3.967174  0  0  0.125371  0.066484  0  3.938451  0
C  C17  1  0.16194932  0.51386341  0.10256944  1  0  0.061229  0  3.701863  0  0  0.065988  0  3.949811  0  0  0.064578  0  3.967075  0  0  0.125518  0.066598  0  3.938338  0
C  C18  1  0.11861060  0.38926092  0.96887229  1  0  0.095164  0  3.665874  0  0  0.060842  0  3.92635  0  0  0.064441  0  3.94152  0  0  0.069886  0.058254  0  3.916545  0
C  C19  1  0.88138561  0.61074522  0.03112963  1  0  0.09522  0  3.666013  0  0  0.06096  0  3.926482  0  0  0.064563  0  3.941652  0  0  0.069979  0.05838  0  3.916669  0
C  C20  1  0.26070686  0.00650459  0.73257331  1  0  0.665827  0  3.906214  0  0  0.611311  0  4.204527  0  0  0.646884  0  4.194137  0  0  0.241274  0.586575  0  4.211231  0
C  C21  1  0.73928330  0.99349787  0.26743725  1  0  0.665787  0  3.905952  0  0  0.611351  0  4.204179  0  0  0.646933  0  4.193784  0  0  0.24127  0.586614  0  4.21088  0
C  C22  1  0.38751769  0.00379826  0.87420738  1  0  0.068733  0  3.674798  0  0  0.074648  0  3.921541  0  0  0.074183  0  3.936292  0  0  0.136898  0.074587  0  3.912266  0
C  C23  1  0.61249282  0.99620013  0.12580028  1  0  0.068832  0  3.67443  0  0  0.07464  0  3.921172  0  0  0.07416  0  3.935927  0  0  0.136876  0.074583  0  3.911891  0
C  C24  1  0.71192077  0.02687139  0.99982938  1  0  0.098574  0  3.655529  0  0  0.061001  0  3.916308  0  0  0.064583  0  3.931302  0  0  0.073901  0.058075  0  3.907149  0
C  C25  1  0.28810579  0.97309990  0.00017286  1  0  0.098985  0  3.655497  0  0  0.061247  0  3.916462  0  0  0.064825  0  3.931463  0  0  0.073895  0.058319  0  3.907305  0
N  N26  1  0.95668661  0.37452456  0.86705179  1  0  -0.313164  0  3.169516  0  0  -0.269578  0  3.42928  0  0  -0.279182  0  3.446081  0  0  -0.309833  -0.262499  0  3.417834  0
N  N27  1  0.04330905  0.62548886  0.13294289  1  0  -0.313178  0  3.169884  0  0  -0.269667  0  3.429609  0  0  -0.27927  0  3.446411  0  0  -0.309933  -0.262583  0  3.418153  0
N  N28  1  0.60143972  0.03064755  0.87535719  1  0  -0.296279  0  3.1563  0  0  -0.251559  0  3.416231  0  0  -0.260987  0  3.432641  0  0  -0.314097  -0.243811  0  3.405315  0
N  N29  1  0.39855580  0.96933715  0.12464164  1  0  -0.296412  0  3.156286  0  0  -0.251613  0  3.416288  0  0  -0.261033  0  3.432698  0  0  -0.314158  -0.243866  0  3.405372  0
O  O30  1  0.63446126  0.35303088  0.66444569  1  0  -0.668594  0  2.067398  0  0  -0.602332  0  2.302153  0  0  -0.630271  0  2.292804  0  0  -0.340157  -0.582474  0  2.308157  0
O  O31  1  0.36553003  0.64698049  0.33557310  1  0  -0.668615  0  2.066813  0  0  -0.602407  0  2.301639  0  0  -0.630349  0  2.292308  0  0  -0.340274  -0.582539  0  2.307635  0
O  O32  1  0.56604723  0.59352076  0.80073252  1  0  -0.608661  0  1.916376  0  0  -0.565238  0  2.132821  0  0  -0.588724  0  2.124456  0  0  -0.3219  -0.548506  0  2.138112  0
O  O33  1  0.43395197  0.40650366  0.19926233  1  0  -0.608615  0  1.916635  0  0  -0.565159  0  2.133114  0  0  -0.588623  0  2.124749  0  0  -0.321914  -0.548437  0  2.138411  0
O  O34  1  0.35572278  0.99319126  0.61844717  1  0  -0.692036  0  2.055461  0  0  -0.625041  0  2.305213  0  0  -0.654008  0  2.296087  0  0  -0.359985  -0.602882  0  2.310542  0
O  O35  1  0.64428130  0.00681536  0.38155419  1  0  -0.691829  0  2.055706  0  0  -0.624839  0  2.305354  0  0  -0.653801  0  2.296222  0  0  -0.359873  -0.602685  0  2.310682  0
O  O36  1  0.07445288  0.02236463  0.74073224  1  0  -0.663045  0  1.950235  0  0  -0.605458  0  2.193944  0  0  -0.632933  0  2.183866  0  0  -0.339177  -0.585347  0  2.200327  0
O  O37  1  0.92556589  0.97763111  0.25928074  1  0  -0.663278  0  1.949627  0  0  -0.605677  0  2.193215  0  0  -0.633166  0  2.183149  0  0  -0.339338  -0.585557  0  2.199593  0
O  O38  1  0.64942619  0.76132158  0.57670030  1  0  -0.87881  0  1.912807  0  0  -0.813818  0  2.095598  0  0  -0.837114  0  2.062484  0  0  -0.59256  -0.796874  0  2.118715  0
O  O39  1  0.35057076  0.23868641  0.42329557  1  0  -0.8787  0  1.912825  0  0  -0.813636  0  2.09572  0  0  -0.836936  0  2.062627  0  0  -0.592461  -0.796694  0  2.118833  0
O  O40  1  0.01910387  0.32185140  0.52656712  1  0  -0.880897  0  1.822747  0  0  -0.83033  0  2.013374  0  0  -0.850443  0  1.982764  0  0  -0.617915  -0.815857  0  2.034582  0
O  O41  1  0.98088992  0.67813738  0.47343025  1  0  -0.880953  0  1.822604  0  0  -0.830352  0  2.013232  0  0  -0.85046  0  1.982683  0  0  -0.617918  -0.81588  0  2.034444  0
