# generated using pymatgen
data_AgH8C7SNO3
_symmetry_space_group_name_H-M   'P 1'
_cell_length_a   5.40041183
_cell_length_b   8.08935866
_cell_length_c   10.12338171
_cell_angle_alpha   78.61685444
_cell_angle_beta   91.38373677
_cell_angle_gamma   84.14892215
_symmetry_Int_Tables_number   1
_chemical_formula_structural   AgH8C7SNO3
_chemical_formula_sum   'Ag2 H16 C14 S2 N2 O6'
_cell_volume   430.84608852
_cell_formula_units_Z   2
loop_
 _symmetry_equiv_pos_site_id
 _symmetry_equiv_pos_as_xyz
  1  'x, y, z'
loop_
 _atom_site_type_symbol
 _atom_site_label
 _atom_site_symmetry_multiplicity
 _atom_site_fract_x
 _atom_site_fract_y
 _atom_site_fract_z
 _atom_site_occupancy
 _atom_site_hle17_bader_spin_density
 _atom_site_hle17_ddec_charge
 _atom_site_hle17_ddec_spin_density
 _atom_site_hle17_ddec_sum_bond_order
 _atom_site_hle17_magmom
 _atom_site_hse06_10hf_bader_spin_density
 _atom_site_hse06_10hf_ddec_charge
 _atom_site_hse06_10hf_ddec_spin_density
 _atom_site_hse06_10hf_ddec_sum_bond_order
 _atom_site_hse06_10hf_magmom
 _atom_site_hse06_bader_spin_density
 _atom_site_hse06_ddec_charge
 _atom_site_hse06_ddec_spin_density
 _atom_site_hse06_ddec_sum_bond_order
 _atom_site_hse06_magmom
 _atom_site_pbe_bader_spin_density
 _atom_site_pbe_cm5_charge
 _atom_site_pbe_ddec_charge
 _atom_site_pbe_ddec_spin_density
 _atom_site_pbe_ddec_sum_bond_order
 _atom_site_pbe_magmom
Ag  Ag0  1  0.77885366  0.71602047  0.77386768  1  0  0.568758  0  1.328686  0  0  0.43033  0  1.745928  0  0  0.460924  0  1.70151  0  0  0.471773  0.408643  0  1.776783  0
Ag  Ag1  1  0.22115228  0.28397955  0.22613025  1  0  0.568726  0  1.328698  0  0  0.430308  0  1.745944  0  0  0.460903  0  1.70153  0  0  0.471757  0.408622  0  1.776788  0
H  H2  1  0.61427462  0.89535601  0.99992084  1  0  0.058831  0  0.976197  0  0  0.070409  0  1.042151  0  0  0.071883  0  1.040893  0  0  0.107908  0.069223  0  1.043231  0
H  H3  1  0.38571409  0.10462216  0.00008375  1  0  0.058787  0  0.976119  0  0  0.070389  0  1.042029  0  0  0.071877  0  1.040753  0  0  0.107922  0.069204  0  1.043109  0
H  H4  1  0.25591669  0.59850335  0.94201099  1  0  0.07841  0  0.959799  0  0  0.084899  0  1.031297  0  0  0.087594  0  1.028246  0  0  0.110666  0.08193  0  1.035008  0
H  H5  1  0.74409050  0.40150075  0.05799485  1  0  0.078458  0  0.959651  0  0  0.08495  0  1.031138  0  0  0.087649  0  1.028087  0  0  0.110712  0.081942  0  1.034886  0
H  H6  1  0.79045143  0.95279951  0.21555940  1  0  0.12614  0  0.955946  0  0  0.137523  0  1.014946  0  0  0.140649  0  1.013886  0  0  0.110752  0.135196  0  1.016092  0
H  H7  1  0.20954308  0.04719266  0.78443356  1  0  0.126111  0  0.955711  0  0  0.137511  0  1.014766  0  0  0.140639  0  1.01371  0  0  0.110722  0.135184  0  1.015911  0
H  H8  1  0.23699395  0.55512492  0.43865543  1  0  0.135834  0  0.953201  0  0  0.144574  0  1.016006  0  0  0.147828  0  1.014825  0  0  0.106572  0.142329  0  1.016907  0
H  H9  1  0.76299840  0.44487030  0.56134767  1  0  0.135798  0  0.953274  0  0  0.144588  0  1.016038  0  0  0.14784  0  1.014859  0  0  0.106585  0.142343  0  1.016939  0
H  H10  1  0.96690900  0.69261453  0.46155970  1  0  0.137496  0  0.918883  0  0  0.152485  0  0.972683  0  0  0.154667  0  0.972557  0  0  0.112567  0.150958  0  0.972842  0
H  H11  1  0.03307979  0.30738800  0.53844046  1  0  0.137557  0  0.918865  0  0  0.152518  0  0.972727  0  0  0.154697  0  0.972598  0  0  0.11262  0.150996  0  0.972887  0
H  H12  1  0.17907937  0.94549782  0.35683075  1  0  0.098339  0  0.951659  0  0  0.111478  0  1.020879  0  0  0.114095  0  1.017893  0  0  0.095524  0.109596  0  1.023019  0
H  H13  1  0.82092189  0.05449961  0.64317581  1  0  0.098425  0  0.951772  0  0  0.111578  0  1.020922  0  0  0.11419  0  1.017948  0  0  0.095575  0.109696  0  1.023059  0
H  H14  1  0.45099831  0.80872168  0.33654337  1  0  0.095821  0  0.927004  0  0  0.11275  0  0.985105  0  0  0.114276  0  0.984782  0  0  0.10053  0.11146  0  0.985625  0
H  H15  1  0.54899742  0.19127626  0.66346702  1  0  0.095839  0  0.927018  0  0  0.112753  0  0.985133  0  0  0.114299  0  0.984785  0  0  0.100533  0.111463  0  0.98565  0
H  H16  1  0.45285666  0.63138920  0.16177470  1  0  0.117748  0  0.979673  0  0  0.126587  0  1.042942  0  0  0.129898  0  1.041945  0  0  0.104542  0.124003  0  1.044015  0
H  H17  1  0.54715521  0.36861749  0.83822250  1  0  0.117751  0  0.979699  0  0  0.126576  0  1.042977  0  0  0.129888  0  1.04198  0  0  0.10455  0.124014  0  1.044028  0
C  C18  1  0.80055284  0.84127085  0.03890348  1  0  0.114485  0  3.748537  0  0  0.08345  0  3.995647  0  0  0.090393  0  4.016895  0  0  0.038217  0.078954  0  3.981621  0
C  C19  1  0.19945001  0.15872520  0.96108751  1  0  0.114573  0  3.748753  0  0  0.083629  0  3.995896  0  0  0.090563  0  4.017139  0  0  0.038213  0.079131  0  3.981872  0
C  C20  1  0.15889070  0.67339412  0.00736008  1  0  0.111025  0  3.73575  0  0  0.079662  0  3.986427  0  0  0.086962  0  4.005378  0  0  0.036307  0.075247  0  3.97377  0
C  C21  1  0.84111059  0.32660079  0.99263219  1  0  0.110886  0  3.73582  0  0  0.079586  0  3.986449  0  0  0.086887  0  4.005395  0  0  0.036139  0.075205  0  3.973805  0
C  C22  1  0.89738929  0.87032025  0.15931573  1  0  -0.154343  0  3.660799  0  0  -0.173166  0  3.902634  0  0  -0.181203  0  3.924458  0  0  -0.081345  -0.168816  0  3.888742  0
C  C23  1  0.10263275  0.12969189  0.84068807  1  0  -0.154205  0  3.660457  0  0  -0.173175  0  3.902456  0  0  -0.181221  0  3.92429  0  0  -0.081342  -0.168821  0  3.888561  0
C  C24  1  0.17009777  0.68302543  0.45273752  1  0  -0.288281  0  3.580008  0  0  -0.316248  0  3.825586  0  0  -0.323166  0  3.834499  0  0  -0.152241  -0.311504  0  3.81953  0
C  C25  1  0.82989315  0.31697590  0.54726297  1  0  -0.288274  0  3.57996  0  0  -0.316325  0  3.825639  0  0  -0.323238  0  3.834552  0  0  -0.152305  -0.311591  0  3.819591  0
C  C26  1  0.24695088  0.81966704  0.33842249  1  0  -0.137741  0  3.67952  0  0  -0.18603  0  3.926734  0  0  -0.186665  0  3.937132  0  0  -0.157742  -0.185177  0  3.919274  0
C  C27  1  0.75305804  0.18032885  0.66158153  1  0  -0.137862  0  3.679821  0  0  -0.186091  0  3.926979  0  0  -0.186741  0  3.937372  0  0  -0.157743  -0.185251  0  3.919557  0
C  C28  1  0.13684938  0.79573562  0.20661949  1  0  0.179817  0  3.669638  0  0  0.198742  0  3.902209  0  0  0.204318  0  3.923774  0  0  0.021164  0.195299  0  3.887245  0
C  C29  1  0.86315426  0.20427461  0.79337673  1  0  0.179749  0  3.669488  0  0  0.198738  0  3.90205  0  0  0.204318  0  3.923616  0  0  0.021214  0.195291  0  3.88709  0
C  C30  1  0.26708182  0.69417109  0.12823618  1  0  -0.198372  0  3.728859  0  0  -0.214021  0  3.974309  0  0  -0.222619  0  3.995135  0  0  -0.091543  -0.207756  0  3.959902  0
C  C31  1  0.73293374  0.30583537  0.87175911  1  0  -0.198339  0  3.729482  0  0  -0.213987  0  3.974938  0  0  -0.222587  0  3.995768  0  0  -0.091559  -0.207735  0  3.960508  0
S  S32  1  0.29470036  0.69800424  0.61458166  1  0  1.296263  0  5.597762  0  0  1.209371  0  6.103532  0  0  1.255074  0  6.084894  0  0  0.484273  1.177438  0  6.115086  0
S  S33  1  0.70529100  0.30198750  0.38542435  1  0  1.296203  0  5.597922  0  0  1.209298  0  6.103713  0  0  1.255001  0  6.085078  0  0  0.484185  1.177368  0  6.115261  0
N  N34  1  0.92777365  0.74513257  0.96292985  1  0  -0.316647  0  3.406479  0  0  -0.224533  0  3.683343  0  0  -0.246271  0  3.703406  0  0  -0.359224  -0.21004  0  3.669126  0
N  N35  1  0.07224931  0.25485801  0.03707166  1  0  -0.316668  0  3.40616  0  0  -0.224666  0  3.683124  0  0  -0.246409  0  3.70319  0  0  -0.359187  -0.210169  0  3.668895  0
O  O36  1  0.57209986  0.68911248  0.59748099  1  0  -0.668356  0  2.068178  0  0  -0.580823  0  2.342989  0  0  -0.60715  0  2.327154  0  0  -0.361152  -0.56218  0  2.353286  0
O  O37  1  0.42789416  0.31089215  0.40252263  1  0  -0.668368  0  2.068176  0  0  -0.580794  0  2.342923  0  0  -0.607124  0  2.3271  0  0  -0.361144  -0.562148  0  2.353217  0
O  O38  1  0.19358614  0.86093335  0.64476551  1  0  -0.67455  0  1.956545  0  0  -0.621457  0  2.210539  0  0  -0.643122  0  2.196082  0  0  -0.346773  -0.605418  0  2.219428  0
O  O39  1  0.80638621  0.13907577  0.35522983  1  0  -0.674479  0  1.957052  0  0  -0.621344  0  2.211003  0  0  -0.643007  0  2.19654  0  0  -0.346646  -0.60531  0  2.219892  0
O  O40  1  0.22552469  0.54945553  0.71013547  1  0  -0.680661  0  1.94323  0  0  -0.625997  0  2.20133  0  0  -0.648377  0  2.188822  0  0  -0.350766  -0.609392  0  2.209648  0
O  O41  1  0.77446806  0.45054687  0.28987073  1  0  -0.680684  0  1.942954  0  0  -0.626028  0  2.20107  0  0  -0.648411  0  2.188566  0  0  -0.350809  -0.609429  0  2.209399  0
