# generated using pymatgen
data_AlH5C16O5F4
_symmetry_space_group_name_H-M   'P 1'
_cell_length_a   6.70339701
_cell_length_b   23.51833310
_cell_length_c   26.29201231
_cell_angle_alpha   78.46689256
_cell_angle_beta   89.99991995
_cell_angle_gamma   89.99996795
_symmetry_Int_Tables_number   1
_chemical_formula_structural   AlH5C16O5F4
_chemical_formula_sum   'Al4 H20 C64 O20 F16'
_cell_volume   4061.31691809
_cell_formula_units_Z   4
loop_
 _symmetry_equiv_pos_site_id
 _symmetry_equiv_pos_as_xyz
  1  'x, y, z'
loop_
 _atom_site_type_symbol
 _atom_site_label
 _atom_site_symmetry_multiplicity
 _atom_site_fract_x
 _atom_site_fract_y
 _atom_site_fract_z
 _atom_site_occupancy
 _atom_site_pbe_bader_charge
 _atom_site_pbe_bader_spin_density
 _atom_site_pbe_cm5_charge
 _atom_site_pbe_ddec_charge
 _atom_site_pbe_ddec_spin_density
 _atom_site_pbe_ddec_sum_bond_order
 _atom_site_pbe_magmom
Al  Al0  1  0.80008270  0.75031984  0.24945178  1  2.50259  0  0.405183  1.651092  0  2.574211  0
Al  Al1  1  0.19991092  0.24967831  0.75055058  1  2.502691  0  0.405049  1.651276  0  2.573975  0
Al  Al2  1  0.30008545  0.74967914  0.25055068  1  2.502654  0  0.404959  1.651161  0  2.574211  0
Al  Al3  1  0.69991563  0.25031713  0.74945246  1  2.502472  0  0.405087  1.650974  0  2.57443  0
H  H4  1  0.26556619  0.36420774  0.84414659  1  0.146899  0  0.110259  0.12325  0  1.012129  0
H  H5  1  0.73443936  0.63579287  0.15585614  1  0.146859  0  0.110237  0.12329  0  1.012067  0
H  H6  1  0.76556393  0.13578927  0.65585731  1  0.146905  0  0.110236  0.123242  0  1.012101  0
H  H7  1  0.23443416  0.86420198  0.34414741  1  0.147178  0  0.110246  0.123246  0  1.01207  0
H  H8  1  0.28449083  0.42975706  0.90740177  1  0.106758  0  0.103042  0.113779  0  1.017476  0
H  H9  1  0.71549533  0.57024304  0.09259942  1  0.10672  0  0.103036  0.113759  0  1.017402  0
H  H10  1  0.78450367  0.07023810  0.59260488  1  0.106771  0  0.103031  0.113743  0  1.017469  0
H  H11  1  0.21550636  0.92975868  0.40739788  1  0.106749  0  0.103044  0.113797  0  1.017475  0
H  H12  1  0.76490576  0.58255236  0.99525701  1  0.127517  0  0.119341  0.148263  0  0.971131  0
H  H13  1  0.23508189  0.41743762  0.00474771  1  0.127426  0  0.119352  0.148377  0  0.971008  0
H  H14  1  0.26488426  0.91744725  0.50474135  1  0.12769  0  0.119376  0.148368  0  0.970926  0
H  H15  1  0.73511980  0.08254587  0.49525870  1  0.127912  0  0.119417  0.148395  0  0.97105  0
H  H16  1  0.33533595  0.52696898  0.46130155  1  0.146036  0  0.116552  0.149889  0  1.002094  0
H  H17  1  0.66469347  0.47302874  0.53870276  1  0.146195  0  0.116576  0.149966  0  1.002166  0
H  H18  1  0.83530393  0.97305269  0.03871792  1  0.14594  0  0.116592  0.149955  0  1.002186  0
H  H19  1  0.16468969  0.02694664  0.96128289  1  0.145926  0  0.11654  0.149856  0  1.002151  0
H  H20  1  0.55127636  0.67358460  0.26497653  1  0.619515  0  0.36052  0.440152  0  0.837415  0
H  H21  1  0.44871875  0.32641362  0.73502351  1  0.619567  0  0.360537  0.440187  0  0.837345  0
H  H22  1  0.05127841  0.82641522  0.23501706  1  0.619702  0  0.360504  0.440122  0  0.837412  0
H  H23  1  0.94871819  0.17358147  0.76497639  1  0.619433  0  0.360505  0.440087  0  0.837472  0
C  C24  1  0.54863178  0.82555343  0.17268918  1  1.660952  0  0.278063  0.716345  0  4.158328  0
C  C25  1  0.45136930  0.17444216  0.82731513  1  1.660883  0  0.277802  0.716067  0  4.158442  0
C  C26  1  0.04861673  0.67444393  0.32731372  1  1.660936  0  0.277879  0.716057  0  4.158174  0
C  C27  1  0.95137390  0.32554970  0.67268788  1  1.660561  0  0.277927  0.716195  0  4.157888  0
C  C28  1  0.55118197  0.81298110  0.31227154  1  1.609097  0  0.270935  0.663802  0  4.090703  0
C  C29  1  0.44883402  0.18701135  0.68773550  1  1.609346  0  0.270931  0.664034  0  4.090496  0
C  C30  1  0.05115650  0.68701321  0.18773565  1  1.609464  0  0.270852  0.663766  0  4.090949  0
C  C31  1  0.94882519  0.31298383  0.81226788  1  1.608298  0  0.270983  0.663963  0  4.090753  0
C  C32  1  0.13216774  0.37462609  0.86399520  1  0.022  0  -0.081962  -0.077065  0  3.98565  0
C  C33  1  0.86782737  0.62537443  0.13600211  1  0.021998  0  -0.081942  -0.077177  0  3.985603  0
C  C34  1  0.63217228  0.12537270  0.63600580  1  0.021969  0  -0.081919  -0.077022  0  3.98533  0
C  C35  1  0.36783477  0.87462476  0.36399385  1  0.021729  0  -0.08198  -0.077162  0  3.985387  0
C  C36  1  0.14221698  0.41091322  0.89950329  1  -0.042117  0  -0.089737  -0.126884  0  3.98179  0
C  C37  1  0.85778857  0.58908509  0.10049829  1  -0.042124  0  -0.089689  -0.126746  0  3.981801  0
C  C38  1  0.64222627  0.08907988  0.60050046  1  -0.042162  0  -0.08967  -0.126836  0  3.981601  0
C  C39  1  0.35778077  0.91091231  0.39950387  1  -0.04188  0  -0.089734  -0.126896  0  3.981742  0
C  C40  1  0.97055616  0.42452974  0.92543673  1  0.04654  0  -0.008846  0.005567  0  4.030254  0
C  C41  1  0.02944193  0.57546560  0.07456681  1  0.046501  0  -0.008736  0.005512  0  4.030276  0
C  C42  1  0.47057057  0.07546435  0.57456591  1  0.046013  0  -0.008739  0.005651  0  4.030361  0
C  C43  1  0.52943648  0.92453227  0.42543568  1  0.046473  0  -0.008835  0.005538  0  4.030285  0
C  C44  1  0.79138619  0.39900347  0.91458376  1  0.484771  0  0.090524  0.118257  0  4.060772  0
C  C45  1  0.20861041  0.60098779  0.08542290  1  0.485242  0  0.090383  0.118296  0  4.060818  0
C  C46  1  0.29140430  0.10099646  0.58541668  1  0.48514  0  0.090497  0.118227  0  4.060484  0
C  C47  1  0.70861766  0.89900186  0.41458878  1  0.485448  0  0.090539  0.118354  0  4.060559  0
C  C48  1  0.78026138  0.36271513  0.87863438  1  0.513346  0  0.103689  0.171903  0  4.052473  0
C  C49  1  0.21973820  0.63727561  0.12136880  1  0.510986  0  0.103734  0.17193  0  4.052406  0
C  C50  1  0.28027771  0.13728801  0.62136293  1  0.513375  0  0.103662  0.171999  0  4.052174  0
C  C51  1  0.71973083  0.86270205  0.37864529  1  0.513002  0  0.103467  0.171601  0  4.052779  0
C  C52  1  0.95102460  0.35017510  0.85217504  1  0.024601  0  -0.019922  -0.138844  0  3.982772  0
C  C53  1  0.04897349  0.64982714  0.14782808  1  0.023664  0  -0.019925  -0.138794  0  3.98261  0
C  C54  1  0.45102940  0.14982749  0.64782560  1  0.023799  0  -0.019962  -0.138923  0  3.982732  0
C  C55  1  0.54897317  0.85016845  0.35218298  1  0.024061  0  -0.019774  -0.138615  0  3.982674  0
C  C56  1  0.85346646  0.50974643  0.96293535  1  0.458309  0  0.095331  0.235457  0  4.060398  0
C  C57  1  0.14651970  0.49024100  0.03707133  1  0.458446  0  0.095315  0.235575  0  4.060355  0
C  C58  1  0.35349045  0.99024439  0.53706860  1  0.458904  0  0.095508  0.235822  0  4.060079  0
C  C59  1  0.64650615  0.00975009  0.46293106  1  0.458607  0  0.095633  0.235948  0  4.059737  0
C  C60  1  0.86795226  0.54620030  0.99818169  1  0.04936  0  -0.09057  -0.227598  0  3.97216  0
C  C61  1  0.13203987  0.45378959  0.00182536  1  0.049886  0  -0.090677  -0.227861  0  3.972234  0
C  C62  1  0.36793625  0.95379759  0.50181915  1  0.049503  0  -0.090731  -0.227861  0  3.972247  0
C  C63  1  0.63206184  0.04619971  0.49818322  1  0.048738  0  -0.090805  -0.227948  0  3.972237  0
C  C64  1  0.01723414  0.53727082  0.03644889  1  -0.004393  0  -0.011073  -0.000378  0  4.019039  0
C  C65  1  0.98275500  0.46271796  0.96355546  1  -0.004329  0  -0.01104  -0.000492  0  4.019422  0
C  C66  1  0.51722232  0.96271775  0.46355518  1  -0.00444  0  -0.011166  -0.000605  0  4.019363  0
C  C67  1  0.48278024  0.03727682  0.53644798  1  -0.004482  0  -0.011116  -0.000565  0  4.019514  0
C  C68  1  0.18870414  0.51529142  0.47791369  1  0.112101  0  -0.081471  -0.222501  0  3.933619  0
C  C69  1  0.81131931  0.48470111  0.52208909  1  0.112245  0  -0.081398  -0.222562  0  3.933909  0
C  C70  1  0.68869039  0.98471737  0.02209401  1  0.11255  0  -0.08152  -0.222671  0  3.934126  0
C  C71  1  0.31130770  0.01528026  0.97790681  1  0.112626  0  -0.081493  -0.222593  0  3.93418  0
C  C72  1  0.01802514  0.54574773  0.45588666  1  0.042532  0  0.003139  0.054082  0  4.12241  0
C  C73  1  0.98199832  0.45424565  0.54411418  1  0.043387  0  0.003016  0.053911  0  4.122621  0
C  C74  1  0.51801113  0.95425302  0.04411619  1  0.043034  0  0.003094  0.053995  0  4.122202  0
C  C75  1  0.48198697  0.04574572  0.95588346  1  0.042769  0  0.003143  0.054007  0  4.122774  0
C  C76  1  0.83202261  0.52906392  0.47924339  1  0.479935  0  0.108032  0.23827  0  4.038833  0
C  C77  1  0.16799786  0.47092869  0.52075900  1  0.479048  0  0.108033  0.238453  0  4.038751  0
C  C78  1  0.33200719  0.97092187  0.02075142  1  0.479214  0  0.108066  0.23862  0  4.03875  0
C  C79  1  0.66799240  0.02907755  0.97924900  1  0.479147  0  0.108028  0.23854  0  4.038745  0
C  C80  1  0.03209898  0.59096163  0.41185154  1  -0.372039  0  -0.022184  -0.018447  0  4.094825  0
C  C81  1  0.96791702  0.40903123  0.58814774  1  -0.365489  0  -0.022174  -0.018431  0  4.095249  0
C  C82  1  0.53208719  0.90903623  0.08815289  1  -0.371723  0  -0.022313  -0.018519  0  4.095275  0
C  C83  1  0.46791090  0.09095945  0.91185491  1  -0.370911  0  -0.022136  -0.018365  0  4.094915  0
C  C84  1  0.95675070  0.37026846  0.62639429  1  0.163708  0  -0.024023  -0.170482  0  3.924438  0
C  C85  1  0.04326529  0.62972355  0.37360694  1  0.170155  0  -0.024058  -0.170505  0  3.924319  0
C  C86  1  0.45672586  0.12972706  0.87360755  1  0.169142  0  -0.024129  -0.170645  0  3.924237  0
C  C87  1  0.54325135  0.87027619  0.12639284  1  0.169901  0  -0.02398  -0.170448  0  3.924605  0
O  O88  1  0.38130131  0.79864710  0.29713582  1  -1.254194  0  -0.233921  -0.589695  0  2.340732  0
O  O89  1  0.61868783  0.20134738  0.70286578  1  -1.254511  0  -0.233856  -0.589615  0  2.341192  0
O  O90  1  0.88131284  0.70135125  0.20286404  1  -1.254356  0  -0.233803  -0.589423  0  2.341339  0
O  O91  1  0.11869421  0.29864604  0.79713639  1  -1.253983  0  -0.233926  -0.589731  0  2.34087  0
O  O92  1  0.71996266  0.80857586  0.19038211  1  -1.232156  0  -0.226799  -0.58072  0  2.276755  0
O  O93  1  0.28001306  0.19142373  0.80962141  1  -1.231943  0  -0.22675  -0.580706  0  2.275816  0
O  O94  1  0.21999120  0.69142562  0.30962023  1  -1.231877  0  -0.226828  -0.580776  0  2.275505  0
O  O95  1  0.78002181  0.30857082  0.69038020  1  -1.23194  0  -0.226771  -0.580703  0  2.276041  0
O  O96  1  0.71954028  0.79979313  0.29565327  1  -1.247654  0  -0.235281  -0.596074  0  2.360728  0
O  O97  1  0.28044290  0.20020120  0.70435493  1  -1.247095  0  -0.23533  -0.596389  0  2.360034  0
O  O98  1  0.21956028  0.70020164  0.20435647  1  -1.247071  0  -0.235341  -0.596339  0  2.359983  0
O  O99  1  0.78045571  0.29979226  0.79565173  1  -1.247386  0  -0.235301  -0.596148  0  2.360545  0
O  O100  1  0.87970300  0.69188197  0.30820664  1  -1.235938  0  -0.225571  -0.579677  0  2.283987  0
O  O101  1  0.12031747  0.30811345  0.69179457  1  -1.235659  0  -0.225721  -0.579899  0  2.283352  0
O  O102  1  0.37967248  0.80811451  0.19179400  1  -1.235663  0  -0.22575  -0.579995  0  2.283311  0
O  O103  1  0.62029726  0.19187768  0.80820839  1  -1.235776  0  -0.225626  -0.579696  0  2.283797  0
O  O104  1  0.55040651  0.71537212  0.25375369  1  -1.418836  0  -0.44745  -0.997182  0  2.198649  0
O  O105  1  0.44958860  0.28462559  0.74624868  1  -1.418954  0  -0.447445  -0.997147  0  2.198431  0
O  O106  1  0.05041332  0.78462822  0.24624727  1  -1.41918  0  -0.447466  -0.997103  0  2.198487  0
O  O107  1  0.94958775  0.21536891  0.75375588  1  -1.418795  0  -0.44743  -0.997098  0  2.198691  0
F  F108  1  0.62215507  0.40702637  0.94074340  1  -0.626026  0  -0.09278  -0.124856  0  1.410345  0
F  F109  1  0.37786241  0.59295399  0.05926835  1  -0.626356  0  -0.092788  -0.124943  0  1.409921  0
F  F110  1  0.12217568  0.09296884  0.55925838  1  -0.626198  0  -0.092836  -0.124899  0  1.410218  0
F  F111  1  0.87784479  0.90703475  0.44074047  1  -0.626408  0  -0.092741  -0.12484  0  1.410503  0
F  F112  1  0.59983972  0.33965011  0.87202432  1  -0.618259  0  -0.076033  -0.097336  0  1.408632  0
F  F113  1  0.40015837  0.66034641  0.12797572  1  -0.616387  0  -0.07602  -0.09735  0  1.408574  0
F  F114  1  0.09984949  0.16035452  0.62796924  1  -0.61817  0  -0.076012  -0.097387  0  1.408583  0
F  F115  1  0.90014412  0.83963078  0.37204132  1  -0.618102  0  -0.075973  -0.097217  0  1.40898  0
F  F116  1  0.71229081  0.52209207  0.92499844  1  -0.642516  0  -0.108821  -0.149576  0  1.33505  0
F  F117  1  0.28767297  0.47789068  0.07501407  1  -0.642533  0  -0.108831  -0.149726  0  1.335021  0
F  F118  1  0.21233462  0.97789636  0.57500805  1  -0.642772  0  -0.108895  -0.14977  0  1.335042  0
F  F119  1  0.78767094  0.02209565  0.42499318  1  -0.642575  0  -0.108958  -0.149819  0  1.335049  0
F  F120  1  0.33372267  0.44191692  0.54155236  1  -0.629182  0  -0.087718  -0.132404  0  1.355614  0
F  F121  1  0.66629929  0.55807569  0.45844808  1  -0.628906  0  -0.087781  -0.132335  0  1.35562  0
F  F122  1  0.83370402  0.05809795  0.95845775  1  -0.629027  0  -0.087706  -0.132449  0  1.355467  0
F  F123  1  0.16629556  0.94190258  0.04154537  1  -0.629074  0  -0.087737  -0.132511  0  1.355357  0
