# generated using pymatgen
data_CuH19C18N3O4
_symmetry_space_group_name_H-M   'P 1'
_cell_length_a   8.49528250
_cell_length_b   8.76339133
_cell_length_c   12.32243572
_cell_angle_alpha   99.29275608
_cell_angle_beta   95.00075212
_cell_angle_gamma   106.29506564
_symmetry_Int_Tables_number   1
_chemical_formula_structural   CuH19C18N3O4
_chemical_formula_sum   'Cu2 H38 C36 N6 O8'
_cell_volume   860.42658997
_cell_formula_units_Z   2
loop_
 _symmetry_equiv_pos_site_id
 _symmetry_equiv_pos_as_xyz
  1  'x, y, z'
loop_
 _atom_site_type_symbol
 _atom_site_label
 _atom_site_symmetry_multiplicity
 _atom_site_fract_x
 _atom_site_fract_y
 _atom_site_fract_z
 _atom_site_occupancy
 _atom_site_hle17_ddec_charge
 _atom_site_hle17_ddec_spin_density
 _atom_site_hle17_ddec_sum_bond_order
 _atom_site_hle17_magmom
 _atom_site_hse06_10hf_ddec_charge
 _atom_site_hse06_10hf_ddec_spin_density
 _atom_site_hse06_10hf_ddec_sum_bond_order
 _atom_site_hse06_10hf_magmom
 _atom_site_hse06_ddec_charge
 _atom_site_hse06_ddec_spin_density
 _atom_site_hse06_ddec_sum_bond_order
 _atom_site_hse06_magmom
 _atom_site_pbe_cm5_charge
 _atom_site_pbe_ddec_charge
 _atom_site_pbe_ddec_spin_density
 _atom_site_pbe_ddec_sum_bond_order
 _atom_site_pbe_magmom
Cu  Cu0  1  0.50434938  0.97334345  0.10154907  1  0.834381  0.661282  1.912815  0.479  0.823346  0.795457  2.324427  0.632  0.949369  0.887197  2.197501  0.734  0.676226  0.754088  0.684662  2.385544  0.533
Cu  Cu1  1  0.49563680  0.02664100  0.89845583  1  0.83423  -0.66128  1.912761  -0.479  0.82333  -0.795445  2.324143  -0.632  0.949371  -0.887196  2.197298  -0.734  0.676207  0.754053  -0.684649  2.385255  -0.533
H  H2  1  0.25805995  0.83591859  0.60443923  1  0.298492  -6e-06  0.862943  0.0  0.291175  -1e-05  0.908955  0.0  0.296573  -4e-06  0.906139  0.0  0.328641  0.286278  -1.6e-05  0.912782  0.0
H  H3  1  0.74194833  0.16409631  0.39557262  1  0.298548  6e-06  0.86281  0.0  0.291188  1e-05  0.908884  0.0  0.29658  4e-06  0.906079  0.0  0.328703  0.286291  1.6e-05  0.912706  0.0
H  H4  1  0.11428436  0.19788971  0.43457973  1  0.061918  -3e-06  0.936169  0.0  0.07455  -2e-06  0.995066  0.0  0.076824  -1e-06  0.99264  0.0  0.106965  0.073212  -3e-06  0.996712  0.0
H  H5  1  0.88572339  0.80213564  0.56541210  1  0.061881  1e-06  0.935915  0.0  0.074484  1e-06  0.994888  0.0  0.076758  1e-06  0.99246  0.0  0.106954  0.073148  3e-06  0.996539  0.0
H  H6  1  0.96445121  0.40065861  0.10919764  1  0.072919  -7.4e-05  0.916081  0.0  0.089479  -6.2e-05  0.972241  0.0  0.089665  -4.1e-05  0.973982  0.0  0.105602  0.089472  -6.8e-05  0.970708  0.0
H  H7  1  0.03554325  0.59933406  0.89079319  1  0.072977  7.5e-05  0.915999  0.0  0.089543  6.3e-05  0.972189  0.0  0.089742  4.2e-05  0.973926  0.0  0.10564  0.089522  6.8e-05  0.970674  0.0
H  H8  1  0.14335800  0.38057789  0.76925563  1  0.063573  2.1e-05  0.962909  0.0  0.076085  1.8e-05  1.023683  0.0  0.078264  1.2e-05  1.021753  0.0  0.107843  0.07448  2e-05  1.025049  0.0
H  H9  1  0.85668477  0.61941033  0.23073832  1  0.063593  -2.6e-05  0.962727  0.0  0.076121  -1.8e-05  1.0235  0.0  0.078309  -1.1e-05  1.021554  0.0  0.107784  0.074511  -2e-05  1.024865  0.0
H  H10  1  0.24192447  0.66593630  0.74149370  1  0.127677  4.3e-05  0.972902  0.0  0.136748  -5e-06  1.034697  0.0  0.141205  2.2e-05  1.032738  0.0  0.106252  0.133651  -2.9e-05  1.036164  0.0
H  H11  1  0.75808873  0.33405556  0.25851111  1  0.127677  -4.2e-05  0.972898  0.0  0.136771  5e-06  1.034671  0.0  0.141226  -2.2e-05  1.032714  0.0  0.106252  0.133673  2.9e-05  1.036135  0.0
H  H12  1  0.32942763  0.08514354  0.29237380  1  0.081625  -3.4e-05  0.943189  0.0  0.093509  -4.2e-05  1.00367  0.0  0.096584  -4.7e-05  1.000817  0.0  0.115839  0.091085  -2.9e-05  1.005727  0.0
H  H13  1  0.67060147  0.91487765  0.70764397  1  0.08161  3.5e-05  0.943035  0.0  0.093471  4.1e-05  1.003556  0.0  0.096546  4.7e-05  1.000704  0.0  0.115856  0.091048  2.9e-05  1.005617  0.0
H  H14  1  0.46047856  0.50451921  0.11863827  1  0.083877  0.000121  0.930348  0.0  0.09485  0.00012  0.990817  0.0  0.096507  7.8e-05  0.990661  0.0  0.104871  0.093613  2.9e-05  0.99112  0.0
H  H15  1  0.53950905  0.49546625  0.88135627  1  0.083954  -0.00012  0.930339  0.0  0.094859  -0.00012  0.990844  0.0  0.096512  -7.8e-05  0.99069  0.0  0.104868  0.093624  -2.9e-05  0.99115  0.0
H  H16  1  0.21093496  0.98673941  0.45666375  1  0.11734  -1.3e-05  0.954437  0.0  0.125889  -8e-06  1.018855  0.0  0.129853  -7e-06  1.016631  0.0  0.108741  0.122346  -8e-06  1.022119  0.0
H  H17  1  0.78909281  0.01328533  0.54335109  1  0.117307  1.4e-05  0.954338  0.0  0.125842  8e-06  1.018768  0.0  0.129809  7e-06  1.016537  0.0  0.108717  0.122251  8e-06  1.022085  0.0
H  H18  1  0.02890700  0.23804262  0.24330153  1  0.069546  0.000231  0.949935  0.0  0.083833  0.000203  1.017028  0.0  0.084933  0.000132  1.016633  0.0  0.086654  0.083153  0.000238  1.017401  0.0
H  H19  1  0.97107674  0.76193789  0.75668820  1  0.069631  -0.000233  0.949985  0.0  0.083897  -0.000203  1.017105  0.0  0.084996  -0.000132  1.016705  0.0  0.086695  0.083218  -0.000238  1.01748  0.0
H  H20  1  0.11160325  0.12751044  0.14253210  1  0.077743  1.2e-05  0.926411  0.0  0.097012  -7e-06  0.984445  0.0  0.097519  -1.7e-05  0.985015  0.0  0.091628  0.097  -5e-06  0.983196  0.0
H  H21  1  0.88837984  0.87247973  0.85745862  1  0.077611  -1.3e-05  0.926274  0.0  0.096906  7e-06  0.984309  0.0  0.097402  1.6e-05  0.984881  0.0  0.091595  0.096899  5e-06  0.983058  0.0
H  H22  1  0.48815491  0.64048902  0.42097605  1  0.114286  -1.7e-05  0.955164  0.0  0.126253  -1.2e-05  1.011492  0.0  0.129304  -9e-06  1.011957  0.0  0.107977  0.123935  -1.2e-05  1.011468  0.0
H  H23  1  0.51184011  0.35951718  0.57902761  1  0.114338  1.6e-05  0.955107  0.0  0.126272  1.2e-05  1.011456  0.0  0.129322  9e-06  1.011924  0.0  0.107999  0.123994  1.2e-05  1.011386  0.0
H  H24  1  0.98894583  0.32666164  0.90983310  1  0.070768  -0.000206  0.950878  0.0  0.08479  -0.000173  1.018854  0.0  0.086553  -0.000104  1.01726  0.0  0.088346  0.083665  -0.000185  1.019858  0.0
H  H25  1  0.01103932  0.67333942  0.09015809  1  0.070827  0.000202  0.95076  0.0  0.084846  0.000173  1.018743  0.0  0.086607  0.000104  1.017146  0.0  0.088382  0.0837  0.000185  1.019767  0.0
H  H26  1  0.08699092  0.18238025  0.93800812  1  0.079253  -3e-05  0.918851  0.0  0.099272  -4e-06  0.974189  0.0  0.099688  1e-05  0.9749  0.0  0.092321  0.099204  -3e-06  0.973158  0.0
H  H27  1  0.91299358  0.81761471  0.06197995  1  0.079282  2.3e-05  0.919051  0.0  0.099336  4e-06  0.974317  0.0  0.099752  -1e-05  0.975027  0.0  0.092332  0.099265  3e-06  0.973285  0.0
H  H28  1  0.33943188  0.35614583  0.26337256  1  0.071754  3e-06  0.942533  0.0  0.086583  2e-06  1.007329  0.0  0.087636  4e-06  1.006861  0.0  0.088524  0.086154  1.2e-05  1.007249  0.0
H  H29  1  0.66055668  0.64383108  0.73661625  1  0.071786  -2e-06  0.942537  0.0  0.08662  -2e-06  1.007327  0.0  0.087651  -4e-06  1.006895  0.0  0.088536  0.086203  -1.2e-05  1.007232  0.0
H  H30  1  0.23763752  0.49618792  0.22823025  1  0.062319  -0.000671  0.948632  -0.001  0.078497  -0.000474  1.013146  -0.001  0.078258  -0.000288  1.014668  0.0  0.086296  0.078771  -0.00058  1.011856  -0.001
H  H31  1  0.76236101  0.50379048  0.77176985  1  0.062334  0.000673  0.948413  0.001  0.078506  0.000474  1.012976  0.001  0.078265  0.000288  1.014495  0.0  0.086287  0.078782  0.00058  1.011692  0.001
H  H32  1  0.59275833  0.75308396  0.25976760  1  0.081143  -2.9e-05  0.939554  0.0  0.090279  -3.8e-05  1.003409  0.0  0.093233  -4.3e-05  1.000487  0.0  0.115344  0.087757  -4.9e-05  1.006133  0.0
H  H33  1  0.40723798  0.24691864  0.74023657  1  0.081146  2.8e-05  0.939521  0.0  0.090289  3.8e-05  1.00337  0.0  0.093243  4.3e-05  1.000447  0.0  0.115318  0.087768  4.9e-05  1.006094  0.0
H  H34  1  0.20520032  0.47181487  0.39166600  1  0.106261  -3.8e-05  1.003618  0.0  0.115956  -4.8e-05  1.068679  0.0  0.118812  -3e-05  1.068945  0.0  0.102654  0.113926  -5.8e-05  1.068751  0.0
H  H35  1  0.79479255  0.52821183  0.60833810  1  0.106163  4.1e-05  1.00379  0.0  0.115911  4.8e-05  1.068777  0.0  0.11877  3e-05  1.069027  0.0  0.102669  0.113878  5.8e-05  1.068868  0.0
H  H36  1  0.21931310  0.54966316  0.03162050  1  0.080113  0.00067  0.947562  0.001  0.096052  0.000516  1.012356  0.0  0.096627  0.000313  1.013496  0.0  0.090944  0.096084  0.000583  1.010889  0.001
H  H37  1  0.78067085  0.45032968  0.96838273  1  0.080183  -0.000672  0.947656  -0.001  0.096056  -0.000516  1.01245  0.0  0.096628  -0.000312  1.013595  0.0  0.090954  0.096087  -0.000583  1.010988  -0.001
H  H38  1  0.29968219  0.43985449  0.92880995  1  0.067458  -5.7e-05  0.965103  0.0  0.081178  -5.5e-05  1.034127  0.0  0.082305  -4.4e-05  1.033326  0.0  0.087379  0.080322  -3.7e-05  1.034973  0.0
H  H39  1  0.70030734  0.56014920  0.07119070  1  0.067449  5.5e-05  0.964965  0.0  0.081065  5.6e-05  1.034062  0.0  0.082191  4.4e-05  1.033264  0.0  0.087312  0.080213  3.7e-05  1.034898  0.0
C  C40  1  0.14518115  0.30381912  0.50204237  1  0.119083  -1e-06  3.803234  0.0  0.093455  -2.2e-05  4.070832  0.0  0.101187  -1.1e-05  4.08746  0.0  0.028699  0.088474  -3.7e-05  4.059418  0.0
C  C41  1  0.85483723  0.69619429  0.49795205  1  0.119307  2.9e-05  3.803209  0.0  0.093697  2.3e-05  4.070822  0.0  0.101431  1.1e-05  4.087448  0.0  0.028666  0.088707  3.8e-05  4.059416  0.0
C  C42  1  0.33753902  0.80322881  0.45183697  1  0.2899  -0.000332  3.815394  0.0  0.27867  -0.000262  4.063504  0.0  0.29259  -0.000219  4.081421  0.0  0.113089  0.269257  -0.000311  4.051137  0.0
C  C43  1  0.66247417  0.19679459  0.54817607  1  0.290165  0.000326  3.815232  0.0  0.278688  0.000262  4.063676  0.0  0.292604  0.000218  4.081597  0.0  0.113108  0.269284  0.000311  4.0513  0.0
C  C44  1  0.98323016  0.28217437  0.07723842  1  -0.101972  0.000133  3.627028  0.0  -0.102292  8.2e-05  3.8615  0.0  -0.110484  5.6e-05  3.877043  0.0  -0.084163  -0.095128  9e-06  3.849606  0.0
C  C45  1  0.01675222  0.71781341  0.92275363  1  -0.101626  -0.000137  3.626701  0.0  -0.102055  -8.3e-05  3.861369  0.0  -0.110292  -5.5e-05  3.876932  0.0  -0.083991  -0.094872  -9e-06  3.849471  0.0
C  C46  1  0.16003460  0.40496149  0.68615722  1  0.121772  8e-06  3.782912  0.0  0.100566  -1.8e-05  4.03893  0.0  0.107846  -9e-06  4.055691  0.0  0.031553  0.095888  -2.7e-05  4.026756  0.0
C  C47  1  0.83999744  0.59503035  0.31383975  1  0.121915  2.4e-05  3.782615  0.0  0.100701  1.8e-05  4.038576  0.0  0.107977  9e-06  4.055339  0.0  0.031707  0.096027  2.7e-05  4.026386  0.0
C  C48  1  0.21446652  0.56455068  0.67141655  1  -0.239742  -0.000229  3.699947  0.0  -0.254049  -4.8e-05  3.945839  0.0  -0.263408  -8e-06  3.964871  0.0  -0.102898  -0.247064  -8.3e-05  3.932171  0.0
C  C49  1  0.78555105  0.43545197  0.32858317  1  -0.239861  0.000204  3.699992  0.0  -0.25423  4.8e-05  3.945863  0.0  -0.263585  8e-06  3.964899  0.0  -0.102952  -0.247244  8.3e-05  3.932181  0.0
C  C50  1  0.80719715  0.16614974  0.05096161  1  0.653195  -0.000843  3.800569  -0.001  0.612977  -0.000679  4.109495  -0.001  0.653281  -0.00064  4.107227  -0.001  0.215504  0.585416  -0.000512  4.111998  -0.001
C  C51  1  0.19279081  0.83383693  0.94903308  1  0.653056  0.000834  3.800928  0.001  0.61284  0.000683  4.109924  0.001  0.653174  0.00064  4.107617  0.001  0.215389  0.585265  0.000513  4.112446  0.001
C  C52  1  0.23398976  0.59352714  0.56364359  1  0.295005  -2.3e-05  3.828894  0.0  0.282475  -2.9e-05  4.078139  0.0  0.295341  -1.3e-05  4.097134  0.0  0.1104  0.273914  -4.5e-05  4.06499  0.0
C  C53  1  0.76602102  0.40648041  0.43636194  1  0.294984  4.4e-05  3.828852  0.0  0.282595  2.9e-05  4.077935  0.0  0.295458  1.2e-05  4.09693  0.0  0.110381  0.274034  4.5e-05  4.064784  0.0
C  C54  1  0.36096889  0.98674130  0.32418637  1  0.143677  -0.000396  3.716483  0.0  0.116803  -0.000314  3.972654  0.0  0.126529  -0.000291  3.989621  0.0  0.040948  0.110838  -0.000326  3.961412  0.0
C  C55  1  0.63904900  0.01328207  0.67582369  1  0.143664  0.000386  3.716594  0.0  0.116826  0.000315  3.97273  0.0  0.126547  0.000291  3.989706  0.0  0.04095  0.110863  0.000326  3.961481  0.0
C  C56  1  0.34842499  0.39898337  0.09537388  1  -0.105627  -0.000818  3.618292  -0.001  -0.106275  -0.000444  3.852194  -0.001  -0.11471  -0.000241  3.867187  0.0  -0.085255  -0.098754  0.000146  3.840556  0.0
C  C57  1  0.65156069  0.60100343  0.90462799  1  -0.105725  0.00081  3.61834  0.001  -0.106353  0.000446  3.85197  0.001  -0.114771  0.000241  3.866942  0.0  -0.085208  -0.098825  -0.000145  3.840329  0.0
C  C58  1  0.29574039  0.93235635  0.41514945  1  -0.223253  0.000212  3.725372  0.0  -0.241562  0.000114  3.978577  0.0  -0.250925  0.000121  3.997379  0.0  -0.093076  -0.235997  0.0001  3.966877  0.0
C  C59  1  0.70428259  0.06767206  0.58486956  1  -0.223393  -0.000205  3.72545  0.0  -0.241619  -0.000115  3.978716  0.0  -0.25098  -0.00012  3.99752  0.0  -0.09319  -0.236012  -0.0001  3.967037  0.0
C  C60  1  0.09235243  0.24636599  0.16953905  1  -0.122965  -0.001252  3.668958  -0.001  -0.167585  -0.00068  3.927528  -0.001  -0.167098  -0.000445  3.940105  -0.001  -0.169073  -0.167917  -0.000633  3.918348  -0.001
C  C61  1  0.90763713  0.75361438  0.83044207  1  -0.123072  0.001263  3.668806  0.001  -0.167649  0.00068  3.927399  0.001  -0.167159  0.000445  3.939986  0.001  -0.169155  -0.167984  0.000633  3.918224  0.001
C  C62  1  0.41146591  0.25438164  0.05737321  1  0.6586  0.000529  3.782128  0.001  0.62148  0.000412  4.083498  0.001  0.661864  0.00046  4.081742  0.001  0.218783  0.59394  0.000568  4.086042  0.001
C  C63  1  0.58851637  0.74561358  0.94262855  1  0.658325  -0.000536  3.782637  -0.001  0.621482  -0.000409  4.083477  -0.001  0.661829  -0.000457  4.081771  -0.001  0.218774  0.593942  -0.000567  4.086026  -0.001
C  C64  1  0.44618849  0.73678638  0.39432342  1  -0.230427  0.000163  3.732878  0.0  -0.243051  9.6e-05  3.977225  0.0  -0.252812  0.000112  3.996427  0.0  -0.094968  -0.237035  7e-05  3.964741  0.0
C  C65  1  0.55381487  0.26321998  0.60568561  1  -0.230451  -0.000159  3.733059  0.0  -0.24295  -9.6e-05  3.977465  0.0  -0.252711  -0.000112  3.996668  0.0  -0.094883  -0.236964  -6.9e-05  3.964973  0.0
C  C66  1  0.06951605  0.29930360  0.97374525  1  -0.121541  0.001031  3.667852  0.001  -0.166015  0.000517  3.92777  0.001  -0.165417  0.000349  3.939758  0.0  -0.169579  -0.166813  0.000627  3.919425  0.001
C  C67  1  0.93046912  0.70069751  0.02624838  1  -0.121691  -0.001009  3.667953  -0.001  -0.1662  -0.000518  3.927846  -0.001  -0.165586  -0.00035  3.939825  0.0  -0.169644  -0.166992  -0.000627  3.919511  -0.001
C  C68  1  0.25902923  0.37947488  0.19733510  1  -0.120608  -0.002167  3.683156  -0.002  -0.16589  -0.001336  3.944977  -0.002  -0.165447  -0.000863  3.958474  -0.001  -0.169257  -0.166304  -0.001516  3.935118  -0.002
C  C69  1  0.74094751  0.62050577  0.80266398  1  -0.12057  0.002164  3.682801  0.002  -0.165916  0.001335  3.944659  0.002  -0.16546  0.000863  3.958127  0.001  -0.169277  -0.166317  0.001516  3.934786  0.002
C  C70  1  0.50616140  0.80057410  0.30466243  1  0.137114  -0.000418  3.731761  0.0  0.111169  -0.000341  3.988737  0.0  0.12091  -0.000315  4.006073  0.0  0.041591  0.104607  -0.000387  3.978591  0.0
C  C71  1  0.49384278  0.19943104  0.69534571  1  0.137001  0.000424  3.731996  0.0  0.111046  0.000341  3.988966  0.0  0.120786  0.000314  4.006302  0.0  0.041524  0.104478  0.000387  3.978842  0.0
C  C72  1  0.19803376  0.45770392  0.47719577  1  -0.248739  -3.8e-05  3.742556  0.0  -0.26459  -3.8e-05  3.99064  0.0  -0.274686  -2.6e-05  4.012265  0.0  -0.107868  -0.258474  -5.4e-05  3.976588  0.0
C  C73  1  0.80196938  0.54230585  0.52280306  1  -0.248747  5e-06  3.742823  0.0  -0.264693  3.7e-05  3.990896  0.0  -0.274782  2.6e-05  4.012516  0.0  -0.107879  -0.258586  5.5e-05  3.976858  0.0
C  C74  1  0.23691620  0.43078746  0.00265699  1  -0.126148  0.00209  3.671381  0.002  -0.172167  0.001223  3.93247  0.001  -0.172039  0.000795  3.945807  0.001  -0.171981  -0.172471  0.001769  3.923041  0.002
C  C75  1  0.76308048  0.56919679  0.99733470  1  -0.126072  -0.002081  3.671538  -0.002  -0.171899  -0.001223  3.932359  -0.001  -0.171771  -0.000794  3.945697  -0.001  -0.171858  -0.172199  -0.001769  3.922923  -0.002
N  N76  1  0.46480868  0.92298600  0.26851664  1  -0.336942  -0.001227  3.223198  0.0  -0.293481  -0.000754  3.513513  0.0  -0.319017  -0.000773  3.526879  0.0  -0.349228  -0.278795  -0.000673  3.505041  0.0
N  N77  1  0.53520114  0.07703011  0.73149461  1  -0.336816  0.001226  3.223188  0.0  -0.293371  0.000754  3.513468  0.0  -0.318922  0.000774  3.526864  0.0  -0.349116  -0.278677  0.000671  3.504989  0.0
N  N78  1  0.27747625  0.75070872  0.54509915  1  -0.408701  -0.000215  3.353171  0.0  -0.352422  -7.6e-05  3.58613  0.0  -0.372807  -5e-05  3.597351  0.0  -0.399533  -0.33794  -7.9e-05  3.578822  0.0
N  N79  1  0.72253203  0.24930616  0.45491188  1  -0.408797  0.000216  3.353124  0.0  -0.352479  7.7e-05  3.586259  0.0  -0.372835  5.1e-05  3.597431  0.0  -0.399588  -0.337996  7.9e-05  3.578936  0.0
N  N80  1  0.12545805  0.27353712  0.60429841  1  -0.35388  -8.7e-05  3.067772  0.0  -0.327391  -2e-05  3.346097  0.0  -0.33903  -1.4e-05  3.359389  0.0  -0.351237  -0.318844  -3.4e-05  3.337313  0.0
N  N81  1  0.87456575  0.72646671  0.39569773  1  -0.354048  6.6e-05  3.06766  0.0  -0.327558  2e-05  3.345954  0.0  -0.339198  1.3e-05  3.359249  0.0  -0.351264  -0.319009  3.3e-05  3.337163  0.0
O  O82  1  0.44487966  0.17898250  0.13217077  1  -0.583166  0.070634  2.122204  0.093  -0.560202  0.049435  2.409541  0.072  -0.609632  0.039229  2.403317  0.06  -0.313977  -0.530246  0.051926  2.413494  0.072
O  O83  1  0.55514117  0.82101531  0.86782700  1  -0.58293  -0.070621  2.122331  -0.093  -0.560148  -0.049432  2.409594  -0.072  -0.609507  -0.039225  2.403281  -0.06  -0.313996  -0.530197  -0.05192  2.413547  -0.072
O  O84  1  0.42793200  0.22206414  0.95526567  1  -0.565865  -0.073938  2.087845  -0.098  -0.539125  -0.051427  2.367696  -0.075  -0.58793  -0.040724  2.361222  -0.063  -0.308166  -0.509788  -0.053095  2.372411  -0.074
O  O85  1  0.57202469  0.77791269  0.04473023  1  -0.565882  0.073929  2.088185  0.098  -0.539138  0.051417  2.367801  0.075  -0.587961  0.04072  2.361391  0.063  -0.308128  -0.509795  0.053084  2.372509  0.074
O  O86  1  0.73423457  0.14839235  0.95307096  1  -0.578006  -0.068376  2.115476  -0.09  -0.55494  -0.04801  2.398635  -0.07  -0.604146  -0.038191  2.392368  -0.059  -0.31308  -0.524942  -0.049739  2.401589  -0.069
O  O87  1  0.26575625  0.85163549  0.04692989  1  -0.578118  0.068371  2.115693  0.09  -0.555033  0.048005  2.398887  0.07  -0.604252  0.03819  2.392617  0.059  -0.313078  -0.525032  0.049734  2.401854  0.069
O  O88  1  0.74507129  0.10286257  0.12969892  1  -0.573181  0.075625  2.077037  0.1  -0.551891  0.052557  2.356306  0.076  -0.599685  0.041629  2.347215  0.064  -0.316293  -0.52402  0.053579  2.362942  0.075
O  O89  1  0.25491958  0.89710227  0.87028955  1  -0.573175  -0.075627  2.077301  -0.1  -0.551894  -0.052565  2.356541  -0.076  -0.5997  -0.041632  2.347446  -0.064  -0.316331  -0.524025  -0.053585  2.363195  -0.075
