# generated using pymatgen
data_CuH8C8(SN4)2
_symmetry_space_group_name_H-M   'P 1'
_cell_length_a   5.69695253
_cell_length_b   6.47941890
_cell_length_c   8.57004459
_cell_angle_alpha   102.75461642
_cell_angle_beta   99.89651382
_cell_angle_gamma   93.33859699
_symmetry_Int_Tables_number   1
_chemical_formula_structural   CuH8C8(SN4)2
_chemical_formula_sum   'Cu1 H8 C8 S2 N8'
_cell_volume   302.42170783
_cell_formula_units_Z   1
loop_
 _symmetry_equiv_pos_site_id
 _symmetry_equiv_pos_as_xyz
  1  'x, y, z'
loop_
 _atom_site_type_symbol
 _atom_site_label
 _atom_site_symmetry_multiplicity
 _atom_site_fract_x
 _atom_site_fract_y
 _atom_site_fract_z
 _atom_site_occupancy
 _atom_site_hle17_ddec_charge
 _atom_site_hle17_ddec_spin_density
 _atom_site_hle17_ddec_sum_bond_order
 _atom_site_hle17_magmom
 _atom_site_hse06_10hf_ddec_charge
 _atom_site_hse06_10hf_ddec_spin_density
 _atom_site_hse06_10hf_ddec_sum_bond_order
 _atom_site_hse06_10hf_magmom
 _atom_site_hse06_ddec_charge
 _atom_site_hse06_ddec_spin_density
 _atom_site_hse06_ddec_sum_bond_order
 _atom_site_hse06_magmom
 _atom_site_pbe_cm5_charge
 _atom_site_pbe_ddec_charge
 _atom_site_pbe_ddec_spin_density
 _atom_site_pbe_ddec_sum_bond_order
 _atom_site_pbe_magmom
Cu  Cu0  1  0.00000178  0.00000001  0.00000022  1  0.832931  -0.690824  2.049986  -0.514  0.832285  -0.791372  2.444269  -0.649  0.913888  -0.849544  2.376636  -0.725  0.779923  0.779567  -0.746853  2.49066  -0.594
H  H1  1  0.57385810  0.97753508  0.67630903  1  0.093599  8.4e-05  0.97065  0.0  0.09516  -4.1e-05  1.046671  0.0  0.097011  7e-06  1.044174  0.0  0.127543  0.093611  -9e-05  1.04859  0.0
H  H2  1  0.42613141  0.02246738  0.32369836  1  0.09354  8.4e-05  0.970722  0.0  0.095106  -4.1e-05  1.046736  0.0  0.096948  8e-06  1.044262  0.0  0.127536  0.093562  -9e-05  1.048651  0.0
H  H3  1  0.26011764  0.31915238  0.81633114  1  0.102416  -3.9e-05  0.977789  0.0  0.107323  2.7e-05  1.052043  0.0  0.109268  5.3e-05  1.049666  0.0  0.128975  0.105635  -2.4e-05  1.053816  0.0
H  H4  1  0.73987332  0.68084516  0.18366632  1  0.102387  -3.9e-05  0.977688  0.0  0.10732  2.7e-05  1.051968  0.0  0.109226  5.3e-05  1.049624  0.0  0.128939  0.105636  -2.4e-05  1.053734  0.0
H  H5  1  0.06713076  0.30447114  0.38410732  1  0.092773  0.000121  0.950966  0.0  0.101913  6.7e-05  1.023506  0.0  0.102392  7.5e-05  1.023915  0.0  0.109356  0.10149  6.1e-05  1.023283  0.0
H  H6  1  0.93286235  0.69552957  0.61588857  1  0.092753  0.000121  0.950922  0.0  0.101949  6.7e-05  1.023455  0.0  0.102427  7.5e-05  1.023869  0.0  0.109333  0.101527  6e-05  1.023231  0.0
H  H7  1  0.26067169  0.46113026  0.56303019  1  0.090875  -0.000244  0.941308  0.0  0.101352  -6e-05  1.013971  0.0  0.102588  -2.5e-05  1.013165  0.0  0.112865  0.100377  -0.000123  1.014472  0.0
H  H8  1  0.73932121  0.53886889  0.43696776  1  0.090903  -0.000244  0.941283  0.0  0.101386  -6e-05  1.014017  0.0  0.102622  -2.5e-05  1.013212  0.0  0.112862  0.100411  -0.000123  1.014523  0.0
C  C9  1  0.73240558  0.07956952  0.67741063  1  0.190097  0.005258  3.703412  0.003  0.142029  0.001275  3.995084  0.0  0.155314  0.002198  4.009133  0.001  0.14274  0.133402  0.000618  3.985763  -0.001
C  C10  1  0.26759958  0.92042818  0.32259209  1  0.190211  0.00526  3.703333  0.003  0.142148  0.001274  3.994987  0.0  0.15543  0.002194  4.009038  0.001  0.142729  0.133519  0.000618  3.98567  -0.001
C  C11  1  0.08269915  0.24957254  0.75087085  1  0.180982  0.006193  3.604985  0.003  0.109246  0.001989  3.863368  0.0  0.124865  0.00331  3.876978  0.002  0.164848  0.099369  0.000958  3.854385  0.0
C  C12  1  0.91730783  0.75042513  0.24912975  1  0.181122  0.006194  3.604913  0.003  0.10932  0.001987  3.863301  0.0  0.124972  0.003311  3.876937  0.002  0.16492  0.099439  0.000959  3.854333  0.0
C  C13  1  0.07346377  0.40581593  0.50586741  1  -0.032477  -0.000744  3.605137  -0.001  -0.107317  -0.000476  3.856539  -0.001  -0.104414  -0.000325  3.867379  0.0  -0.046128  -0.108879  -0.000643  3.849097  -0.001
C  C14  1  0.92652476  0.59419100  0.49412306  1  -0.032406  -0.000743  3.605096  -0.001  -0.107462  -0.000477  3.85667  -0.001  -0.10457  -0.000326  3.867522  0.0  -0.046126  -0.109027  -0.000643  3.849232  -0.001
C  C15  1  0.59506478  0.25130379  0.11819658  1  0.296376  0.020932  4.027792  0.009  0.301352  0.001562  4.336108  -0.006  0.327402  0.003616  4.348582  -0.003  0.147274  0.283137  0.000285  4.326887  -0.007
C  C16  1  0.40491587  0.74869854  0.88180621  1  0.296415  0.020905  4.028459  0.009  0.30138  0.001562  4.336731  -0.006  0.327426  0.003614  4.3492  -0.003  0.147396  0.283171  0.000288  4.327519  -0.007
S  S17  1  0.36411052  0.37353515  0.15536396  1  -0.308004  -0.036465  2.107291  -0.041  -0.333348  0.000312  2.440675  -0.004  -0.350151  0.003797  2.433344  -0.001  -0.138076  -0.319552  -0.005211  2.444788  -0.009
S  S18  1  0.63589024  0.62647209  0.84464206  1  -0.308249  -0.036481  2.107045  -0.041  -0.333596  0.000309  2.440405  -0.004  -0.350405  0.003791  2.433069  -0.001  -0.138257  -0.319792  -0.005214  2.444519  -0.009
N  N19  1  0.97875658  0.27939530  0.60556159  1  0.051504  -0.001909  3.546336  -0.003  0.178186  -0.001459  3.71941  -0.002  0.168152  -0.001059  3.742609  -0.002  -0.131056  0.183522  -0.001772  3.705668  -0.003
N  N20  1  0.02125405  0.72060232  0.39443479  1  0.051514  -0.00191  3.54643  -0.003  0.178266  -0.001457  3.719529  -0.002  0.168261  -0.001062  3.742669  -0.002  -0.13101  0.183605  -0.001772  3.70579  -0.003
N  N21  1  0.75567775  0.17194569  0.55642120  1  -0.262657  -0.008614  2.835167  -0.01  -0.259015  -0.004736  3.097313  -0.006  -0.268775  -0.003193  3.111521  -0.004  -0.21798  -0.252066  -0.006432  3.087689  -0.008
N  N22  1  0.24433006  0.82806167  0.44359037  1  -0.262727  -0.008612  2.835189  -0.01  -0.259087  -0.004735  3.09731  -0.006  -0.268852  -0.003192  3.111516  -0.004  -0.218033  -0.252136  -0.00643  3.087687  -0.008
N  N23  1  0.93036783  0.12264618  0.79892689  1  -0.374145  -0.06804  3.300287  -0.088  -0.32704  -0.056918  3.60906  -0.08  -0.363113  -0.045438  3.631497  -0.069  -0.354181  -0.304637  -0.063513  3.595037  -0.085
N  N24  1  0.06963893  0.87734995  0.20107695  1  -0.374289  -0.068025  3.300239  -0.088  -0.32716  -0.056914  3.609014  -0.08  -0.363232  -0.045436  3.631442  -0.069  -0.354173  -0.30476  -0.063508  3.595003  -0.085
N  N25  1  0.76852945  0.16488069  0.09674232  1  -0.537832  -0.071138  3.075528  -0.088  -0.525966  -0.045863  3.389426  -0.061  -0.55747  -0.038246  3.393985  -0.054  -0.436138  -0.505177  -0.050698  3.386777  -0.065
N  N26  1  0.23148189  0.83508994  0.90325106  1  -0.537611  -0.071079  3.07616  -0.088  -0.525731  -0.04585  3.390035  -0.061  -0.557209  -0.038232  3.394559  -0.054  -0.436081  -0.504954  -0.050685  3.387391  -0.065
