# generated using pymatgen
data_AgH7(C4O)2
_symmetry_space_group_name_H-M   'P 1'
_cell_length_a   5.60602205
_cell_length_b   6.99667727
_cell_length_c   18.21158538
_cell_angle_alpha   88.41033020
_cell_angle_beta   95.43679509
_cell_angle_gamma   89.84997526
_symmetry_Int_Tables_number   1
_chemical_formula_structural   AgH7(C4O)2
_chemical_formula_sum   'Ag4 H28 C32 O8'
_cell_volume   710.82554221
_cell_formula_units_Z   4
loop_
 _symmetry_equiv_pos_site_id
 _symmetry_equiv_pos_as_xyz
  1  'x, y, z'
loop_
 _atom_site_type_symbol
 _atom_site_label
 _atom_site_symmetry_multiplicity
 _atom_site_fract_x
 _atom_site_fract_y
 _atom_site_fract_z
 _atom_site_occupancy
 _atom_site_hle17_bader_spin_density
 _atom_site_hle17_ddec_charge
 _atom_site_hle17_ddec_spin_density
 _atom_site_hle17_ddec_sum_bond_order
 _atom_site_hle17_magmom
 _atom_site_hse06_10hf_bader_spin_density
 _atom_site_hse06_10hf_ddec_charge
 _atom_site_hse06_10hf_ddec_spin_density
 _atom_site_hse06_10hf_ddec_sum_bond_order
 _atom_site_hse06_10hf_magmom
 _atom_site_hse06_bader_spin_density
 _atom_site_hse06_ddec_charge
 _atom_site_hse06_ddec_spin_density
 _atom_site_hse06_ddec_sum_bond_order
 _atom_site_hse06_magmom
 _atom_site_pbe_bader_spin_density
 _atom_site_pbe_cm5_charge
 _atom_site_pbe_ddec_charge
 _atom_site_pbe_ddec_spin_density
 _atom_site_pbe_ddec_sum_bond_order
 _atom_site_pbe_magmom
Ag  Ag0  1  0.80705667  0.06936700  0.03364719  1  0  0.5839  0  1.413642  0  0  0.463609  0  1.889835  0  0  0.501187  0  1.821937  0  0  0.409596  0.437333  0  1.937058  0
Ag  Ag1  1  0.19295789  0.93070715  0.96634520  1  0  0.58383  0  1.41353  0  0  0.463504  0  1.889735  0  0  0.501089  0  1.821843  0  0  0.409582  0.437225  0  1.936957  0
Ag  Ag2  1  0.69289218  0.57371574  0.96641472  1  0  0.584782  0  1.412813  0  0  0.46422  0  1.88921  0  0  0.501768  0  1.821385  0  0  0.409924  0.437959  0  1.936389  0
Ag  Ag3  1  0.30708163  0.42628283  0.03359047  1  0  0.58477  0  1.412478  0  0  0.464141  0  1.88893  0  0  0.501696  0  1.821104  0  0  0.409855  0.437875  0  1.936107  0
H  H4  1  0.26189963  0.14320738  0.83376654  1  0  0.097768  0  0.960623  0  0  0.108354  0  1.024962  0  0  0.110591  0  1.023366  0  0  0.099314  0.106664  0  1.026263  0
H  H5  1  0.73812729  0.85682379  0.16622661  1  0  0.097685  0  0.960758  0  0  0.108238  0  1.025173  0  0  0.110477  0  1.023572  0  0  0.099266  0.106545  0  1.026478  0
H  H6  1  0.05093376  0.18023416  0.70901381  1  0  0.087794  0  1.000435  0  0  0.098634  0  1.062732  0  0  0.099845  0  1.065531  0  0  0.095334  0.097743  0  1.06093  0
H  H7  1  0.94906837  0.81977927  0.29098533  1  0  0.087821  0  1.000499  0  0  0.098668  0  1.062758  0  0  0.099882  0  1.06555  0  0  0.095383  0.097776  0  1.060958  0
H  H8  1  0.63860897  0.90436754  0.61776144  1  0  0.078119  0  0.969896  0  0  0.091498  0  1.030666  0  0  0.093708  0  1.030816  0  0  0.091497  0.089893  0  1.030709  0
H  H9  1  0.36136097  0.09561610  0.38223870  1  0  0.078059  0  0.969923  0  0  0.091412  0  1.030736  0  0  0.093622  0  1.030889  0  0  0.091491  0.089807  0  1.030776  0
H  H10  1  0.85008728  0.86780694  0.74364024  1  0  0.096314  0  0.99111  0  0  0.103554  0  1.058883  0  0  0.105548  0  1.059136  0  0  0.100528  0.102108  0  1.058765  0
H  H11  1  0.14991037  0.13220176  0.25635527  1  0  0.096318  0  0.991163  0  0  0.103562  0  1.058938  0  0  0.105554  0  1.059194  0  0  0.100529  0.102121  0  1.05881  0
H  H12  1  0.19431681  0.22761991  0.56175448  1  0  0.10213  0  0.958289  0  0  0.125375  0  1.019375  0  0  0.126293  0  1.019862  0  0  0.089217  0.124685  0  1.019053  0
H  H13  1  0.80564911  0.77233703  0.43823815  1  0  0.102167  0  0.958288  0  0  0.125417  0  1.019351  0  0  0.126331  0  1.019843  0  0  0.08923  0.124727  0  1.019029  0
H  H14  1  0.28806337  0.99720305  0.53680794  1  0  0.095163  0  0.958739  0  0  0.114897  0  1.023861  0  0  0.116619  0  1.022759  0  0  0.084969  0.113628  0  1.024653  0
H  H15  1  0.71190121  0.00275664  0.46319536  1  0  0.095083  0  0.958688  0  0  0.114845  0  1.02379  0  0  0.116571  0  1.022682  0  0  0.084887  0.113576  0  1.024583  0
H  H16  1  0.01392857  0.02719500  0.57753821  1  0  0.102943  0  0.959334  0  0  0.125035  0  1.022455  0  0  0.126187  0  1.022618  0  0  0.089978  0.124166  0  1.022372  0
H  H17  1  0.98603286  0.97277907  0.42246536  1  0  0.103067  0  0.959296  0  0  0.125198  0  1.022323  0  0  0.126347  0  1.022491  0  0  0.090051  0.124323  0  1.022248  0
H  H18  1  0.23623775  0.61576980  0.16635164  1  0  0.097659  0  0.961932  0  0  0.108689  0  1.025672  0  0  0.110925  0  1.024078  0  0  0.0996  0.107022  0  1.026918  0
H  H19  1  0.76373557  0.38426155  0.83365206  1  0  0.097762  0  0.961748  0  0  0.108701  0  1.025563  0  0  0.110922  0  1.024004  0  0  0.099557  0.107033  0  1.026811  0
H  H20  1  0.44820176  0.63280392  0.29101133  1  0  0.087414  0  0.99958  0  0  0.098098  0  1.062283  0  0  0.099435  0  1.064878  0  0  0.09498  0.097129  0  1.060615  0
H  H21  1  0.55180191  0.36720914  0.70898495  1  0  0.087361  0  0.999472  0  0  0.097992  0  1.062256  0  0  0.099326  0  1.064852  0  0  0.094911  0.097025  0  1.060583  0
H  H22  1  0.86311313  0.34212358  0.38210665  1  0  0.080314  0  0.966374  0  0  0.09438  0  1.025201  0  0  0.096619  0  1.025355  0  0  0.092882  0.092767  0  1.025218  0
H  H23  1  0.13690075  0.65786484  0.61789951  1  0  0.080191  0  0.966242  0  0  0.094278  0  1.025062  0  0  0.096516  0  1.02522  0  0  0.092834  0.092664  0  1.025079  0
H  H24  1  0.65084248  0.32501853  0.25630474  1  0  0.096315  0  0.989792  0  0  0.10439  0  1.056538  0  0  0.106404  0  1.056816  0  0  0.10046  0.102913  0  1.056438  0
H  H25  1  0.34914261  0.67497863  0.74370118  1  0  0.096236  0  0.989864  0  0  0.104299  0  1.056623  0  0  0.106312  0  1.056903  0  0  0.100467  0.102824  0  1.05652  0
H  H26  1  0.30424390  0.65788562  0.43849285  1  0  0.103682  0  0.945555  0  0  0.127387  0  1.004714  0  0  0.128332  0  1.005209  0  0  0.090156  0.126713  0  1.004344  0
H  H27  1  0.69579597  0.34205451  0.56151819  1  0  0.103598  0  0.945846  0  0  0.127339  0  1.004986  0  0  0.12828  0  1.005493  0  0  0.090144  0.126661  0  1.004619  0
H  H28  1  0.48573548  0.45978299  0.42255983  1  0  0.103833  0  0.955887  0  0  0.126056  0  1.018505  0  0  0.127193  0  1.018734  0  0  0.090699  0.125188  0  1.018402  0
H  H29  1  0.51429013  0.54016223  0.57743360  1  0  0.103804  0  0.955958  0  0  0.126042  0  1.018593  0  0  0.127214  0  1.018777  0  0  0.090672  0.125171  0  1.018489  0
H  H30  1  0.21154833  0.42366071  0.46292584  1  0  0.093348  0  0.970232  0  0  0.11269  0  1.036754  0  0  0.114286  0  1.035998  0  0  0.084537  0.111514  0  1.0373  0
H  H31  1  0.78849520  0.57627154  0.53706783  1  0  0.093496  0  0.97027  0  0  0.112804  0  1.036801  0  0  0.1144  0  1.036051  0  0  0.084586  0.111625  0  1.037346  0
C  C32  1  0.57135457  0.00419108  0.79678086  1  0  -0.070337  0  3.739078  0  0  -0.043577  0  3.966731  0  0  -0.054013  0  3.989194  0  0  -0.018271  -0.036795  0  3.951579  0
C  C33  1  0.42865394  0.99582615  0.20321454  1  0  -0.070173  0  3.738638  0  0  -0.043607  0  3.966487  0  0  -0.054045  0  3.988956  0  0  -0.018218  -0.036827  0  3.951335  0
C  C34  1  0.34467175  0.09083424  0.78645759  1  0  -0.037078  0  3.693768  0  0  -0.061526  0  3.939662  0  0  -0.0592  0  3.95893  0  0  -0.078528  -0.06288  0  3.926626  0
C  C35  1  0.65535328  0.90918295  0.21353829  1  0  -0.03697  0  3.693589  0  0  -0.061371  0  3.939522  0  0  -0.059047  0  3.958795  0  0  -0.078446  -0.062726  0  3.926492  0
C  C36  1  0.22637181  0.11158822  0.71605840  1  0  -0.132857  0  3.719856  0  0  -0.14862  0  3.961189  0  0  -0.153582  0  3.982955  0  0  -0.093474  -0.145392  0  3.94652  0
C  C37  1  0.77364136  0.88843202  0.28393842  1  0  -0.132889  0  3.720129  0  0  -0.148654  0  3.961406  0  0  -0.153618  0  3.983179  0  0  -0.093596  -0.145425  0  3.946737  0
C  C38  1  0.33022633  0.04702381  0.65413198  1  0  0.14021  0  3.762041  0  0  0.167162  0  3.994341  0  0  0.169644  0  4.017975  0  0  -0.009579  0.1656  0  3.978168  0
C  C39  1  0.66977470  0.95295738  0.34586137  1  0  0.140088  0  3.762037  0  0  0.167092  0  3.994276  0  0  0.169573  0  4.01791  0  0  -0.009558  0.165532  0  3.978098  0
C  C40  1  0.55579963  0.95854296  0.66500396  1  0  -0.152436  0  3.753006  0  0  -0.168405  0  3.997646  0  0  -0.174445  0  4.019831  0  0  -0.099255  -0.164394  0  3.982606  0
C  C41  1  0.44418893  0.04144864  0.33499184  1  0  -0.152255  0  3.752513  0  0  -0.168223  0  3.997144  0  0  -0.174264  0  4.019327  0  0  -0.099206  -0.164213  0  3.9821  0
C  C42  1  0.67524604  0.93673592  0.73540310  1  0  -0.050976  0  3.732831  0  0  -0.07565  0  3.981094  0  0  -0.072592  0  4.000297  0  0  -0.081001  -0.077483  0  3.968058  0
C  C43  1  0.32475431  0.06327976  0.26459097  1  0  -0.051154  0  3.732723  0  0  -0.075793  0  3.98102  0  0  -0.072739  0  4.000231  0  0  -0.081077  -0.077625  0  3.967988  0
C  C44  1  0.70623141  0.98996146  0.87144779  1  0  0.647466  0  3.879317  0  0  0.595652  0  4.153844  0  0  0.632579  0  4.150417  0  0  0.20666  0.570501  0  4.155234  0
C  C45  1  0.29376751  0.01007858  0.12854620  1  0  0.647346  0  3.880079  0  0  0.595661  0  4.154492  0  0  0.632592  0  4.151068  0  0  0.206617  0.57051  0  4.155882  0
C  C46  1  0.20075918  0.07512825  0.57852633  1  0  -0.333031  0  3.746081  0  0  -0.4145  0  3.981214  0  0  -0.416517  0  3.990485  0  0  -0.238967  -0.412802  0  3.974735  0
C  C47  1  0.79920499  0.92483647  0.42147121  1  0  -0.333104  0  3.746092  0  0  -0.414633  0  3.981194  0  0  -0.416646  0  3.990472  0  0  -0.238976  -0.412934  0  3.974711  0
C  C48  1  0.92804715  0.47069628  0.20326766  1  0  -0.068404  0  3.738143  0  0  -0.042199  0  3.966077  0  0  -0.052615  0  3.988586  0  0  -0.018074  -0.035422  0  3.950903  0
C  C49  1  0.07193811  0.52931264  0.79674072  1  0  -0.068625  0  3.73821  0  0  -0.04234  0  3.965957  0  0  -0.052753  0  3.988455  0  0  -0.018193  -0.035568  0  3.95079  0
C  C50  1  0.15424679  0.55578285  0.21360530  1  0  -0.038149  0  3.696592  0  0  -0.062918  0  3.94271  0  0  -0.060577  0  3.961903  0  0  -0.07905  -0.064258  0  3.929665  0
C  C51  1  0.84573549  0.44423813  0.78639610  1  0  -0.038232  0  3.696645  0  0  -0.062938  0  3.942729  0  0  -0.060594  0  3.961907  0  0  -0.079  -0.064284  0  3.929702  0
C  C52  1  0.27310137  0.56534142  0.28393096  1  0  -0.132139  0  3.721357  0  0  -0.14777  0  3.962827  0  0  -0.152724  0  3.984495  0  0  -0.093361  -0.144547  0  3.948239  0
C  C53  1  0.72690348  0.43467879  0.71607689  1  0  -0.132032  0  3.721503  0  0  -0.14761  0  3.962935  0  0  -0.152561  0  3.984598  0  0  -0.093283  -0.144387  0  3.948347  0
C  C54  1  0.16977452  0.49126678  0.34580001  1  0  0.139681  0  3.763304  0  0  0.166151  0  3.996089  0  0  0.16863  0  4.019732  0  0  -0.009272  0.164586  0  3.979926  0
C  C55  1  0.83023238  0.50870967  0.65420170  1  0  0.139768  0  3.76284  0  0  0.166274  0  3.995619  0  0  0.168751  0  4.01927  0  0  -0.009223  0.164711  0  3.979449  0
C  C56  1  0.94501288  0.40395781  0.33489383  1  0  -0.152268  0  3.751462  0  0  -0.168185  0  3.996023  0  0  -0.174237  0  4.018165  0  0  -0.099364  -0.164178  0  3.981025  0
C  C57  1  0.05500858  0.59603727  0.66512029  1  0  -0.152104  0  3.751133  0  0  -0.168078  0  3.99572  0  0  -0.174128  0  4.017863  0  0  -0.099268  -0.164069  0  3.980717  0
C  C58  1  0.82515383  0.39304721  0.26453925  1  0  -0.051509  0  3.731345  0  0  -0.076519  0  3.979425  0  0  -0.073495  0  3.998603  0  0  -0.081116  -0.078339  0  3.966416  0
C  C59  1  0.17482733  0.60696134  0.73546593  1  0  -0.051471  0  3.731464  0  0  -0.076508  0  3.979587  0  0  -0.073487  0  3.998768  0  0  -0.081152  -0.078321  0  3.966571  0
C  C60  1  0.79300884  0.46853024  0.12865454  1  0  0.645546  0  3.879762  0  0  0.594238  0  4.153814  0  0  0.631132  0  4.150464  0  0  0.20628  0.569101  0  4.155159  0
C  C61  1  0.20699188  0.53150103  0.87134977  1  0  0.645549  0  3.879946  0  0  0.594282  0  4.153856  0  0  0.631182  0  4.150497  0  0  0.206301  0.569144  0  4.155198  0
C  C62  1  0.29863551  0.50808704  0.42142887  1  0  -0.332837  0  3.748256  0  0  -0.414123  0  3.984808  0  0  -0.416271  0  3.994298  0  0  -0.239772  -0.412358  0  3.978151  0
C  C63  1  0.70140235  0.49186295  0.57856901  1  0  -0.332876  0  3.748833  0  0  -0.414211  0  3.985326  0  0  -0.416381  0  3.994807  0  0  -0.239776  -0.412434  0  3.978673  0
O  O64  1  0.60300692  0.05473077  0.92588255  1  0  -0.654735  0  2.184664  0  0  -0.564048  0  2.477664  0  0  -0.599992  0  2.462562  0  0  -0.332296  -0.539013  0  2.487221  0
O  O65  1  0.39702988  0.94531826  0.07411644  1  0  -0.654614  0  2.184733  0  0  -0.56395  0  2.477658  0  0  -0.599898  0  2.46256  0  0  -0.332339  -0.538918  0  2.487213  0
O  O66  1  0.91617546  0.91763303  0.87543187  1  0  -0.601929  0  2.13231  0  0  -0.519569  0  2.403352  0  0  -0.553927  0  2.394957  0  0  -0.316533  -0.495745  0  2.408374  0
O  O67  1  0.08384750  0.08242240  0.12456017  1  0  -0.601985  0  2.132943  0  0  -0.519651  0  2.403927  0  0  -0.553978  0  2.395459  0  0  -0.316458  -0.495829  0  2.40895  0
O  O68  1  0.89595324  0.54141957  0.07426859  1  0  -0.653729  0  2.184076  0  0  -0.562991  0  2.477007  0  0  -0.598984  0  2.461954  0  0  -0.332273  -0.537927  0  2.486533  0
O  O69  1  0.10401740  0.45858929  0.92572685  1  0  -0.65369  0  2.183874  0  0  -0.563006  0  2.476814  0  0  -0.598979  0  2.461711  0  0  -0.332236  -0.537951  0  2.486364  0
O  O70  1  0.58330335  0.39719143  0.12459646  1  0  -0.601915  0  2.132052  0  0  -0.519324  0  2.402666  0  0  -0.553642  0  2.394172  0  0  -0.31636  -0.495522  0  2.407757  0
O  O71  1  0.41671072  0.60280509  0.87541735  1  0  -0.601879  0  2.132236  0  0  -0.519322  0  2.402884  0  0  -0.553632  0  2.394373  0  0  -0.316426  -0.495523  0  2.407981  0
