# generated using pymatgen
data_Ag2H5C4SN3O7
_symmetry_space_group_name_H-M   'P 1'
_cell_length_a   9.34434396
_cell_length_b   10.11820060
_cell_length_c   10.64806340
_cell_angle_alpha   89.99981018
_cell_angle_beta   90.00013260
_cell_angle_gamma   97.28616501
_symmetry_Int_Tables_number   1
_chemical_formula_structural   Ag2H5C4SN3O7
_chemical_formula_sum   'Ag8 H20 C16 S4 N12 O28'
_cell_volume   998.62310018
_cell_formula_units_Z   4
loop_
 _symmetry_equiv_pos_site_id
 _symmetry_equiv_pos_as_xyz
  1  'x, y, z'
loop_
 _atom_site_type_symbol
 _atom_site_label
 _atom_site_symmetry_multiplicity
 _atom_site_fract_x
 _atom_site_fract_y
 _atom_site_fract_z
 _atom_site_occupancy
 _atom_site_pbe_bader_spin_density
 _atom_site_pbe_cm5_charge
 _atom_site_pbe_ddec_charge
 _atom_site_pbe_ddec_spin_density
 _atom_site_pbe_ddec_sum_bond_order
 _atom_site_pbe_magmom
Ag  Ag0  1  0.64351000  0.56255108  0.09626422  1  0  0.442453  0.491096  0  1.768854  0
Ag  Ag1  1  0.85648659  0.93745005  0.59626368  1  0  0.442451  0.491111  0  1.768824  0
Ag  Ag2  1  0.35648653  0.43744881  0.90373584  1  0  0.442463  0.491106  0  1.768843  0
Ag  Ag3  1  0.14351129  0.06255183  0.40373356  1  0  0.442468  0.491125  0  1.768877  0
Ag  Ag4  1  0.76026761  0.42423200  0.78057960  1  0  0.434293  0.510631  0  1.657006  0
Ag  Ag5  1  0.73973002  0.07576328  0.28057935  1  0  0.434315  0.510676  0  1.656974  0
Ag  Ag6  1  0.23972837  0.57576391  0.21942045  1  0  0.434292  0.510619  0  1.65698  0
Ag  Ag7  1  0.26026797  0.92423163  0.71942164  1  0  0.434292  0.510633  0  1.656981  0
H  H8  1  0.64433566  0.84191282  0.99212152  1  0  0.112404  0.160354  0  1.026286  0
H  H9  1  0.85566300  0.65808803  0.49212030  1  0  0.112385  0.160312  0  1.026278  0
H  H10  1  0.35566301  0.15808707  0.00787854  1  0  0.112382  0.160302  0  1.026318  0
H  H11  1  0.14434517  0.34191085  0.50787975  1  0  0.112394  0.160304  0  1.026326  0
H  H12  1  0.63713802  0.04427438  0.83456360  1  0  0.122913  0.165703  0  1.001474  0
H  H13  1  0.86285921  0.45572470  0.33456240  1  0  0.122905  0.165731  0  1.001449  0
H  H14  1  0.36285931  0.95572351  0.16543739  1  0  0.122912  0.165745  0  1.001405  0
H  H15  1  0.13714133  0.54427319  0.66543484  1  0  0.122864  0.165686  0  1.001358  0
H  H16  1  0.62127233  0.55301427  0.61043095  1  0  0.10197  0.123296  0  1.029103  0
H  H17  1  0.87872657  0.94698781  0.11042981  1  0  0.101953  0.12328  0  1.029098  0
H  H18  1  0.37872541  0.44698661  0.38956817  1  0  0.101952  0.123277  0  1.029089  0
H  H19  1  0.12127224  0.05301308  0.88957119  1  0  0.101969  0.123273  0  1.029103  0
H  H20  1  0.52462162  0.66246454  0.51973343  1  0  0.107171  0.136712  0  1.021259  0
H  H21  1  0.97537936  0.83753883  0.01973190  1  0  0.10719  0.136706  0  1.02129  0
H  H22  1  0.47537840  0.33753734  0.48026663  1  0  0.107177  0.136715  0  1.021272  0
H  H23  1  0.02461972  0.16246405  0.98026722  1  0  0.107182  0.13673  0  1.021271  0
H  H24  1  0.43451341  0.56272761  0.64156316  1  0  0.106212  0.135433  0  0.995671  0
H  H25  1  0.06548679  0.93727415  0.14156330  1  0  0.106215  0.135474  0  0.995619  0
H  H26  1  0.56548540  0.43727328  0.35843502  1  0  0.106209  0.135418  0  0.995692  0
H  H27  1  0.93451202  0.06272673  0.85843676  1  0  0.106211  0.135461  0  0.995617  0
C  C28  1  0.60055412  0.70736709  0.82787586  1  0  0.202897  0.434568  0  4.129963  0
C  C29  1  0.89944511  0.79263329  0.32787525  1  0  0.202918  0.434629  0  4.129869  0
C  C30  1  0.39944521  0.29262980  0.17212420  1  0  0.202863  0.434452  0  4.130029  0
C  C31  1  0.10055663  0.20736560  0.67212481  1  0  0.202899  0.434567  0  4.129917  0
C  C32  1  0.62613614  0.83366387  0.89138864  1  0  -0.112436  -0.232193  0  3.934677  0
C  C33  1  0.87386244  0.66633830  0.39138650  1  0  -0.112415  -0.23213  0  3.934652  0
C  C34  1  0.37386133  0.16633502  0.10861236  1  0  -0.112395  -0.23203  0  3.934661  0
C  C35  1  0.12614358  0.33366058  0.60861356  1  0  -0.112442  -0.232154  0  3.934675  0
C  C36  1  0.62048810  0.93856384  0.81251028  1  0  -0.078104  -0.141516  0  3.956647  0
C  C37  1  0.87951003  0.56143660  0.31250848  1  0  -0.078093  -0.141566  0  3.956662  0
C  C38  1  0.37950708  0.06143406  0.18749166  1  0  -0.078135  -0.141651  0  3.956609  0
C  C39  1  0.12049493  0.43856229  0.68748970  1  0  -0.078028  -0.141452  0  3.956462  0
C  C40  1  0.53710554  0.61953744  0.61289693  1  0  -0.138194  -0.247159  0  3.83764  0
C  C41  1  0.96289457  0.88046563  0.11289524  1  0  -0.138212  -0.247161  0  3.837658  0
C  C42  1  0.46289434  0.38046344  0.38710312  1  0  -0.138191  -0.247109  0  3.837639  0
C  C43  1  0.03710424  0.11953526  0.88710482  1  0  -0.138208  -0.247155  0  3.837625  0
S  S44  1  0.58431098  0.88811567  0.66011829  1  0  0.21321  0.242339  0  3.315987  0
S  S45  1  0.91568481  0.61188625  0.16011734  1  0  0.21322  0.242406  0  3.31605  0
S  S46  1  0.41568099  0.11188223  0.33988365  1  0  0.213213  0.242364  0  3.315981  0
S  S47  1  0.08431721  0.38811463  0.83988271  1  0  0.213237  0.242383  0  3.315945  0
N  N48  1  0.57685650  0.72641541  0.70229428  1  0  -0.26358  -0.091056  0  3.658452  0
N  N49  1  0.92314274  0.77358738  0.20229378  1  0  -0.263565  -0.091123  0  3.658547  0
N  N50  1  0.42314217  0.27358448  0.29770578  1  0  -0.263569  -0.09104  0  3.658437  0
N  N51  1  0.07685701  0.22641251  0.79770534  1  0  -0.263597  -0.091118  0  3.658482  0
N  N52  1  0.56381632  0.79376538  0.27862651  1  0  0.094428  0.716053  0  4.371428  0
N  N53  1  0.93618254  0.70623317  0.77862781  1  0  0.094413  0.715993  0  4.371416  0
N  N54  1  0.43618249  0.20623550  0.72136979  1  0  0.094468  0.716008  0  4.371628  0
N  N55  1  0.06381721  0.29376672  0.22137225  1  0  0.094429  0.716081  0  4.371282  0
N  N56  1  0.71749534  0.26206493  0.06291035  1  0  0.095268  0.705154  0  4.406918  0
N  N57  1  0.78250264  0.23793702  0.56290747  1  0  0.095287  0.705172  0  4.406745  0
N  N58  1  0.28250775  0.73793595  0.93709816  1  0  0.095189  0.705084  0  4.407016  0
N  N59  1  0.21749938  0.76206386  0.43708977  1  0  0.095313  0.705189  0  4.406723  0
O  O60  1  0.59864771  0.59088522  0.87419714  1  0  -0.3232  -0.508866  0  2.442485  0
O  O61  1  0.90135084  0.90911701  0.37419522  1  0  -0.323239  -0.508946  0  2.442473  0
O  O62  1  0.40135297  0.40911367  0.12580198  1  0  -0.323185  -0.508847  0  2.442485  0
O  O63  1  0.09865077  0.09088088  0.62580577  1  0  -0.323231  -0.508928  0  2.442479  0
O  O64  1  0.52982223  0.66873533  0.26034072  1  0  -0.194485  -0.445791  0  2.181397  0
O  O65  1  0.97017845  0.83126128  0.76033887  1  0  -0.194476  -0.445756  0  2.181373  0
O  O66  1  0.47017444  0.33126555  0.73965558  1  0  -0.194511  -0.445752  0  2.18147  0
O  O67  1  0.02982115  0.16873761  0.23965931  1  0  -0.19451  -0.445809  0  2.181318  0
O  O68  1  0.53221727  0.84553673  0.38045900  1  0  -0.176739  -0.429165  0  2.034802  0
O  O69  1  0.96777966  0.65446149  0.88046146  1  0  -0.176725  -0.429113  0  2.034851  0
O  O70  1  0.46778033  0.15446316  0.61953730  1  0  -0.176773  -0.429207  0  2.034934  0
O  O71  1  0.03221794  0.34553840  0.11953953  1  0  -0.176705  -0.429145  0  2.034849  0
O  O72  1  0.62978849  0.86480076  0.19238919  1  0  -0.185599  -0.44519  0  2.128653  0
O  O73  1  0.87020911  0.63519807  0.69238964  1  0  -0.18562  -0.44521  0  2.128561  0
O  O74  1  0.37021260  0.13520112  0.80760899  1  0  -0.185591  -0.445151  0  2.128651  0
O  O75  1  0.12979171  0.36480182  0.30760948  1  0  -0.185614  -0.445222  0  2.128576  0
O  O76  1  0.69633149  0.35996701  0.99160581  1  0  -0.208084  -0.449152  0  2.266661  0
O  O77  1  0.80367171  0.14003356  0.49160267  1  0  -0.20811  -0.449173  0  2.266502  0
O  O78  1  0.30368579  0.64003586  0.00840177  1  0  -0.208017  -0.449138  0  2.266709  0
O  O79  1  0.19633245  0.85996732  0.50839458  1  0  -0.208111  -0.449207  0  2.266576  0
O  O80  1  0.73689503  0.15199590  0.01778121  1  0  -0.160092  -0.392599  0  1.9872  0
O  O81  1  0.76310043  0.34800421  0.51777701  1  0  -0.160106  -0.392634  0  1.987178  0
O  O82  1  0.26309908  0.84800200  0.98222730  1  0  -0.160136  -0.392638  0  1.987188  0
O  O83  1  0.23689810  0.65199468  0.48221741  1  0  -0.160107  -0.392581  0  1.987093  0
O  O84  1  0.71616993  0.28157109  0.18144455  1  0  -0.192702  -0.438679  0  2.134776  0
O  O85  1  0.78382831  0.21843049  0.68144268  1  0  -0.192692  -0.438635  0  2.134695  0
O  O86  1  0.28382995  0.71842980  0.81856303  1  0  -0.192606  -0.438531  0  2.134707  0
O  O87  1  0.21617398  0.78157239  0.31855644  1  0  -0.192722  -0.438674  0  2.134677  0
