# generated using pymatgen
data_Co3H16C26N4O13
_symmetry_space_group_name_H-M   'P 1'
_cell_length_a   15.23009993
_cell_length_b   15.21089304
_cell_length_c   22.53920572
_cell_angle_alpha   89.99986796
_cell_angle_beta   90.00023902
_cell_angle_gamma   96.91721969
_symmetry_Int_Tables_number   1
_chemical_formula_structural   Co3H16C26N4O13
_chemical_formula_sum   'Co12 H64 C104 N16 O52'
_cell_volume   5183.50313546
_cell_formula_units_Z   4
loop_
 _symmetry_equiv_pos_site_id
 _symmetry_equiv_pos_as_xyz
  1  'x, y, z'
loop_
 _atom_site_type_symbol
 _atom_site_label
 _atom_site_symmetry_multiplicity
 _atom_site_fract_x
 _atom_site_fract_y
 _atom_site_fract_z
 _atom_site_occupancy
 _atom_site_pbe_bader_charge
 _atom_site_pbe_bader_spin_density
 _atom_site_pbe_cm5_charge
 _atom_site_pbe_ddec_charge
 _atom_site_pbe_ddec_spin_density
 _atom_site_pbe_ddec_sum_bond_order
 _atom_site_pbe_magmom
Co  Co0  1  0.15567008  0.73950764  0.39607485  1  1.270384  2.595348  0.674634  0.855399  2.799513  2.540772  2.569
Co  Co1  1  0.84432598  0.26048887  0.89607600  1  1.270308  2.595349  0.67461  0.855363  2.799519  2.540692  2.569
Co  Co2  1  0.26096526  0.84432325  0.10394528  1  1.269571  2.594288  0.674786  0.855488  2.797644  2.540908  2.568
Co  Co3  1  0.73902773  0.15567791  0.60394053  1  1.269701  2.594262  0.674793  0.855487  2.797622  2.541033  2.568
Co  Co4  1  0.21343368  0.78664283  0.24992334  1  1.405055  2.691214  0.687691  1.109903  2.914142  2.443571  2.678
Co  Co5  1  0.78656813  0.21335880  0.74991864  1  1.405063  2.691234  0.687722  1.10999  2.914177  2.443643  2.678
Co  Co6  1  0.26189151  0.34331743  0.15090648  1  1.297996  2.617973  0.669834  0.912593  2.829595  2.465266  2.599
Co  Co7  1  0.73810836  0.65668237  0.65090677  1  1.297867  2.617985  0.66983  0.912543  2.829594  2.465307  2.599
Co  Co8  1  0.65692310  0.73794466  0.34910182  1  1.296699  2.615813  0.669138  0.910703  2.827445  2.468174  2.597
Co  Co9  1  0.34307927  0.26204945  0.84909940  1  1.296724  2.615819  0.669138  0.910728  2.82745  2.468178  2.597
Co  Co10  1  0.29647921  0.29646094  0.00013639  1  1.403312  2.713239  0.692691  1.109453  2.932205  2.403994  2.698
Co  Co11  1  0.70352441  0.70354310  0.50013962  1  1.403312  2.713253  0.69271  1.109456  2.932212  2.403902  2.698
H  H12  1  0.38615567  0.36369038  0.23799533  1  0.615386  0.001081  0.315866  0.389525  0.000476  0.892859  0.0
H  H13  1  0.61384211  0.63631216  0.73799309  1  0.615073  0.00108  0.315807  0.389411  0.000476  0.892916  0.0
H  H14  1  0.63647500  0.61351580  0.26210725  1  0.61707  0.001088  0.3163  0.389902  0.00048  0.892025  0.0
H  H15  1  0.36352087  0.38647591  0.76209893  1  0.616857  0.001087  0.316284  0.389916  0.00048  0.892137  0.0
H  H16  1  0.42080073  0.31894601  0.17914729  1  0.644747  0.000578  0.27891  0.371176  0.000678  0.979795  0.001
H  H17  1  0.57920063  0.68105319  0.67914445  1  0.644702  0.000577  0.278927  0.371172  0.000678  0.979792  0.001
H  H18  1  0.68135110  0.57900694  0.32095102  1  0.641897  0.000598  0.27883  0.370721  0.000683  0.980153  0.001
H  H19  1  0.31864780  0.42098951  0.82094254  1  0.641527  0.000597  0.278903  0.370844  0.000683  0.979968  0.001
H  H20  1  0.23528416  0.52240977  0.20530708  1  0.170958  0.002333  0.128033  0.111522  0.000689  1.0008  0.002
H  H21  1  0.76471011  0.47759182  0.70530903  1  0.171026  0.002333  0.128008  0.111554  0.000689  1.000889  0.002
H  H22  1  0.47791674  0.76455266  0.29492352  1  0.168417  0.002301  0.127812  0.111107  0.000662  1.001549  0.002
H  H23  1  0.52208537  0.23545213  0.79491053  1  0.168653  0.002301  0.127858  0.111131  0.000662  1.001472  0.002
H  H24  1  0.11517397  0.46459985  0.37611112  1  0.122367  0.000109  0.117775  0.124602  -0.000229  0.976084  0.0
H  H25  1  0.88485239  0.53540083  0.87610133  1  0.122714  0.00011  0.11783  0.124673  -0.000229  0.975939  0.0
H  H26  1  0.53535031  0.88485193  0.12408164  1  0.12627  0.000101  0.117854  0.12492  -0.000242  0.976062  0.0
H  H27  1  0.46464090  0.11515946  0.62406956  1  0.126148  0.000101  0.117873  0.124949  -0.000242  0.976171  0.0
H  H28  1  0.11343216  0.30316044  0.35327192  1  0.060825  0.001304  0.112343  0.117942  0.000682  0.996554  0.001
H  H29  1  0.88659010  0.69683986  0.85326412  1  0.060439  0.001305  0.112295  0.117941  0.000682  0.996628  0.001
H  H30  1  0.69661051  0.88655684  0.14677875  1  0.061872  0.001305  0.111904  0.117288  0.000686  0.997449  0.001
H  H31  1  0.30338677  0.11345319  0.64677290  1  0.061763  0.001305  0.111871  0.117236  0.000686  0.997506  0.001
H  H32  1  0.11035614  0.17353392  0.32602038  1  0.066333  0.001064  0.113008  0.119361  0.000546  0.995571  0.001
H  H33  1  0.88965278  0.82647285  0.82601417  1  0.066463  0.001064  0.113006  0.11937  0.000546  0.99571  0.001
H  H34  1  0.82621354  0.88959484  0.17388148  1  0.067872  0.001061  0.112874  0.119297  0.000545  0.995008  0.001
H  H35  1  0.17378573  0.11039494  0.67388149  1  0.067702  0.001062  0.112883  0.119327  0.000545  0.994943  0.001
H  H36  1  0.13320118  0.02079789  0.29363651  1  0.115753  1.4e-05  0.117787  0.123915  -0.000257  0.982632  0.0
H  H37  1  0.86679628  0.97920441  0.79362913  1  0.115818  1.4e-05  0.117794  0.123884  -0.000257  0.982698  0.0
H  H38  1  0.97880387  0.86677070  0.20612330  1  0.115506  3e-06  0.117653  0.123406  -0.000258  0.982844  0.0
H  H39  1  0.02119163  0.13321788  0.70612685  1  0.115503  4e-06  0.117632  0.123446  -0.000258  0.982786  0.0
H  H40  1  0.26099730  0.13521293  0.13665458  1  0.138062  0.002287  0.12507  0.102357  0.000628  1.001415  0.001
H  H41  1  0.73899387  0.86478329  0.63665190  1  0.138168  0.002287  0.125042  0.10227  0.000628  1.001456  0.001
H  H42  1  0.86494161  0.73898098  0.36325522  1  0.1404  0.002273  0.125207  0.102582  0.000607  1.001599  0.001
H  H43  1  0.13506481  0.26101485  0.86325712  1  0.140426  0.002273  0.12527  0.102664  0.000607  1.001589  0.001
H  H44  1  0.97473589  0.73124117  0.45246349  1  0.145816  0.002322  0.125973  0.107328  0.000704  1.009281  0.002
H  H45  1  0.02526512  0.26875242  0.95246242  1  0.145602  0.002322  0.125994  0.107377  0.000704  1.009195  0.002
H  H46  1  0.26913381  0.02549269  0.04752775  1  0.141051  0.00241  0.126203  0.107059  0.000753  1.009099  0.002
H  H47  1  0.73086614  0.97451405  0.54752223  1  0.141177  0.00241  0.12615  0.106981  0.000752  1.008886  0.002
H  H48  1  0.00975650  0.66041821  0.63503610  1  0.12532  5.4e-05  0.1156  0.121499  -0.000233  0.978894  0.0
H  H49  1  0.99025320  0.33958407  0.13503424  1  0.125314  5.4e-05  0.115639  0.121521  -0.000233  0.978946  0.0
H  H50  1  0.33946392  0.99026699  0.86486650  1  0.125869  5.2e-05  0.11562  0.121628  -0.000239  0.979022  0.0
H  H51  1  0.66053923  0.00973175  0.36485802  1  0.126321  5.2e-05  0.115606  0.121594  -0.000239  0.97885  0.0
H  H52  1  0.17108355  0.65736630  0.61339492  1  0.091798  0.001191  0.11192  0.116214  0.00059  0.99963  0.001
H  H53  1  0.82892868  0.34263766  0.11339306  1  0.091782  0.001191  0.111875  0.116152  0.00059  0.999633  0.001
H  H54  1  0.34274188  0.82880943  0.88655638  1  0.089843  0.001193  0.112215  0.116722  0.000597  0.999368  0.001
H  H55  1  0.65724885  0.17118915  0.38654899  1  0.089501  0.001193  0.112236  0.116727  0.000597  0.999383  0.001
H  H56  1  0.29946560  0.64735910  0.58706498  1  0.05771  0.001219  0.111843  0.116403  0.000591  0.997165  0.001
H  H57  1  0.70054050  0.35264162  0.08706631  1  0.057775  0.00122  0.1118  0.116296  0.000591  0.997055  0.001
H  H58  1  0.35252659  0.70007262  0.91290170  1  0.058712  0.001228  0.112217  0.11678  0.0006  0.996838  0.001
H  H59  1  0.64745709  0.29993361  0.41290252  1  0.058894  0.001228  0.112167  0.116707  0.0006  0.996876  0.001
H  H60  1  0.45402422  0.65171329  0.54940459  1  0.14135  1.6e-05  0.117735  0.127825  -0.00026  0.985877  0.0
H  H61  1  0.54597898  0.34828461  0.04940506  1  0.14135  1.6e-05  0.117745  0.12788  -0.00026  0.985872  0.0
H  H62  1  0.34771084  0.54533636  0.95054554  1  0.137707  0.000134  0.118069  0.127869  -0.000184  0.984681  0.0
H  H63  1  0.65227638  0.45467145  0.45054482  1  0.137524  0.000134  0.118016  0.127835  -0.000184  0.984827  0.0
H  H64  1  0.36240523  0.73323506  0.37946008  1  0.143686  0.002154  0.127104  0.108785  0.000501  0.986132  0.001
H  H65  1  0.63760196  0.26676080  0.87945978  1  0.143754  0.002154  0.127113  0.108785  0.000501  0.986127  0.001
H  H66  1  0.26707001  0.63746767  0.12061639  1  0.142804  0.002163  0.127124  0.108683  0.000499  0.985698  0.001
H  H67  1  0.73292832  0.36252613  0.62061133  1  0.142886  0.002163  0.127158  0.108721  0.000499  0.985802  0.001
H  H68  1  0.26708389  0.95435475  0.34795691  1  0.10273  0.003292  0.115378  0.037256  0.001307  0.958363  0.002
H  H69  1  0.73291128  0.04565170  0.84795453  1  0.102898  0.00329  0.115414  0.037217  0.001306  0.95841  0.002
H  H70  1  0.04608734  0.73295330  0.15192635  1  0.085419  0.003338  0.115957  0.037279  0.001311  0.95918  0.002
H  H71  1  0.95391514  0.26704152  0.65192069  1  0.085529  0.003339  0.115943  0.037267  0.001311  0.959043  0.002
H  H72  1  0.41570504  0.18635773  0.06144225  1  0.092906  0.004254  0.114362  0.027425  0.001465  0.981004  0.002
H  H73  1  0.58430219  0.81363861  0.56144012  1  0.092849  0.004252  0.114362  0.027405  0.001464  0.981074  0.002
H  H74  1  0.81412804  0.58524273  0.43861551  1  0.106384  0.004148  0.114404  0.027949  0.001426  0.981778  0.002
H  H75  1  0.18587423  0.41475368  0.93860489  1  0.106266  0.004146  0.114422  0.027963  0.001425  0.981952  0.002
C  C76  1  0.20760092  0.47596998  0.23915476  1  0.401342  -0.011618  0.066441  0.099786  -0.012643  3.869821  -0.007
C  C77  1  0.79240079  0.52402774  0.73915273  1  0.401419  -0.011617  0.066471  0.099663  -0.012642  3.869777  -0.007
C  C78  1  0.52422215  0.79223620  0.26102352  1  0.51844  -0.01198  0.066925  0.099876  -0.012936  3.87013  -0.007
C  C79  1  0.47577445  0.20776678  0.76101400  1  0.518203  -0.011974  0.066881  0.099972  -0.01293  3.870236  -0.007
C  C80  1  0.17495375  0.50555736  0.29254167  1  0.006908  0.013814  -0.006262  -0.065589  0.006647  3.947559  0.013
C  C81  1  0.82505491  0.49444226  0.79253667  1  0.006626  0.013819  -0.006361  -0.065428  0.006649  3.947051  0.013
C  C82  1  0.49455063  0.82492365  0.20767153  1  -0.08707  0.013943  -0.006392  -0.064369  0.006687  3.944804  0.013
C  C83  1  0.50544370  0.17508518  0.70766125  1  -0.086557  0.013943  -0.006364  -0.0644  0.006688  3.944821  0.013
C  C84  1  0.14038936  0.44233477  0.33421084  1  0.001354  -0.021352  -0.062994  -0.046747  -0.022939  3.954649  -0.012
C  C85  1  0.85962815  0.55766506  0.83420362  1  0.000923  -0.021355  -0.06306  -0.046838  -0.022941  3.954191  -0.012
C  C86  1  0.55764223  0.85958347  0.16597536  1  -0.024129  -0.021895  -0.063377  -0.048254  -0.023524  3.954634  -0.013
C  C87  1  0.44235186  0.14042547  0.66596318  1  -0.024484  -0.021889  -0.063412  -0.048289  -0.023518  3.954696  -0.013
C  C88  1  0.13970039  0.35310441  0.32125748  1  -0.00069  0.005288  -0.081704  -0.16259  0.001859  3.977507  0.005
C  C89  1  0.86031506  0.64689589  0.82125057  1  -0.000108  0.005293  -0.081532  -0.162497  0.001862  3.977508  0.005
C  C90  1  0.64680102  0.86028012  0.17885171  1  0.00335  0.005395  -0.081352  -0.161493  0.001894  3.978458  0.005
C  C91  1  0.35319512  0.13972836  0.67884373  1  0.003381  0.005391  -0.081274  -0.161398  0.001892  3.978619  0.005
C  C92  1  0.17430785  0.32806717  0.26703070  1  0.468614  -0.019238  0.116151  0.159774  -0.021579  4.009046  -0.012
C  C93  1  0.82569735  0.67193282  0.76702499  1  0.468802  -0.019239  0.116058  0.159551  -0.021582  4.009145  -0.012
C  C94  1  0.67192117  0.82558435  0.23303380  1  0.466603  -0.019632  0.115881  0.159064  -0.021993  4.009394  -0.012
C  C95  1  0.32807591  0.17441680  0.73302792  1  0.466479  -0.019627  0.115768  0.158865  -0.021987  4.009623  -0.012
C  C96  1  0.17952964  0.23570024  0.24999379  1  0.456536  -0.011499  0.117741  0.165264  -0.013426  4.005388  -0.006
C  C97  1  0.82047614  0.76430184  0.74998882  1  0.456629  -0.011494  0.117837  0.165404  -0.013418  4.005209  -0.006
C  C98  1  0.76422894  0.82032322  0.24995023  1  0.45852  -0.011467  0.118038  0.165191  -0.013379  4.005926  -0.006
C  C99  1  0.23576820  0.17967196  0.74994809  1  0.45844  -0.011472  0.118122  0.165448  -0.013384  4.005611  -0.006
C  C100  1  0.14506353  0.16332868  0.28485306  1  -0.020747  0.002323  -0.080617  -0.159092  0.000623  3.969627  0.003
C  C101  1  0.85494247  0.83667396  0.78484763  1  -0.020683  0.002322  -0.080576  -0.159086  0.000623  3.969828  0.003
C  C102  1  0.83646217  0.85482603  0.21503825  1  -0.021999  0.002267  -0.081039  -0.158905  0.000595  3.970078  0.003
C  C103  1  0.16353143  0.14516559  0.71503729  1  -0.021746  0.002271  -0.081069  -0.159036  0.000597  3.969983  0.003
C  C104  1  0.15674471  0.07841498  0.26682411  1  0.048989  -0.014258  -0.062879  -0.048464  -0.015469  3.954935  -0.008
C  C105  1  0.84325587  0.92158448  0.76681852  1  0.048737  -0.014253  -0.062864  -0.04839  -0.015464  3.954908  -0.008
C  C106  1  0.92132566  0.84316568  0.23299331  1  0.049443  -0.014091  -0.063384  -0.049204  -0.01529  3.955897  -0.008
C  C107  1  0.07867002  0.15682546  0.73299476  1  0.049145  -0.014093  -0.063412  -0.049269  -0.015292  3.956196  -0.008
C  C108  1  0.20015571  0.06645089  0.21309158  1  -0.026313  0.009418  -0.006937  -0.064923  0.004359  3.936443  0.009
C  C109  1  0.79983393  0.93354424  0.71308764  1  -0.025776  0.009414  -0.007034  -0.065013  0.004358  3.936427  0.009
C  C110  1  0.93347079  0.79979160  0.28673349  1  -0.03276  0.009391  -0.006589  -0.064019  0.00433  3.934798  0.009
C  C111  1  0.06652657  0.20020216  0.78673441  1  -0.032759  0.009394  -0.006532  -0.064075  0.004332  3.934872  0.009
C  C112  1  0.22926401  0.14148325  0.17949322  1  0.487748  -0.006286  0.06384  0.099734  -0.006918  3.884781  -0.003
C  C113  1  0.77072810  0.85851490  0.67948886  1  0.487526  -0.006279  0.063838  0.09979  -0.006912  3.884623  -0.003
C  C114  1  0.85857113  0.77063001  0.32038101  1  0.476424  -0.006113  0.06387  0.099394  -0.006763  3.884515  -0.003
C  C115  1  0.14142709  0.22936373  0.82038119  1  0.476495  -0.006118  0.063775  0.099265  -0.006769  3.884369  -0.003
C  C116  1  0.17888087  0.60256086  0.30527320  1  1.598526  -0.012042  0.219725  0.594489  -0.013801  4.182432  -0.008
C  C117  1  0.82112854  0.39743946  0.80527054  1  1.598414  -0.012042  0.219744  0.594222  -0.013799  4.18253  -0.008
C  C118  1  0.39761947  0.82094762  0.19499527  1  1.604534  -0.011729  0.218592  0.593078  -0.013431  4.184299  -0.007
C  C119  1  0.60238270  0.17905819  0.69498791  1  1.604801  -0.01173  0.218802  0.593373  -0.013428  4.184111  -0.007
C  C120  1  0.21735865  0.97500486  0.19482587  1  1.600739  -0.00472  0.220768  0.598773  -0.006076  4.187203  -0.003
C  C121  1  0.78262628  0.02499374  0.69482056  1  1.6005  -0.004709  0.220755  0.598781  -0.006067  4.187098  -0.003
C  C122  1  0.02496596  0.78283392  0.30493833  1  1.614698  -0.004769  0.219738  0.598024  -0.006037  4.188068  -0.003
C  C123  1  0.97503079  0.21715248  0.80493857  1  1.614644  -0.004779  0.219617  0.598124  -0.006046  4.187928  -0.003
C  C124  1  0.01582888  0.71368565  0.48910458  1  0.503206  -0.005224  0.067234  0.102143  -0.005757  3.872908  -0.003
C  C125  1  0.98417566  0.28630821  0.98910341  1  0.503209  -0.005228  0.067265  0.102316  -0.005763  3.872413  -0.003
C  C126  1  0.28659250  0.98438571  0.01084122  1  0.50927  -0.00581  0.066723  0.101587  -0.006411  3.872645  -0.003
C  C127  1  0.71340258  0.01561798  0.51083706  1  0.509507  -0.00581  0.066886  0.101828  -0.006411  3.872131  -0.003
C  C128  1  0.98010461  0.69488299  0.54533813  1  0.014853  0.013849  -0.007698  -0.069657  0.007042  3.944754  0.012
C  C129  1  0.01989523  0.30511060  0.04533858  1  0.014725  0.013853  -0.007807  -0.070036  0.007044  3.944764  0.012
C  C130  1  0.30518633  0.02008569  0.95457219  1  0.011986  0.013911  -0.007551  -0.069552  0.00697  3.946022  0.012
C  C131  1  0.69481213  0.97991878  0.45456637  1  0.011741  0.013911  -0.007581  -0.069508  0.00697  3.945855  0.012
C  C132  1  0.03686837  0.67454972  0.59086110  1  -0.069488  -0.014164  -0.061157  -0.042899  -0.015346  3.950591  -0.008
C  C133  1  0.96313641  0.32544821  0.09086363  1  -0.069735  -0.014169  -0.06108  -0.042718  -0.015351  3.950481  -0.008
C  C134  1  0.32546018  0.96316489  0.90906770  1  -0.067963  -0.014915  -0.060857  -0.04282  -0.016116  3.949701  -0.009
C  C135  1  0.67453863  0.03683584  0.40906055  1  -0.068371  -0.014913  -0.06072  -0.042685  -0.016113  3.949427  -0.009
C  C136  1  0.12591558  0.67273943  0.57853160  1  -0.008893  0.004258  -0.080639  -0.162075  0.001682  3.971519  0.004
C  C137  1  0.87409311  0.32726096  0.07853255  1  -0.007923  0.004257  -0.080615  -0.161336  0.001683  3.972231  0.004
C  C138  1  0.32740483  0.87403710  0.92143023  1  -0.006907  0.00422  -0.080841  -0.162675  0.001637  3.972469  0.004
C  C139  1  0.67259339  0.12596352  0.42142472  1  -0.006271  0.004217  -0.080967  -0.162837  0.001636  3.972566  0.004
C  C140  1  0.15709802  0.69091281  0.52084148  1  0.459495  -0.011486  0.124935  0.176976  -0.013527  3.982438  -0.007
C  C141  1  0.84291298  0.30909003  0.02084282  1  0.458561  -0.011489  0.124897  0.175125  -0.013533  3.985166  -0.007
C  C142  1  0.30937202  0.84287614  0.97913812  1  0.45978  -0.012184  0.125284  0.178114  -0.014273  3.982101  -0.007
C  C143  1  0.69061997  0.15712751  0.47913083  1  0.459001  -0.012177  0.125311  0.178235  -0.01427  3.982006  -0.007
C  C144  1  0.24956912  0.68956559  0.50291374  1  0.458625  -0.010713  0.12068  0.167829  -0.012417  4.002103  -0.006
C  C145  1  0.75043780  0.31043619  0.00291349  1  0.458494  -0.010714  0.120656  0.168223  -0.012416  4.002129  -0.006
C  C146  1  0.31068522  0.75026464  0.99707405  1  0.462751  -0.011616  0.120927  0.166348  -0.013413  4.002179  -0.007
C  C147  1  0.68930885  0.24973655  0.49706795  1  0.462586  -0.01162  0.120775  0.166164  -0.013416  4.002321  -0.007
C  C148  1  0.31512845  0.66629189  0.54135974  1  0.043475  0.00423  -0.079187  -0.155396  0.001769  3.970339  0.004
C  C149  1  0.68487076  0.33370822  0.04135795  1  0.042985  0.004231  -0.079248  -0.155379  0.001769  3.969707  0.004
C  C150  1  0.33366055  0.68447221  0.95862734  1  0.033849  0.004482  -0.079097  -0.155158  0.001872  3.968098  0.004
C  C151  1  0.66633330  0.31553172  0.45862597  1  0.033575  0.004483  -0.079132  -0.155247  0.001872  3.968279  0.004
C  C152  1  0.40099930  0.66832392  0.52069985  1  -0.035563  -0.014457  -0.060367  -0.039874  -0.015555  3.940923  -0.009
C  C153  1  0.59899710  0.33167200  0.02069695  1  -0.034931  -0.014458  -0.060283  -0.039821  -0.015556  3.940838  -0.009
C  C154  1  0.33138536  0.59845438  0.97930426  1  -0.031686  -0.015085  -0.060274  -0.039174  -0.016239  3.938488  -0.009
C  C155  1  0.66860598  0.40155051  0.47930410  1  -0.031856  -0.015093  -0.06011  -0.038936  -0.016247  3.938411  -0.009
C  C156  1  0.42059206  0.69329900  0.46185662  1  -0.005827  0.014093  -0.007449  -0.069487  0.007249  3.927724  0.012
C  C157  1  0.57940574  0.30670011  0.96185610  1  -0.005709  0.014089  -0.007513  -0.069519  0.007247  3.928137  0.012
C  C158  1  0.30654400  0.57902070  0.03818146  1  0.001194  0.014221  -0.006932  -0.070065  0.007249  3.930094  0.012
C  C159  1  0.69344860  0.42098196  0.53818241  1  0.001073  0.01422  -0.00691  -0.069946  0.007248  3.930261  0.012
C  C160  1  0.35123975  0.71389692  0.42568886  1  0.461179  -0.009  0.065215  0.096843  -0.009886  3.877546  -0.006
C  C161  1  0.64876113  0.28610267  0.92568990  1  0.460934  -0.009001  0.06523  0.096844  -0.009887  3.877382  -0.006
C  C162  1  0.28631380  0.64860677  0.07435524  1  0.460436  -0.010172  0.065655  0.097671  -0.011127  3.875214  -0.006
C  C163  1  0.71368095  0.35138811  0.57435103  1  0.460996  -0.010174  0.065588  0.097411  -0.01113  3.875655  -0.006
C  C164  1  0.88301311  0.69581035  0.55621416  1  1.599198  -0.004774  0.219214  0.601792  -0.005909  4.191322  -0.003
C  C165  1  0.11699473  0.30418346  0.05621443  1  1.599496  -0.004774  0.219286  0.601945  -0.00591  4.190992  -0.003
C  C166  1  0.30435212  0.11719577  0.94336320  1  1.590432  -0.007068  0.219659  0.600264  -0.008599  4.189559  -0.005
C  C167  1  0.69565154  0.88280604  0.44335975  1  1.590363  -0.007068  0.219603  0.600168  -0.008599  4.18938  -0.005
C  C168  1  0.51552020  0.69972710  0.44137022  1  1.59274  -0.002124  0.219919  0.599507  -0.003027  4.186658  -0.002
C  C169  1  0.48448610  0.30027699  0.94136590  1  1.592648  -0.002121  0.219964  0.599718  -0.003024  4.186838  -0.002
C  C170  1  0.29958142  0.48423248  0.05900790  1  1.593106  -0.004179  0.221078  0.599673  -0.005308  4.184529  -0.003
C  C171  1  0.70041721  0.51576422  0.55900962  1  1.59319  -0.004179  0.221014  0.599668  -0.005306  4.184728  -0.003
C  C172  1  0.23419556  0.89233727  0.36762619  1  1.51497  0.002507  0.138535  0.480294  0.000509  4.189022  0.0
C  C173  1  0.76580308  0.10767410  0.86761849  1  1.515439  0.002514  0.138674  0.480575  0.00051  4.188237  0.0
C  C174  1  0.10802131  0.76582051  0.13224559  1  1.530384  0.002649  0.13774  0.479394  0.000645  4.188475  0.0
C  C175  1  0.89197645  0.23417779  0.63224026  1  1.530272  0.002648  0.137903  0.479471  0.000644  4.188295  0.0
C  C176  1  0.40194804  0.23266520  0.09714488  1  1.533284  0.000818  0.148381  0.493635  1.8e-05  4.189118  0.0
C  C177  1  0.59805286  0.76733884  0.59714329  1  1.533207  0.00082  0.148373  0.493652  2.1e-05  4.188971  0.0
C  C178  1  0.76767013  0.59863209  0.40295002  1  1.525766  0.000876  0.149  0.493151  6.4e-05  4.187873  0.001
C  C179  1  0.23233255  0.40136055  0.90295065  1  1.525939  0.000869  0.148944  0.493104  5.8e-05  4.187787  0.001
N  N180  1  0.20775781  0.38971772  0.22680124  1  -1.199947  0.061124  -0.322184  -0.273976  0.032362  3.569328  0.054
N  N181  1  0.79224383  0.61027937  0.72679997  1  -1.200035  0.061127  -0.322217  -0.273911  0.032364  3.569349  0.054
N  N182  1  0.61039508  0.79209538  0.27330490  1  -1.204447  0.060327  -0.3231  -0.274644  0.031923  3.570727  0.054
N  N183  1  0.38960355  0.20790318  0.77329914  1  -1.20402  0.060326  -0.323029  -0.274642  0.031924  3.570929  0.054
N  N184  1  0.22127815  0.22412230  0.19784074  1  -1.207654  0.051314  -0.314814  -0.282686  0.026882  3.543654  0.046
N  N185  1  0.77871937  0.77587838  0.69783963  1  -1.20785  0.051313  -0.314811  -0.282663  0.026881  3.543464  0.046
N  N186  1  0.77597267  0.77854002  0.30208211  1  -1.212267  0.051519  -0.314646  -0.282006  0.027007  3.542505  0.046
N  N187  1  0.22402609  0.22145188  0.80208031  1  -1.212109  0.051518  -0.314637  -0.281905  0.027006  3.542296  0.046
N  N188  1  0.10183747  0.71159666  0.47704482  1  -1.195325  0.061669  -0.323502  -0.264579  0.032998  3.568717  0.049
N  N189  1  0.89816768  0.28840192  0.97704608  1  -1.194871  0.061661  -0.3235  -0.264004  0.032994  3.568981  0.049
N  N190  1  0.28877457  0.89826370  0.02292245  1  -1.193159  0.061685  -0.322915  -0.264938  0.033035  3.566045  0.049
N  N191  1  0.71121794  0.10174032  0.52291727  1  -1.19283  0.061687  -0.323076  -0.265181  0.033039  3.566007  0.049
N  N192  1  0.26797320  0.71239678  0.44569656  1  -1.210426  0.058613  -0.313233  -0.270332  0.030151  3.537488  0.054
N  N193  1  0.73202980  0.28760429  0.94569648  1  -1.210422  0.058615  -0.313201  -0.270221  0.030152  3.537245  0.054
N  N194  1  0.28797951  0.73197966  0.05432386  1  -1.206866  0.057986  -0.313735  -0.27016  0.029828  3.53823  0.053
N  N195  1  0.71201709  0.26801484  0.55431977  1  -1.206988  0.057987  -0.313614  -0.269855  0.029829  3.538154  0.053
O  O196  1  0.20712409  0.65518295  0.26408674  1  -1.141607  0.073609  -0.301835  -0.552128  0.038523  2.37246  0.064
O  O197  1  0.79289432  0.34481723  0.76408143  1  -1.141625  0.073628  -0.301763  -0.551951  0.038534  2.372577  0.064
O  O198  1  0.34513003  0.79255716  0.23618922  1  -1.144499  0.072142  -0.302172  -0.552485  0.037666  2.370169  0.063
O  O199  1  0.65487180  0.20745899  0.73618151  1  -1.144737  0.072135  -0.302315  -0.552618  0.03766  2.370028  0.063
O  O200  1  0.15403340  0.62244890  0.35718581  1  -1.144653  0.08598  -0.314246  -0.550493  0.043935  2.385254  0.074
O  O201  1  0.84596180  0.37755357  0.85718680  1  -1.144512  0.085968  -0.314267  -0.550413  0.04393  2.385288  0.074
O  O202  1  0.37770358  0.84589965  0.14310032  1  -1.147273  0.086105  -0.313987  -0.550761  0.043997  2.385961  0.074
O  O203  1  0.62229559  0.15410140  0.64309482  1  -1.147339  0.086106  -0.314045  -0.550957  0.044  2.386186  0.074
O  O204  1  0.23313882  0.96137016  0.14034528  1  -1.153678  0.067691  -0.30676  -0.546106  0.035186  2.347124  0.058
O  O205  1  0.76686561  0.03862887  0.64033591  1  -1.154274  0.067697  -0.306823  -0.546184  0.035183  2.346898  0.058
O  O206  1  0.03871168  0.76711310  0.35941987  1  -1.150342  0.067509  -0.306601  -0.546173  0.035104  2.345184  0.058
O  O207  1  0.96128752  0.23289113  0.85941739  1  -1.150249  0.067493  -0.30659  -0.546289  0.035096  2.345093  0.058
O  O208  1  0.21518849  0.91978423  0.23709848  1  -1.164025  0.065951  -0.305426  -0.574692  0.03486  2.412949  0.057
O  O209  1  0.78477552  0.08020987  0.73709530  1  -1.163647  0.06595  -0.305299  -0.574594  0.034858  2.412986  0.057
O  O210  1  0.08005269  0.78522510  0.26261127  1  -1.165887  0.064756  -0.30531  -0.575478  0.034111  2.408605  0.057
O  O211  1  0.91993969  0.21474123  0.76261270  1  -1.16611  0.064762  -0.305191  -0.575478  0.034112  2.408805  0.057
O  O212  1  0.83685902  0.71297632  0.51179770  1  -1.150214  0.068446  -0.305947  -0.570076  0.035056  2.38446  0.061
O  O213  1  0.16314658  0.28701870  0.01179546  1  -1.150285  0.068444  -0.305981  -0.57014  0.035057  2.384463  0.061
O  O214  1  0.28769103  0.16426670  0.98747295  1  -1.146961  0.078033  -0.304844  -0.564623  0.040707  2.387178  0.068
O  O215  1  0.71231028  0.83573929  0.48747405  1  -1.146893  0.078029  -0.304808  -0.564653  0.040703  2.386958  0.068
O  O216  1  0.85701743  0.67914863  0.60908423  1  -1.155762  0.072276  -0.312416  -0.563813  0.037267  2.38134  0.062
O  O217  1  0.14298678  0.32084655  0.10908543  1  -1.156014  0.072293  -0.312408  -0.563834  0.037271  2.381226  0.062
O  O218  1  0.32086182  0.14277070  0.89040393  1  -1.152205  0.071907  -0.311455  -0.560805  0.037063  2.383277  0.062
O  O219  1  0.67914744  0.85722865  0.39039914  1  -1.152207  0.071908  -0.311425  -0.560715  0.037063  2.383151  0.062
O  O220  1  0.53222953  0.71555181  0.38681063  1  -1.141913  0.066012  -0.307019  -0.547429  0.034049  2.325558  0.057
O  O221  1  0.46777315  0.28445470  0.88680763  1  -1.142156  0.066023  -0.307062  -0.547515  0.034051  2.325663  0.057
O  O222  1  0.28420984  0.46807554  0.11368284  1  -1.142337  0.065752  -0.306847  -0.546293  0.033935  2.329099  0.056
O  O223  1  0.71578913  0.53192231  0.61368414  1  -1.142455  0.065751  -0.306808  -0.546293  0.033935  2.329116  0.056
O  O224  1  0.57026034  0.68912069  0.48233137  1  -1.156637  0.059616  -0.306916  -0.577088  0.030702  2.417656  0.052
O  O225  1  0.42974160  0.31088539  0.98232512  1  -1.156414  0.059617  -0.306916  -0.577235  0.030704  2.417566  0.052
O  O226  1  0.30909958  0.42850398  0.01843820  1  -1.161  0.069482  -0.306011  -0.573233  0.036035  2.425673  0.061
O  O227  1  0.69089815  0.57149407  0.51844070  1  -1.160811  0.069477  -0.305958  -0.573256  0.036032  2.425724  0.061
O  O228  1  0.24008459  0.81955557  0.33876721  1  -1.15878  0.113286  -0.322362  -0.563763  0.059931  2.552437  0.098
O  O229  1  0.75990591  0.18045104  0.83875672  1  -1.158646  0.113252  -0.322472  -0.56389  0.059923  2.552005  0.098
O  O230  1  0.18073166  0.75981516  0.16108389  1  -1.158759  0.113538  -0.322503  -0.563699  0.060055  2.551917  0.098
O  O231  1  0.81926891  0.24018139  0.66108368  1  -1.158804  0.113547  -0.322528  -0.56382  0.06006  2.552006  0.098
O  O232  1  0.19315816  0.89172404  0.41569704  1  -1.137651  0.074829  -0.321146  -0.494452  0.037839  2.132989  0.062
O  O233  1  0.80684146  0.10829122  0.91569433  1  -1.138354  0.074862  -0.321215  -0.494558  0.037855  2.132505  0.062
O  O234  1  0.10866945  0.80693417  0.08418575  1  -1.135092  0.074957  -0.320989  -0.493529  0.03788  2.130702  0.063
O  O235  1  0.89131888  0.19307968  0.58417737  1  -1.135064  0.074958  -0.321101  -0.493503  0.037878  2.130633  0.063
O  O236  1  0.33296480  0.27344430  0.08860231  1  -1.162295  0.106403  -0.318513  -0.572801  0.057274  2.551056  0.09
O  O237  1  0.66703865  0.72655415  0.58860141  1  -1.162363  0.106423  -0.318461  -0.572805  0.057284  2.551039  0.09
O  O238  1  0.72645881  0.66741644  0.41148793  1  -1.162012  0.107053  -0.318688  -0.571799  0.057815  2.55041  0.091
O  O239  1  0.27354730  0.33258708  0.91148300  1  -1.162147  0.107032  -0.318572  -0.57166  0.057802  2.550958  0.091
O  O240  1  0.45132583  0.24126620  0.14169132  1  -1.168184  0.013204  -0.326508  -0.496952  0.006272  2.154545  0.01
O  O241  1  0.54867400  0.75873493  0.64168562  1  -1.168007  0.013206  -0.326567  -0.496965  0.006273  2.154461  0.01
O  O242  1  0.75901674  0.54891056  0.35855762  1  -1.174365  0.013255  -0.326976  -0.497264  0.006291  2.155167  0.01
O  O243  1  0.24098638  0.45108821  0.85854666  1  -1.174328  0.013263  -0.327082  -0.497403  0.006294  2.154253  0.01
O  O244  1  0.38909968  0.36975574  0.19510118  1  -1.24165  0.061429  -0.573137  -0.753106  0.031552  2.087104  0.048
O  O245  1  0.61089915  0.63024509  0.69509939  1  -1.241277  0.061429  -0.573041  -0.752914  0.031551  2.087107  0.048
O  O246  1  0.63049263  0.61054904  0.30500228  1  -1.240513  0.06168  -0.573373  -0.752763  0.031758  2.08662  0.048
O  O247  1  0.36950617  0.38944614  0.80499575  1  -1.239919  0.061684  -0.573448  -0.752911  0.03176  2.086661  0.048
