# generated using pymatgen
data_ZnH9C13(NO)5
_symmetry_space_group_name_H-M   'P 1'
_cell_length_a   7.68580930
_cell_length_b   9.22123585
_cell_length_c   9.22122520
_cell_angle_alpha   96.37437935
_cell_angle_beta   92.68419891
_cell_angle_gamma   92.68407806
_symmetry_Int_Tables_number   1
_chemical_formula_structural   ZnH9C13(NO)5
_chemical_formula_sum   'Zn2 H18 C26 N10 O10'
_cell_volume   647.88816724
_cell_formula_units_Z   2
loop_
 _symmetry_equiv_pos_site_id
 _symmetry_equiv_pos_as_xyz
  1  'x, y, z'
loop_
 _atom_site_type_symbol
 _atom_site_label
 _atom_site_symmetry_multiplicity
 _atom_site_fract_x
 _atom_site_fract_y
 _atom_site_fract_z
 _atom_site_occupancy
 _atom_site_hle17_bader_spin_density
 _atom_site_hle17_ddec_charge
 _atom_site_hle17_ddec_spin_density
 _atom_site_hle17_ddec_sum_bond_order
 _atom_site_hle17_magmom
 _atom_site_hse06_10hf_bader_spin_density
 _atom_site_hse06_10hf_ddec_charge
 _atom_site_hse06_10hf_ddec_spin_density
 _atom_site_hse06_10hf_ddec_sum_bond_order
 _atom_site_hse06_10hf_magmom
 _atom_site_hse06_bader_spin_density
 _atom_site_hse06_ddec_charge
 _atom_site_hse06_ddec_spin_density
 _atom_site_hse06_ddec_sum_bond_order
 _atom_site_hse06_magmom
 _atom_site_pbe_bader_spin_density
 _atom_site_pbe_cm5_charge
 _atom_site_pbe_ddec_charge
 _atom_site_pbe_ddec_spin_density
 _atom_site_pbe_ddec_sum_bond_order
 _atom_site_pbe_magmom
Zn  Zn0  1  0.50000089  0.99999905  0.00000209  1  0  1.077826  0  1.805568  0  0  0.904278  0  2.252766  0  0  0.94817  0  2.201139  0  0  0.709322  0.872723  0  2.291042  0
Zn  Zn1  1  0.00000011  0.00000063  0.99999760  1  0  1.077776  0  1.805637  0  0  0.904214  0  2.252837  0  0  0.948109  0  2.201212  0  0  0.709313  0.872663  0  2.291115  0
H  H2  1  0.99205644  0.63908436  0.99082976  1  0  0.110654  0  0.959034  0  0  0.120136  0  1.018911  0  0  0.122109  0  1.018814  0  0  0.119166  0.119014  0  1.018068  0
H  H3  1  0.50794096  0.00917290  0.36091961  1  0  0.110609  0  0.959178  0  0  0.12013  0  1.018993  0  0  0.122103  0  1.018895  0  0  0.119164  0.119008  0  1.018149  0
H  H4  1  0.00794128  0.36091747  0.00916948  1  0  0.11065  0  0.959089  0  0  0.12013  0  1.018967  0  0  0.122103  0  1.018872  0  0  0.119158  0.119009  0  1.018122  0
H  H5  1  0.49205678  0.99082895  0.63908288  1  0  0.110625  0  0.959076  0  0  0.120122  0  1.018933  0  0  0.122094  0  1.018839  0  0  0.119163  0.118999  0  1.018089  0
H  H6  1  0.09805358  0.91821619  0.67075195  1  0  0.104129  0  0.962361  0  0  0.109625  0  1.031591  0  0  0.112934  0  1.026736  0  0  0.136354  0.106673  0  1.036216  0
H  H7  1  0.40194889  0.32924658  0.08178612  1  0  0.104175  0  0.96233  0  0  0.109668  0  1.03155  0  0  0.112978  0  1.026695  0  0  0.136375  0.106717  0  1.036179  0
H  H8  1  0.90194798  0.08178457  0.32924622  1  0  0.104176  0  0.962321  0  0  0.109674  0  1.031541  0  0  0.112981  0  1.02669  0  0  0.136378  0.106722  0  1.036168  0
H  H9  1  0.59805127  0.67075201  0.91821612  1  0  0.104221  0  0.962262  0  0  0.109705  0  1.031497  0  0  0.113016  0  1.02664  0  0  0.136375  0.106754  0  1.036126  0
H  H10  1  0.24999935  0.43148687  0.56851562  1  0  0.126867  0  0.957445  0  0  0.135058  0  1.025254  0  0  0.139238  0  1.021245  0  0  0.115157  0.132086  0  1.0282  0
H  H11  1  0.74999963  0.56851390  0.43148571  1  0  0.12681  0  0.95753  0  0  0.135021  0  1.025309  0  0  0.139201  0  1.021304  0  0  0.115132  0.13205  0  1.028256  0
H  H12  1  0.10069826  0.84536848  0.43583368  1  0  0.124754  0  0.944255  0  0  0.13426  0  1.00619  0  0  0.137791  0  1.003977  0  0  0.113201  0.132095  0  1.006853  0
H  H13  1  0.39929983  0.56416477  0.15463253  1  0  0.124759  0  0.94431  0  0  0.13426  0  1.006247  0  0  0.137792  0  1.004033  0  0  0.113203  0.132095  0  1.006912  0
H  H14  1  0.89930468  0.15463339  0.56416683  1  0  0.124763  0  0.944247  0  0  0.134263  0  1.006189  0  0  0.137795  0  1.003976  0  0  0.113198  0.132099  0  1.006853  0
H  H15  1  0.60069628  0.43583160  0.84536608  1  0  0.124754  0  0.944269  0  0  0.134261  0  1.006202  0  0  0.137792  0  1.003992  0  0  0.113215  0.132098  0  1.006867  0
H  H16  1  0.10207453  0.47147527  0.74850560  1  0  0.118745  0  0.996796  0  0  0.125505  0  1.062331  0  0  0.128393  0  1.06074  0  0  0.117788  0.122223  0  1.065585  0
H  H17  1  0.39792548  0.25149452  0.52852394  1  0  0.118731  0  0.996788  0  0  0.125484  0  1.062338  0  0  0.128372  0  1.060745  0  0  0.117751  0.122202  0  1.06559  0
H  H18  1  0.89792436  0.52852439  0.25149236  1  0  0.118703  0  0.996819  0  0  0.125459  0  1.062366  0  0  0.128346  0  1.060776  0  0  0.11777  0.122178  0  1.065618  0
H  H19  1  0.60207349  0.74850623  0.47147523  1  0  0.118711  0  0.996801  0  0  0.125473  0  1.062341  0  0  0.128359  0  1.060751  0  0  0.117766  0.122192  0  1.065593  0
C  C20  1  0.24999847  0.71372924  0.28627120  1  0  -0.022647  0  3.765209  0  0  0.001056  0  4.001194  0  0  -0.003243  0  4.022756  0  0  -0.011709  0.00525  0  3.983987  0
C  C21  1  0.74999914  0.28627041  0.71372889  1  0  -0.022698  0  3.765173  0  0  0.00103  0  4.001166  0  0  -0.00327  0  4.022729  0  0  -0.011712  0.005226  0  3.983957  0
C  C22  1  0.03092672  0.67135348  0.88718201  1  0  0.014657  0  3.719797  0  0  -0.020369  0  3.987221  0  0  -0.019018  0  4.008197  0  0  -0.002119  -0.021224  0  3.971563  0
C  C23  1  0.46907513  0.11281626  0.32864510  1  0  0.01469  0  3.719942  0  0  -0.020354  0  3.987362  0  0  -0.019005  0  4.008338  0  0  -0.002057  -0.021208  0  3.9717  0
C  C24  1  0.96907223  0.32864726  0.11281607  1  0  0.014634  0  3.719813  0  0  -0.020389  0  3.987243  0  0  -0.019042  0  4.00822  0  0  -0.00211  -0.021243  0  3.971588  0
C  C25  1  0.53092755  0.88718123  0.67135277  1  0  0.01466  0  3.719907  0  0  -0.020372  0  3.987334  0  0  -0.019025  0  4.008311  0  0  -0.002126  -0.021228  0  3.971679  0
C  C26  1  0.07735742  0.81947058  0.72261673  1  0  0.199775  0  3.588622  0  0  0.136897  0  3.853093  0  0  0.152208  0  3.863257  0  0  0.149659  0.125202  0  3.848711  0
C  C27  1  0.42264405  0.27738421  0.18053141  1  0  0.199739  0  3.588584  0  0  0.1369  0  3.853017  0  0  0.152206  0  3.863182  0  0  0.149659  0.125201  0  3.848641  0
C  C28  1  0.92264552  0.18053129  0.27738378  1  0  0.199734  0  3.588558  0  0  0.136882  0  3.853002  0  0  0.152188  0  3.863167  0  0  0.149646  0.125186  0  3.848625  0
C  C29  1  0.57735481  0.72261437  0.81946969  1  0  0.199763  0  3.58849  0  0  0.136932  0  3.852919  0  0  0.152239  0  3.863081  0  0  0.149703  0.125235  0  3.848543  0
C  C30  1  0.25000095  0.51060446  0.48939511  1  0  -0.221491  0  3.66395  0  0  -0.258316  0  3.929578  0  0  -0.261852  0  3.945209  0  0  -0.092753  -0.255156  0  3.918951  0
C  C31  1  0.75000063  0.48939631  0.51060523  1  0  -0.221405  0  3.664003  0  0  -0.258248  0  3.929609  0  0  -0.261783  0  3.945241  0  0  -0.092719  -0.255089  0  3.918982  0
C  C32  1  0.17619687  0.64549310  0.52160102  1  0  0.203351  0  3.791943  0  0  0.197286  0  4.043431  0  0  0.204042  0  4.065074  0  0  0.099703  0.192337  0  4.028763  0
C  C33  1  0.32380355  0.47839873  0.35450581  1  0  0.203521  0  3.791841  0  0  0.197431  0  4.043356  0  0  0.204187  0  4.064996  0  0  0.099718  0.19248  0  4.028691  0
C  C34  1  0.82380334  0.35450657  0.47839916  1  0  0.203441  0  3.79191  0  0  0.197361  0  4.043413  0  0  0.204119  0  4.065055  0  0  0.099704  0.192412  0  4.028747  0
C  C35  1  0.67619790  0.52159985  0.64549322  1  0  0.203344  0  3.791896  0  0  0.197285  0  4.043383  0  0  0.204042  0  4.065024  0  0  0.099709  0.192337  0  4.028715  0
C  C36  1  0.16782129  0.74428018  0.41732897  1  0  -0.168326  0  3.705504  0  0  -0.204229  0  3.962187  0  0  -0.207849  0  3.982007  0  0  -0.086098  -0.201495  0  3.946654  0
C  C37  1  0.33217609  0.58267132  0.25571863  1  0  -0.168411  0  3.705571  0  0  -0.204302  0  3.962255  0  0  -0.207923  0  3.982075  0  0  -0.08608  -0.201569  0  3.946726  0
C  C38  1  0.83218035  0.25572168  0.58267149  1  0  -0.168413  0  3.705597  0  0  -0.204306  0  3.962268  0  0  -0.207927  0  3.98209  0  0  -0.086091  -0.201572  0  3.946735  0
C  C39  1  0.66782151  0.41732834  0.74428038  1  0  -0.168332  0  3.705545  0  0  -0.204239  0  3.962224  0  0  -0.20786  0  3.982045  0  0  -0.086105  -0.201509  0  3.946696  0
C  C40  1  0.08287515  0.58740074  0.76695089  1  0  -0.058762  0  3.661708  0  0  -0.100072  0  3.921933  0  0  -0.099335  0  3.941909  0  0  -0.003974  -0.099104  0  3.908403  0
C  C41  1  0.41712426  0.23304597  0.41260072  1  0  -0.05877  0  3.661633  0  0  -0.100074  0  3.921857  0  0  -0.099336  0  3.941832  0  0  -0.004012  -0.099105  0  3.908325  0
C  C42  1  0.91712388  0.41260110  0.23304839  1  0  -0.058729  0  3.661633  0  0  -0.100031  0  3.921854  0  0  -0.099294  0  3.941833  0  0  -0.003992  -0.099063  0  3.908325  0
C  C43  1  0.58287447  0.76695042  0.58740015  1  0  -0.058736  0  3.66163  0  0  -0.100039  0  3.921858  0  0  -0.099302  0  3.941837  0  0  -0.003983  -0.09907  0  3.908325  0
C  C44  1  0.24999889  0.82352387  0.17647510  1  0  0.66036  0  3.905034  0  0  0.606758  0  4.201516  0  0  0.641577  0  4.192877  0  0  0.212466  0.583899  0  4.203979  0
C  C45  1  0.74999996  0.17647470  0.82352492  1  0  0.660536  0  3.904774  0  0  0.606862  0  4.201358  0  0  0.641682  0  4.192721  0  0  0.21252  0.584002  0  4.20382  0
N  N46  1  0.02840824  0.81538359  0.85817368  1  0  -0.370317  0  3.284709  0  0  -0.291411  0  3.568795  0  0  -0.311293  0  3.583364  0  0  -0.348349  -0.278462  0  3.560702  0
N  N47  1  0.47159385  0.14182758  0.18461704  1  0  -0.370297  0  3.284704  0  0  -0.291447  0  3.56887  0  0  -0.311312  0  3.583411  0  0  -0.348373  -0.27849  0  3.560763  0
N  N48  1  0.97159339  0.18461827  0.14182569  1  0  -0.370286  0  3.284608  0  0  -0.291428  0  3.568757  0  0  -0.311292  0  3.583298  0  0  -0.348356  -0.278479  0  3.560664  0
N  N49  1  0.52840635  0.85817208  0.81538205  1  0  -0.370387  0  3.284744  0  0  -0.29153  0  3.56887  0  0  -0.311398  0  3.583422  0  0  -0.348389  -0.278582  0  3.560776  0
N  N50  1  0.11172816  0.68211330  0.66214259  1  0  -0.097897  0  3.573363  0  0  -0.007215  0  3.781853  0  0  -0.022928  0  3.807891  0  0  -0.223571  0.003146  0  3.76447  0
N  N51  1  0.38827347  0.33785735  0.31788896  1  0  -0.097936  0  3.573417  0  0  -0.007254  0  3.7819  0  0  -0.022969  0  3.80794  0  0  -0.223549  0.003108  0  3.764518  0
N  N52  1  0.88827348  0.31788856  0.33785787  1  0  -0.097896  0  3.573307  0  0  -0.007216  0  3.781789  0  0  -0.022931  0  3.807827  0  0  -0.223531  0.003146  0  3.764407  0
N  N53  1  0.61172533  0.66214014  0.68211203  1  0  -0.097861  0  3.573195  0  0  -0.007203  0  3.781689  0  0  -0.022916  0  3.807725  0  0  -0.223562  0.003158  0  3.764305  0
N  N54  1  0.25000036  0.18477153  0.81522870  1  0  0.719994  0  4.111184  0  0  0.759176  0  4.394548  0  0  0.789116  0  4.396508  0  0  0.106386  0.738416  0  4.392751  0
N  N55  1  0.74999991  0.81522924  0.18477159  1  0  0.720017  0  4.111174  0  0  0.759153  0  4.394623  0  0  0.789087  0  4.396591  0  0  0.106359  0.738393  0  4.39283  0
O  O56  1  0.24999974  0.09008262  0.90991733  1  0  -0.558181  0  1.936978  0  0  -0.530442  0  2.213943  0  0  -0.547752  0  2.197934  0  0  -0.210904  -0.517446  0  2.226818  0
O  O57  1  0.75000046  0.90991705  0.09008176  1  0  -0.558208  0  1.937022  0  0  -0.530458  0  2.213992  0  0  -0.547758  0  2.197981  0  0  -0.210892  -0.517459  0  2.226865  0
O  O58  1  0.37930358  0.82545184  0.09589146  1  0  -0.635958  0  2.070712  0  0  -0.574218  0  2.34061  0  0  -0.60173  0  2.330214  0  0  -0.316476  -0.554499  0  2.34598  0
O  O59  1  0.12069682  0.90410931  0.17454828  1  0  -0.635953  0  2.07072  0  0  -0.574222  0  2.340628  0  0  -0.601735  0  2.330231  0  0  -0.316489  -0.554503  0  2.345998  0
O  O60  1  0.62069663  0.17454783  0.90410872  1  0  -0.635998  0  2.07062  0  0  -0.574254  0  2.340579  0  0  -0.601759  0  2.330162  0  0  -0.316492  -0.554538  0  2.345957  0
O  O61  1  0.87930345  0.09589145  0.82545093  1  0  -0.636007  0  2.070594  0  0  -0.574242  0  2.340536  0  0  -0.601746  0  2.330121  0  0  -0.316514  -0.554529  0  2.345923  0
O  O62  1  0.25365649  0.31832036  0.85994940  1  0  -0.436201  0  1.763895  0  0  -0.43499  0  1.973781  0  0  -0.447976  0  1.966877  0  0  -0.169286  -0.425804  0  1.980087  0
O  O63  1  0.24634259  0.14005120  0.68168126  1  0  -0.436173  0  1.763902  0  0  -0.434945  0  1.973776  0  0  -0.447932  0  1.966873  0  0  -0.169271  -0.42576  0  1.980083  0
O  O64  1  0.74634255  0.68168150  0.14005205  1  0  -0.436166  0  1.763928  0  0  -0.434928  0  1.973825  0  0  -0.447909  0  1.966917  0  0  -0.169246  -0.425738  0  1.980118  0
O  O65  1  0.75365634  0.85994848  0.31832104  1  0  -0.43621  0  1.763894  0  0  -0.434993  0  1.973809  0  0  -0.44797  0  1.966895  0  0  -0.16929  -0.42581  0  1.980118  0
