# generated using pymatgen
data_CaH10C10N2O5
_symmetry_space_group_name_H-M   'P 1'
_cell_length_a   6.45626193
_cell_length_b   10.78564392
_cell_length_c   16.54930175
_cell_angle_alpha   89.99953096
_cell_angle_beta   89.99951215
_cell_angle_gamma   99.84397562
_symmetry_Int_Tables_number   1
_chemical_formula_structural   CaH10C10N2O5
_chemical_formula_sum   'Ca4 H40 C40 N8 O20'
_cell_volume   1135.44270854
_cell_formula_units_Z   4
loop_
 _symmetry_equiv_pos_site_id
 _symmetry_equiv_pos_as_xyz
  1  'x, y, z'
loop_
 _atom_site_type_symbol
 _atom_site_label
 _atom_site_symmetry_multiplicity
 _atom_site_fract_x
 _atom_site_fract_y
 _atom_site_fract_z
 _atom_site_occupancy
 _atom_site_hle17_bader_spin_density
 _atom_site_hle17_ddec_charge
 _atom_site_hle17_ddec_spin_density
 _atom_site_hle17_ddec_sum_bond_order
 _atom_site_hle17_magmom
 _atom_site_hse06_10hf_bader_spin_density
 _atom_site_hse06_10hf_ddec_charge
 _atom_site_hse06_10hf_ddec_spin_density
 _atom_site_hse06_10hf_ddec_sum_bond_order
 _atom_site_hse06_10hf_magmom
 _atom_site_hse06_bader_spin_density
 _atom_site_hse06_ddec_charge
 _atom_site_hse06_ddec_spin_density
 _atom_site_hse06_ddec_sum_bond_order
 _atom_site_hse06_magmom
 _atom_site_pbe_bader_spin_density
 _atom_site_pbe_cm5_charge
 _atom_site_pbe_ddec_charge
 _atom_site_pbe_ddec_spin_density
 _atom_site_pbe_ddec_sum_bond_order
 _atom_site_pbe_magmom
Ca  Ca0  1  0.78364899  0.58302269  0.95732516  1  0  1.505977  0  1.161067  0  0  1.363254  0  1.520873  0  0  1.410905  0  1.473331  0  0  0.876504  1.328083  0  1.553812  0
Ca  Ca1  1  0.71637066  0.91698462  0.45732987  1  0  1.505941  0  1.161034  0  0  1.36325  0  1.520807  0  0  1.410897  0  1.473267  0  0  0.876517  1.328023  0  1.553842  0
Ca  Ca2  1  0.21634751  0.41698046  0.04267163  1  0  1.506046  0  1.16099  0  0  1.363335  0  1.52078  0  0  1.410983  0  1.473239  0  0  0.876509  1.328124  0  1.553795  0
Ca  Ca3  1  0.28366412  0.08302802  0.54267175  1  0  1.506108  0  1.160863  0  0  1.363446  0  1.52061  0  0  1.411094  0  1.473068  0  0  0.876545  1.328155  0  1.553768  0
H  H4  1  0.19922509  0.75367454  0.76035663  1  0  0.103752  0  1.002708  0  0  0.110269  0  1.070562  0  0  0.114407  0  1.06716  0  0  0.107766  0.107161  0  1.073337  0
H  H5  1  0.30077330  0.74631758  0.26036318  1  0  0.103664  0  1.002841  0  0  0.110202  0  1.070674  0  0  0.114345  0  1.067262  0  0  0.10775  0.107097  0  1.073448  0
H  H6  1  0.80077346  0.24632485  0.23963170  1  0  0.103645  0  1.002806  0  0  0.110092  0  1.070767  0  0  0.114227  0  1.067374  0  0  0.107704  0.106986  0  1.073541  0
H  H7  1  0.69923786  0.25367150  0.73964025  1  0  0.10374  0  1.00276  0  0  0.110147  0  1.070762  0  0  0.114283  0  1.067365  0  0  0.107716  0.107041  0  1.073537  0
H  H8  1  0.82554237  0.87260078  0.66860579  1  0  0.12745  0  0.9463  0  0  0.134513  0  1.009996  0  0  0.138578  0  1.007593  0  0  0.121897  0.131583  0  1.011825  0
H  H9  1  0.67445083  0.62742214  0.16861520  1  0  0.127482  0  0.946211  0  0  0.134551  0  1.009886  0  0  0.138618  0  1.007478  0  0  0.121857  0.131618  0  1.011725  0
H  H10  1  0.17446288  0.12739487  0.33139039  1  0  0.12747  0  0.946276  0  0  0.134521  0  1.009986  0  0  0.138585  0  1.007583  0  0  0.121895  0.131597  0  1.011812  0
H  H11  1  0.32554601  0.37259887  0.83139065  1  0  0.127427  0  0.946353  0  0  0.134498  0  1.010035  0  0  0.138564  0  1.00763  0  0  0.121896  0.131569  0  1.011866  0
H  H12  1  0.42824400  0.76218276  0.04398159  1  0  0.044669  0  0.941454  0  0  0.052976  0  1.012553  0  0  0.054846  0  1.007817  0  0  0.130686  0.051444  0  1.016013  0
H  H13  1  0.07177196  0.73781081  0.54398340  1  0  0.044666  0  0.941629  0  0  0.053018  0  1.012701  0  0  0.054848  0  1.008003  0  0  0.130712  0.051497  0  1.016153  0
H  H14  1  0.57174498  0.23781567  0.95601700  1  0  0.044666  0  0.941453  0  0  0.052975  0  1.012566  0  0  0.054824  0  1.007848  0  0  0.130661  0.051436  0  1.016027  0
H  H15  1  0.92822034  0.26217728  0.45601278  1  0  0.044633  0  0.941593  0  0  0.052999  0  1.012663  0  0  0.054825  0  1.007965  0  0  0.130683  0.05148  0  1.016121  0
H  H16  1  0.95380905  0.77102886  0.79069922  1  0  0.071073  0  0.995519  0  0  0.078545  0  1.062599  0  0  0.081934  0  1.058947  0  0  0.115618  0.075944  0  1.06554  0
H  H17  1  0.54619332  0.72898659  0.29071214  1  0  0.071122  0  0.995489  0  0  0.078538  0  1.062652  0  0  0.081915  0  1.059027  0  0  0.11557  0.075938  0  1.065571  0
H  H18  1  0.04618246  0.22895641  0.20929817  1  0  0.070987  0  0.995591  0  0  0.078474  0  1.062629  0  0  0.08186  0  1.05898  0  0  0.115615  0.075881  0  1.065561  0
H  H19  1  0.45382496  0.27103354  0.70929854  1  0  0.070979  0  0.995516  0  0  0.07844  0  1.062612  0  0  0.081827  0  1.058961  0  0  0.115583  0.075847  0  1.065547  0
H  H20  1  0.27262429  0.88522080  0.11227685  1  0  0.103731  0  0.945194  0  0  0.124884  0  1.0063  0  0  0.125397  0  1.006319  0  0  0.110688  0.124296  0  1.006566  0
H  H21  1  0.22737669  0.61476888  0.61227820  1  0  0.103674  0  0.945136  0  0  0.12483  0  1.006249  0  0  0.125345  0  1.00626  0  0  0.110681  0.124249  0  1.006512  0
H  H22  1  0.72737686  0.11478236  0.88772658  1  0  0.103718  0  0.945141  0  0  0.124846  0  1.006294  0  0  0.125363  0  1.006304  0  0  0.110666  0.124256  0  1.006562  0
H  H23  1  0.77260970  0.38522578  0.38772282  1  0  0.103733  0  0.945224  0  0  0.124898  0  1.00631  0  0  0.125406  0  1.006333  0  0  0.110684  0.124325  0  1.006564  0
H  H24  1  0.37944600  0.04899612  0.10764608  1  0  0.10205  0  0.948099  0  0  0.119746  0  1.013629  0  0  0.119855  0  1.015203  0  0  0.103408  0.119549  0  1.012666  0
H  H25  1  0.12055273  0.45099348  0.60764538  1  0  0.102018  0  0.948064  0  0  0.119694  0  1.013626  0  0  0.119802  0  1.015201  0  0  0.103374  0.119495  0  1.012668  0
H  H26  1  0.62056235  0.95099954  0.89235675  1  0  0.102021  0  0.948033  0  0  0.119704  0  1.013586  0  0  0.119813  0  1.01516  0  0  0.10339  0.119507  0  1.012619  0
H  H27  1  0.87943469  0.54899931  0.39235503  1  0  0.102091  0  0.948085  0  0  0.119789  0  1.013613  0  0  0.119896  0  1.015188  0  0  0.103405  0.119592  0  1.012651  0
H  H28  1  0.42597964  0.95946307  0.19441159  1  0  0.10015  0  0.94076  0  0  0.119876  0  1.003801  0  0  0.119411  0  1.005963  0  0  0.103075  0.120115  0  1.002367  0
H  H29  1  0.07401400  0.54052346  0.69441202  1  0  0.100163  0  0.940797  0  0  0.119918  0  1.003793  0  0  0.119455  0  1.005952  0  0  0.103072  0.120157  0  1.00236  0
H  H30  1  0.57402174  0.04053539  0.80558822  1  0  0.100113  0  0.940824  0  0  0.119885  0  1.003785  0  0  0.119421  0  1.005947  0  0  0.103086  0.120122  0  1.002351  0
H  H31  1  0.92596903  0.45947025  0.30558899  1  0  0.100181  0  0.940788  0  0  0.11996  0  1.003741  0  0  0.119498  0  1.005899  0  0  0.103087  0.120198  0  1.002309  0
H  H32  1  0.91865563  0.97333042  0.07184847  1  0  0.1123  0  0.946513  0  0  0.131191  0  1.009416  0  0  0.133476  0  1.007382  0  0  0.11192  0.129374  0  1.011101  0
H  H33  1  0.58134829  0.52667331  0.57184895  1  0  0.112249  0  0.946579  0  0  0.131163  0  1.009459  0  0  0.133446  0  1.00743  0  0  0.111922  0.129353  0  1.011141  0
H  H34  1  0.08134599  0.02666334  0.92815738  1  0  0.112197  0  0.946617  0  0  0.131207  0  1.009396  0  0  0.133493  0  1.007361  0  0  0.111923  0.129393  0  1.011084  0
H  H35  1  0.41863448  0.47331946  0.42815267  1  0  0.112226  0  0.946695  0  0  0.131161  0  1.009527  0  0  0.133445  0  1.0075  0  0  0.111893  0.129354  0  1.011207  0
H  H36  1  0.83093661  0.01042891  0.17061728  1  0  0.103791  0  0.927182  0  0  0.125116  0  0.9889  0  0  0.12522  0  0.989688  0  0  0.106215  0.124873  0  0.988515  0
H  H37  1  0.66905380  0.48957032  0.67061984  1  0  0.103768  0  0.927188  0  0  0.125094  0  0.988911  0  0  0.125199  0  0.989699  0  0  0.106204  0.124858  0  0.988522  0
H  H38  1  0.16905390  0.98956388  0.82938555  1  0  0.103802  0  0.927115  0  0  0.12513  0  0.988854  0  0  0.125231  0  0.989643  0  0  0.106232  0.124912  0  0.98845  0
H  H39  1  0.33093466  0.51042623  0.32938299  1  0  0.103829  0  0.927119  0  0  0.125159  0  0.988813  0  0  0.125264  0  0.989602  0  0  0.106256  0.124927  0  0.988433  0
H  H40  1  0.78723499  0.10504972  0.08597002  1  0  0.105386  0  0.943885  0  0  0.12445  0  1.008638  0  0  0.124934  0  1.008791  0  0  0.106985  0.123987  0  1.008615  0
H  H41  1  0.71275505  0.39494704  0.58597234  1  0  0.10539  0  0.943839  0  0  0.124446  0  1.008614  0  0  0.12493  0  1.008769  0  0  0.10696  0.12399  0  1.008592  0
H  H42  1  0.21276120  0.89494121  0.91403341  1  0  0.105393  0  0.943771  0  0  0.124496  0  1.008509  0  0  0.124955  0  1.008688  0  0  0.107012  0.124062  0  1.008469  0
H  H43  1  0.28723081  0.60504574  0.41403109  1  0  0.105404  0  0.943897  0  0  0.124434  0  1.008671  0  0  0.124931  0  1.008814  0  0  0.106964  0.123989  0  1.00864  0
C  C44  1  0.45262570  0.70060814  0.82883235  1  0  0.084613  0  3.765903  0  0  0.091454  0  4.010584  0  0  0.091398  0  4.028683  0  0  0.114029  0.091174  0  3.998639  0
C  C45  1  0.04737972  0.79939236  0.32884309  1  0  0.084535  0  3.765914  0  0  0.091397  0  4.010503  0  0  0.091332  0  4.028607  0  0  0.113987  0.091118  0  3.99856  0
C  C46  1  0.54736484  0.29939029  0.17115899  1  0  0.084504  0  3.766012  0  0  0.091377  0  4.010585  0  0  0.09132  0  4.028683  0  0  0.114015  0.09109  0  3.998663  0
C  C47  1  0.95263953  0.20061460  0.67116216  1  0  0.084427  0  3.766201  0  0  0.091429  0  4.010615  0  0  0.091371  0  4.028715  0  0  0.113992  0.091138  0  3.998685  0
C  C48  1  0.39819906  0.88374746  0.63742207  1  0  0.641884  0  3.957914  0  0  0.593916  0  4.253096  0  0  0.627936  0  4.244392  0  0  0.207428  0.570799  0  4.258241  0
C  C49  1  0.10180186  0.61626064  0.13742695  1  0  0.64179  0  3.95814  0  0  0.593897  0  4.253199  0  0  0.627908  0  4.244503  0  0  0.207315  0.570775  0  4.258351  0
C  C50  1  0.60182613  0.11625858  0.36257351  1  0  0.64166  0  3.957846  0  0  0.593741  0  4.252939  0  0  0.627748  0  4.244253  0  0  0.207214  0.570628  0  4.258087  0
C  C51  1  0.89818870  0.38374343  0.86257346  1  0  0.641975  0  3.9577  0  0  0.593957  0  4.252918  0  0  0.627969  0  4.244222  0  0  0.207369  0.570831  0  4.25807  0
C  C52  1  0.36741709  0.75688364  0.76408339  1  0  -0.133068  0  3.735048  0  0  -0.165176  0  3.982646  0  0  -0.167876  0  4.001907  0  0  -0.074771  -0.16331  0  3.970025  0
C  C53  1  0.13258252  0.74311313  0.26408991  1  0  -0.132805  0  3.734957  0  0  -0.164904  0  3.982465  0  0  -0.167596  0  4.001715  0  0  -0.074635  -0.163039  0  3.969852  0
C  C54  1  0.63257447  0.24311292  0.23590977  1  0  -0.132759  0  3.735143  0  0  -0.164821  0  3.982686  0  0  -0.167516  0  4.001943  0  0  -0.074635  -0.162947  0  3.970065  0
C  C55  1  0.86743024  0.25688723  0.73591413  1  0  -0.132807  0  3.73526  0  0  -0.164888  0  3.982794  0  0  -0.167587  0  4.002059  0  0  -0.074625  -0.163008  0  3.970175  0
C  C56  1  0.71403552  0.82378930  0.71224118  1  0  -0.110874  0  3.656771  0  0  -0.135389  0  3.906334  0  0  -0.137668  0  3.923302  0  0  -0.06819  -0.133849  0  3.894999  0
C  C57  1  0.78596166  0.67622356  0.21224573  1  0  -0.110786  0  3.656314  0  0  -0.135264  0  3.905834  0  0  -0.137543  0  3.922797  0  0  -0.068047  -0.133724  0  3.894505  0
C  C58  1  0.28596145  0.17620444  0.28775621  1  0  -0.110837  0  3.656547  0  0  -0.135336  0  3.9061  0  0  -0.137613  0  3.923071  0  0  -0.068129  -0.133797  0  3.894763  0
C  C59  1  0.21404627  0.32379278  0.78775589  1  0  -0.110831  0  3.65672  0  0  -0.135345  0  3.906243  0  0  -0.137623  0  3.923214  0  0  -0.068179  -0.133799  0  3.894906  0
C  C60  1  0.49727474  0.81883755  0.70413728  1  0  -0.00218  0  3.722667  0  0  0.017097  0  3.957187  0  0  0.014849  0  3.974883  0  0  0.006335  0.018404  0  3.945381  0
C  C61  1  0.00272495  0.68117142  0.20414456  1  0  -0.00213  0  3.722561  0  0  0.017102  0  3.957044  0  0  0.014851  0  3.974747  0  0  0.006375  0.018411  0  3.945244  0
C  C62  1  0.50273027  0.18116280  0.29585588  1  0  -0.002313  0  3.722844  0  0  0.01696  0  3.95731  0  0  0.014714  0  3.975011  0  0  0.006369  0.018268  0  3.945498  0
C  C63  1  0.99727623  0.31883738  0.79585767  1  0  -0.002342  0  3.72296  0  0  0.01698  0  3.957434  0  0  0.014732  0  3.975132  0  0  0.006368  0.01829  0  3.945632  0
C  C64  1  0.58739452  0.81925684  0.04742725  1  0  0.390786  0  3.833018  0  0  0.315725  0  4.126749  0  0  0.344248  0  4.12661  0  0  0.180537  0.296652  0  4.126269  0
C  C65  1  0.91261934  0.68074728  0.54743246  1  0  0.390774  0  3.833127  0  0  0.315642  0  4.126915  0  0  0.344195  0  4.126788  0  0  0.180537  0.296571  0  4.126422  0
C  C66  1  0.41259654  0.18074347  0.95257075  1  0  0.390978  0  3.832922  0  0  0.31596  0  4.126589  0  0  0.344499  0  4.126454  0  0  0.180689  0.296893  0  4.126104  0
C  C67  1  0.08736860  0.31924738  0.45256613  1  0  0.390845  0  3.833148  0  0  0.31569  0  4.126948  0  0  0.344248  0  4.126816  0  0  0.180622  0.296611  0  4.126459  0
C  C68  1  0.31054664  0.63719848  0.89508570  1  0  0.646053  0  3.905377  0  0  0.593023  0  4.206666  0  0  0.627717  0  4.197085  0  0  0.233482  0.569419  0  4.212507  0
C  C69  1  0.18946090  0.86279820  0.39508959  1  0  0.645694  0  3.905865  0  0  0.592766  0  4.207003  0  0  0.62746  0  4.197423  0  0  0.233332  0.569159  0  4.212837  0
C  C70  1  0.68944600  0.36280748  0.10491048  1  0  0.646248  0  3.905099  0  0  0.593273  0  4.20626  0  0  0.627967  0  4.196675  0  0  0.233558  0.569669  0  4.212103  0
C  C71  1  0.81056323  0.13720408  0.60491566  1  0  0.646242  0  3.905219  0  0  0.593217  0  4.206454  0  0  0.627909  0  4.196867  0  0  0.233518  0.569614  0  4.212286  0
C  C72  1  0.78667669  0.76668825  0.77991657  1  0  0.128672  0  3.702534  0  0  0.101855  0  3.960587  0  0  0.106816  0  3.9759  0  0  0.054446  0.098573  0  3.950261  0
C  C73  1  0.71332903  0.73332173  0.27992952  1  0  0.128451  0  3.702536  0  0  0.101618  0  3.960664  0  0  0.106583  0  3.975964  0  0  0.054371  0.09835  0  3.95032  0
C  C74  1  0.21332183  0.23330550  0.22007780  1  0  0.128902  0  3.702637  0  0  0.102069  0  3.960754  0  0  0.10703  0  3.976069  0  0  0.05449  0.098786  0  3.950424  0
C  C75  1  0.28668276  0.26669180  0.72007753  1  0  0.128964  0  3.702684  0  0  0.102148  0  3.960785  0  0  0.107111  0  3.976099  0  0  0.054603  0.098866  0  3.950436  0
C  C76  1  0.40850717  0.95663837  0.12831518  1  0  -0.178011  0  3.663952  0  0  -0.278583  0  3.913231  0  0  -0.275472  0  3.925997  0  0  -0.132664  -0.28038  0  3.904612  0
C  C77  1  0.09149339  0.54335106  0.62831554  1  0  -0.177937  0  3.663741  0  0  -0.278535  0  3.913077  0  0  -0.275421  0  3.925838  0  0  -0.132658  -0.280333  0  3.904459  0
C  C78  1  0.59149395  0.04335915  0.87168704  1  0  -0.177938  0  3.663658  0  0  -0.278506  0  3.912943  0  0  -0.275394  0  3.925699  0  0  -0.132619  -0.280302  0  3.904319  0
C  C79  1  0.90849274  0.45664266  0.37168487  1  0  -0.17815  0  3.663949  0  0  -0.2788  0  3.913271  0  0  -0.275686  0  3.92604  0  0  -0.132719  -0.280606  0  3.904645  0
C  C80  1  0.79492780  0.00857279  0.10553424  1  0  -0.171174  0  3.634203  0  0  -0.269986  0  3.876405  0  0  -0.266409  0  3.886091  0  0  -0.132866  -0.272066  0  3.869932  0
C  C81  1  0.70506508  0.49142462  0.60553546  1  0  -0.171088  0  3.634152  0  0  -0.269932  0  3.876369  0  0  -0.266359  0  3.886062  0  0  -0.13285  -0.272013  0  3.869905  0
C  C82  1  0.20506710  0.99141907  0.89446980  1  0  -0.171197  0  3.634037  0  0  -0.270123  0  3.87626  0  0  -0.266529  0  3.885969  0  0  -0.132933  -0.272235  0  3.869761  0
C  C83  1  0.29492131  0.50857005  0.39446616  1  0  -0.171098  0  3.634102  0  0  -0.269901  0  3.876233  0  0  -0.266341  0  3.885914  0  0  -0.132812  -0.271985  0  3.86977  0
N  N84  1  0.66132225  0.70465859  0.83664683  1  0  -0.353918  0  3.179463  0  0  -0.305894  0  3.435968  0  0  -0.316978  0  3.451975  0  0  -0.340042  -0.297978  0  3.424974  0
N  N85  1  0.83868090  0.79534111  0.33665602  1  0  -0.353842  0  3.179583  0  0  -0.305826  0  3.436082  0  0  -0.316908  0  3.452088  0  0  -0.340056  -0.297889  0  3.425059  0
N  N86  1  0.33866180  0.29533325  0.16334935  1  0  -0.35417  0  3.17975  0  0  -0.306175  0  3.436281  0  0  -0.317258  0  3.452287  0  0  -0.340208  -0.298247  0  3.425288  0
N  N87  1  0.16134069  0.20466868  0.66334983  1  0  -0.354203  0  3.179875  0  0  -0.306249  0  3.436373  0  0  -0.317333  0  3.452378  0  0  -0.340225  -0.298285  0  3.425347  0
N  N88  1  0.59618368  0.92544158  0.09057801  1  0  -0.094916  0  3.508967  0  0  0.008981  0  3.744655  0  0  -0.011616  0  3.769972  0  0  -0.284597  0.02281  0  3.726994  0
N  N89  1  0.90381946  0.57455528  0.59057839  1  0  -0.09491  0  3.508787  0  0  0.009021  0  3.744449  0  0  -0.011578  0  3.769759  0  0  -0.284546  0.022857  0  3.726786  0
N  N90  1  0.40381046  0.07455310  0.90942361  1  0  -0.094867  0  3.50862  0  0  0.008978  0  3.744349  0  0  -0.011617  0  3.769652  0  0  -0.284639  0.022808  0  3.726699  0
N  N91  1  0.09616667  0.42543844  0.40942081  1  0  -0.094906  0  3.508674  0  0  0.009  0  3.744348  0  0  -0.011595  0  3.769651  0  0  -0.284593  0.022843  0  3.726689  0
O  O92  1  0.39384918  0.57186363  0.94645951  1  0  -0.715115  0  2.014211  0  0  -0.651175  0  2.269097  0  0  -0.680134  0  2.258516  0  0  -0.36327  -0.630576  0  2.275627  0
O  O93  1  0.10616791  0.92814358  0.44645909  1  0  -0.714834  0  2.014049  0  0  -0.65104  0  2.268968  0  0  -0.679991  0  2.25838  0  0  -0.363284  -0.630408  0  2.275488  0
O  O94  1  0.60614188  0.42813669  0.05353667  1  0  -0.715195  0  2.014076  0  0  -0.651308  0  2.268979  0  0  -0.680268  0  2.258396  0  0  -0.363322  -0.630698  0  2.275504  0
O  O95  1  0.89386193  0.07186247  0.55354314  1  0  -0.715109  0  2.013996  0  0  -0.651286  0  2.268973  0  0  -0.680245  0  2.258385  0  0  -0.363287  -0.630644  0  2.275488  0
O  O96  1  0.48619205  0.89546997  0.56859482  1  0  -0.72193  0  2.072469  0  0  -0.662398  0  2.328646  0  0  -0.690489  0  2.318171  0  0  -0.376826  -0.642377  0  2.335124  0
O  O97  1  0.01381150  0.60454764  0.06859522  1  0  -0.721923  0  2.072155  0  0  -0.66244  0  2.328349  0  0  -0.69053  0  2.31788  0  0  -0.376735  -0.642412  0  2.334817  0
O  O98  1  0.51384612  0.10454926  0.43140620  1  0  -0.721765  0  2.072171  0  0  -0.662295  0  2.328377  0  0  -0.690383  0  2.317908  0  0  -0.376715  -0.64228  0  2.334859  0
O  O99  1  0.98617806  0.39546395  0.93140399  1  0  -0.721888  0  2.07209  0  0  -0.662373  0  2.328365  0  0  -0.690463  0  2.317899  0  0  -0.376734  -0.642316  0  2.334825  0
O  O100  1  0.23132066  0.92590053  0.65440905  1  0  -0.662499  0  1.903205  0  0  -0.617015  0  2.139543  0  0  -0.643121  0  2.131686  0  0  -0.348073  -0.598381  0  2.144169  0
O  O101  1  0.26866171  0.57410351  0.15441119  1  0  -0.662527  0  1.903625  0  0  -0.617029  0  2.139884  0  0  -0.643129  0  2.132028  0  0  -0.34805  -0.59834  0  2.144476  0
O  O102  1  0.76868669  0.07410264  0.34558290  1  0  -0.662407  0  1.903389  0  0  -0.616891  0  2.139629  0  0  -0.642993  0  2.131786  0  0  -0.347993  -0.598251  0  2.14422  0
O  O103  1  0.73131926  0.42589396  0.84558862  1  0  -0.662583  0  1.9033  0  0  -0.61703  0  2.139597  0  0  -0.64313  0  2.131741  0  0  -0.348014  -0.59832  0  2.144189  0
O  O104  1  0.12272840  0.65581201  0.89422007  1  0  -0.6561  0  1.982827  0  0  -0.600229  0  2.22487  0  0  -0.626852  0  2.216302  0  0  -0.335535  -0.581432  0  2.230198  0
O  O105  1  0.37728252  0.84418563  0.39422403  1  0  -0.655989  0  1.983028  0  0  -0.600108  0  2.224937  0  0  -0.626734  0  2.216377  0  0  -0.335367  -0.58129  0  2.230256  0
O  O106  1  0.87726526  0.34419207  0.10577551  1  0  -0.656196  0  1.982747  0  0  -0.600301  0  2.224673  0  0  -0.626925  0  2.216106  0  0  -0.335523  -0.581478  0  2.229993  0
O  O107  1  0.62274808  0.15581760  0.60577880  1  0  -0.656185  0  1.982862  0  0  -0.600231  0  2.224724  0  0  -0.626855  0  2.216157  0  0  -0.335454  -0.581394  0  2.230043  0
O  O108  1  0.74151772  0.78509867  0.01386313  1  0  -0.572593  0  2.047826  0  0  -0.521116  0  2.300806  0  0  -0.545399  0  2.294425  0  0  -0.334332  -0.504089  0  2.304547  0
O  O109  1  0.75849784  0.71491443  0.51387230  1  0  -0.5726  0  2.047868  0  0  -0.521077  0  2.300793  0  0  -0.545344  0  2.294368  0  0  -0.3343  -0.504042  0  2.304552  0
O  O110  1  0.25846922  0.21490352  0.98612882  1  0  -0.572712  0  2.047815  0  0  -0.521273  0  2.300813  0  0  -0.545549  0  2.294411  0  0  -0.334385  -0.504235  0  2.304554  0
O  O111  1  0.24149114  0.28508400  0.48612690  1  0  -0.572662  0  2.047971  0  0  -0.521142  0  2.300913  0  0  -0.545412  0  2.294487  0  0  -0.33433  -0.504089  0  2.30468  0
