# generated using pymatgen
data_Ag2H4C3SBrN3
_symmetry_space_group_name_H-M   'P 1'
_cell_length_a   7.68315459
_cell_length_b   10.07614315
_cell_length_c   19.06243453
_cell_angle_alpha   90.00000216
_cell_angle_beta   89.99997139
_cell_angle_gamma   90.00011475
_symmetry_Int_Tables_number   1
_chemical_formula_structural   Ag2H4C3SBrN3
_chemical_formula_sum   'Ag16 H32 C24 S8 Br8 N24'
_cell_volume   1475.74821108
_cell_formula_units_Z   8
loop_
 _symmetry_equiv_pos_site_id
 _symmetry_equiv_pos_as_xyz
  1  'x, y, z'
loop_
 _atom_site_type_symbol
 _atom_site_label
 _atom_site_symmetry_multiplicity
 _atom_site_fract_x
 _atom_site_fract_y
 _atom_site_fract_z
 _atom_site_occupancy
 _atom_site_hle17_bader_spin_density
 _atom_site_hle17_ddec_charge
 _atom_site_hle17_ddec_spin_density
 _atom_site_hle17_ddec_sum_bond_order
 _atom_site_hle17_magmom
 _atom_site_hse06_10hf_bader_spin_density
 _atom_site_hse06_10hf_ddec_charge
 _atom_site_hse06_10hf_ddec_spin_density
 _atom_site_hse06_10hf_ddec_sum_bond_order
 _atom_site_hse06_10hf_magmom
 _atom_site_hse06_bader_spin_density
 _atom_site_hse06_ddec_charge
 _atom_site_hse06_ddec_spin_density
 _atom_site_hse06_ddec_sum_bond_order
 _atom_site_hse06_magmom
 _atom_site_pbe_bader_spin_density
 _atom_site_pbe_cm5_charge
 _atom_site_pbe_ddec_charge
 _atom_site_pbe_ddec_spin_density
 _atom_site_pbe_ddec_sum_bond_order
 _atom_site_pbe_magmom
Ag  Ag0  1  0.92053938  0.92853954  0.70808418  1  0  0.401082  0  1.750506  0  0  0.284583  0  2.256318  0  0  0.307493  0  2.210983  0  0  0.322425  0.267476  0  2.288633  0
Ag  Ag1  1  0.07945628  0.57146178  0.20808464  1  0  0.401088  0  1.750504  0  0  0.284595  0  2.256306  0  0  0.307502  0  2.210976  0  0  0.322439  0.26748  0  2.288627  0
Ag  Ag2  1  0.42054175  0.07146123  0.79191507  1  0  0.401113  0  1.750494  0  0  0.284622  0  2.256296  0  0  0.307532  0  2.210965  0  0  0.322453  0.267509  0  2.288615  0
Ag  Ag3  1  0.57945900  0.42853942  0.29191543  1  0  0.401072  0  1.750559  0  0  0.284571  0  2.256368  0  0  0.307479  0  2.211038  0  0  0.322428  0.267457  0  2.288675  0
Ag  Ag4  1  0.07945948  0.07145996  0.29191549  1  0  0.401073  0  1.750521  0  0  0.284577  0  2.256324  0  0  0.307482  0  2.210997  0  0  0.322422  0.267459  0  2.288627  0
Ag  Ag5  1  0.92053997  0.42853970  0.79191554  1  0  0.401069  0  1.750554  0  0  0.284573  0  2.256368  0  0  0.307482  0  2.211035  0  0  0.322417  0.267457  0  2.288681  0
Ag  Ag6  1  0.57945711  0.92854025  0.20808459  1  0  0.401074  0  1.750514  0  0  0.284575  0  2.256322  0  0  0.307483  0  2.210992  0  0  0.32242  0.267458  0  2.288628  0
Ag  Ag7  1  0.42053985  0.57146107  0.70808580  1  0  0.401117  0  1.750504  0  0  0.284628  0  2.256302  0  0  0.307534  0  2.210973  0  0  0.322454  0.267522  0  2.288622  0
Ag  Ag8  1  0.60323661  0.30302615  0.67688357  1  0  0.407201  0  1.709031  0  0  0.298728  0  2.206546  0  0  0.32538  0  2.156458  0  0  0.299175  0.280583  0  2.241829  0
Ag  Ag9  1  0.39676167  0.19697349  0.17688398  1  0  0.407247  0  1.709017  0  0  0.298786  0  2.206523  0  0  0.325437  0  2.156438  0  0  0.29919  0.280642  0  2.241789  0
Ag  Ag10  1  0.10323800  0.69697314  0.82311626  1  0  0.407241  0  1.709015  0  0  0.298779  0  2.206522  0  0  0.325435  0  2.156431  0  0  0.299205  0.280645  0  2.241813  0
Ag  Ag11  1  0.89676534  0.80302521  0.32311708  1  0  0.40723  0  1.709014  0  0  0.298771  0  2.206515  0  0  0.325419  0  2.156437  0  0  0.299206  0.280643  0  2.241801  0
Ag  Ag12  1  0.39676355  0.69697334  0.32311661  1  0  0.407212  0  1.709066  0  0  0.298749  0  2.206571  0  0  0.3254  0  2.156486  0  0  0.29921  0.280622  0  2.241862  0
Ag  Ag13  1  0.60323589  0.80302700  0.82311621  1  0  0.407219  0  1.709018  0  0  0.298758  0  2.206513  0  0  0.325407  0  2.156436  0  0  0.299192  0.280619  0  2.241797  0
Ag  Ag14  1  0.89676216  0.30302635  0.17688235  1  0  0.407192  0  1.709065  0  0  0.298719  0  2.20658  0  0  0.325373  0  2.156492  0  0  0.299191  0.280586  0  2.241859  0
Ag  Ag15  1  0.10323742  0.19697329  0.67688258  1  0  0.4072  0  1.709056  0  0  0.29873  0  2.206567  0  0  0.325382  0  2.156483  0  0  0.299188  0.280595  0  2.24185  0
H  H16  1  0.75853776  0.50930162  0.52576907  1  0  0.103291  0  0.948718  0  0  0.11412  0  1.01068  0  0  0.116954  0  1.007798  0  0  0.126524  0.112029  0  1.012731  0
H  H17  1  0.24146071  0.99069770  0.02576794  1  0  0.103294  0  0.94869  0  0  0.114117  0  1.010659  0  0  0.11695  0  1.007778  0  0  0.126533  0.112026  0  1.01271  0
H  H18  1  0.25853973  0.49069791  0.97423283  1  0  0.103322  0  0.948726  0  0  0.114148  0  1.010685  0  0  0.116978  0  1.007806  0  0  0.126557  0.112058  0  1.012735  0
H  H19  1  0.74146211  0.00930573  0.47423211  1  0  0.103302  0  0.948665  0  0  0.114116  0  1.010652  0  0  0.116943  0  1.007774  0  0  0.12655  0.112024  0  1.012704  0
H  H20  1  0.24145979  0.49069688  0.47423164  1  0  0.103305  0  0.948678  0  0  0.114134  0  1.010641  0  0  0.116964  0  1.00776  0  0  0.126559  0.112042  0  1.012693  0
H  H21  1  0.75854075  0.00930378  0.97423172  1  0  0.103272  0  0.948715  0  0  0.114103  0  1.01068  0  0  0.116933  0  1.007801  0  0  0.126546  0.112011  0  1.012732  0
H  H22  1  0.74146173  0.50930258  0.02576893  1  0  0.103292  0  0.948707  0  0  0.11412  0  1.010668  0  0  0.116954  0  1.007786  0  0  0.126529  0.112028  0  1.012721  0
H  H23  1  0.25853935  0.99069476  0.52576756  1  0  0.103287  0  0.948668  0  0  0.114104  0  1.010652  0  0  0.116931  0  1.007772  0  0  0.126546  0.112013  0  1.0127  0
H  H24  1  0.93169999  0.70770504  0.48502714  1  0  0.106904  0  0.973767  0  0  0.121775  0  1.047372  0  0  0.123717  0  1.045928  0  0  0.093389  0.120213  0  1.048678  0
H  H25  1  0.06829926  0.79229333  0.98502738  1  0  0.106969  0  0.973717  0  0  0.121817  0  1.047335  0  0  0.12376  0  1.045892  0  0  0.093399  0.120254  0  1.04864  0
H  H26  1  0.43170066  0.29229371  0.01497338  1  0  0.106903  0  0.973759  0  0  0.121773  0  1.047367  0  0  0.123715  0  1.045923  0  0  0.093377  0.12021  0  1.048671  0
H  H27  1  0.56829910  0.20770592  0.51497299  1  0  0.106922  0  0.973742  0  0  0.121794  0  1.047346  0  0  0.123736  0  1.045903  0  0  0.093389  0.12023  0  1.04865  0
H  H28  1  0.06829886  0.29229346  0.51497252  1  0  0.106925  0  0.973743  0  0  0.121792  0  1.047344  0  0  0.123734  0  1.045901  0  0  0.093394  0.120228  0  1.048649  0
H  H29  1  0.93169960  0.20770418  0.01497228  1  0  0.106919  0  0.973761  0  0  0.121788  0  1.047357  0  0  0.12373  0  1.045914  0  0  0.093397  0.120224  0  1.048664  0
H  H30  1  0.56829950  0.70770578  0.98502733  1  0  0.106928  0  0.97374  0  0  0.121793  0  1.047345  0  0  0.123734  0  1.045901  0  0  0.09339  0.12023  0  1.048648  0
H  H31  1  0.43170366  0.79229259  0.48502720  1  0  0.106971  0  0.973692  0  0  0.121825  0  1.047308  0  0  0.123767  0  1.045864  0  0  0.09341  0.120262  0  1.048614  0
H  H32  1  0.13489187  0.72447773  0.52918633  1  0  0.105435  0  0.948858  0  0  0.125264  0  1.0133  0  0  0.125477  0  1.014362  0  0  0.099665  0.125211  0  1.012629  0
H  H33  1  0.86510660  0.77552159  0.02918664  1  0  0.105439  0  0.948883  0  0  0.125273  0  1.01331  0  0  0.125486  0  1.014373  0  0  0.09967  0.125221  0  1.012638  0
H  H34  1  0.63489267  0.27552162  0.97081402  1  0  0.105431  0  0.948872  0  0  0.125245  0  1.013332  0  0  0.125458  0  1.014395  0  0  0.099661  0.125192  0  1.012661  0
H  H35  1  0.36510657  0.22447805  0.47081338  1  0  0.105433  0  0.948872  0  0  0.125267  0  1.013309  0  0  0.125481  0  1.014372  0  0  0.099668  0.125214  0  1.012638  0
H  H36  1  0.86510699  0.27552177  0.47081333  1  0  0.105438  0  0.948878  0  0  0.125269  0  1.013311  0  0  0.125482  0  1.014373  0  0  0.099673  0.125214  0  1.012638  0
H  H37  1  0.13489355  0.22447790  0.97081408  1  0  0.105437  0  0.948852  0  0  0.125266  0  1.01329  0  0  0.125479  0  1.014353  0  0  0.099668  0.125213  0  1.012618  0
H  H38  1  0.36510749  0.72447788  0.02918669  1  0  0.105449  0  0.948871  0  0  0.12528  0  1.013299  0  0  0.125493  0  1.014361  0  0  0.099675  0.125227  0  1.012628  0
H  H39  1  0.63489359  0.77552144  0.52918575  1  0  0.105468  0  0.948921  0  0  0.125305  0  1.013343  0  0  0.125519  0  1.014407  0  0  0.099681  0.125253  0  1.012672  0
H  H40  1  0.95711806  0.82759618  0.55440023  1  0  0.098359  0  0.954745  0  0  0.111149  0  1.035315  0  0  0.11287  0  1.033293  0  0  0.092794  0.1098  0  1.036812  0
H  H41  1  0.04288169  0.67240315  0.05440124  1  0  0.098356  0  0.954752  0  0  0.111143  0  1.035316  0  0  0.112864  0  1.033292  0  0  0.09278  0.10979  0  1.036818  0
H  H42  1  0.45711791  0.17240366  0.94559953  1  0  0.09836  0  0.954746  0  0  0.11115  0  1.035316  0  0  0.112872  0  1.033292  0  0  0.092791  0.1098  0  1.036813  0
H  H43  1  0.54288266  0.32759800  0.44559938  1  0  0.098352  0  0.954771  0  0  0.111141  0  1.03534  0  0  0.112862  0  1.033317  0  0  0.092772  0.109791  0  1.036836  0
H  H44  1  0.04288080  0.17240332  0.44559890  1  0  0.09835  0  0.954737  0  0  0.111135  0  1.035306  0  0  0.112855  0  1.033283  0  0  0.092775  0.109783  0  1.036803  0
H  H45  1  0.95711847  0.32759734  0.94559947  1  0  0.098345  0  0.954756  0  0  0.111134  0  1.035319  0  0  0.112854  0  1.033296  0  0  0.092782  0.109783  0  1.036815  0
H  H46  1  0.54288224  0.82759683  0.05440066  1  0  0.098355  0  0.954768  0  0  0.111139  0  1.035336  0  0  0.11286  0  1.033312  0  0  0.09278  0.10979  0  1.036831  0
H  H47  1  0.45712140  0.67240348  0.55439976  1  0  0.098384  0  0.954716  0  0  0.111141  0  1.035315  0  0  0.11288  0  1.033279  0  0  0.092781  0.109789  0  1.036815  0
C  C48  1  0.98609150  0.62264973  0.65557776  1  0  0.288259  0  3.804303  0  0  0.25336  0  4.080889  0  0  0.270653  0  4.09675  0  0  0.19814  0.241447  0  4.070082  0
C  C49  1  0.01390552  0.87735059  0.15557824  1  0  0.288196  0  3.804393  0  0  0.253302  0  4.080955  0  0  0.270593  0  4.09682  0  0  0.198131  0.24141  0  4.07012  0
C  C50  1  0.48609202  0.37735114  0.84442305  1  0  0.288241  0  3.804276  0  0  0.25333  0  4.080866  0  0  0.27062  0  4.096729  0  0  0.198125  0.24142  0  4.070053  0
C  C51  1  0.51390867  0.12264951  0.34442237  1  0  0.288168  0  3.804388  0  0  0.253263  0  4.080968  0  0  0.270553  0  4.096837  0  0  0.198121  0.241365  0  4.070135  0
C  C52  1  0.01390735  0.37734877  0.34442138  1  0  0.288158  0  3.804332  0  0  0.253262  0  4.080913  0  0  0.27055  0  4.09678  0  0  0.198082  0.241375  0  4.070069  0
C  C53  1  0.98609334  0.12264989  0.84442142  1  0  0.288212  0  3.804389  0  0  0.253324  0  4.080941  0  0  0.270613  0  4.096809  0  0  0.198098  0.241423  0  4.070119  0
C  C54  1  0.51390684  0.62264935  0.15557819  1  0  0.288243  0  3.804334  0  0  0.253366  0  4.080884  0  0  0.270657  0  4.09675  0  0  0.198134  0.241455  0  4.070073  0
C  C55  1  0.48609279  0.87734998  0.65557729  1  0  0.288206  0  3.804283  0  0  0.253302  0  4.080882  0  0  0.270592  0  4.096749  0  0  0.198137  0.241402  0  4.070057  0
C  C56  1  0.82260389  0.52799930  0.57558379  1  0  0.15569  0  3.655083  0  0  0.095245  0  3.923289  0  0  0.107478  0  3.936425  0  0  0.145918  0.087362  0  3.914497  0
C  C57  1  0.17739583  0.97199903  0.07558320  1  0  0.155674  0  3.655083  0  0  0.095234  0  3.923291  0  0  0.107467  0  3.936428  0  0  0.145884  0.087349  0  3.914506  0
C  C58  1  0.32260457  0.47200132  0.92441809  1  0  0.155602  0  3.655098  0  0  0.095156  0  3.923326  0  0  0.107393  0  3.936458  0  0  0.145808  0.087274  0  3.914539  0
C  C59  1  0.67739863  0.02800033  0.42441686  1  0  0.155651  0  3.654983  0  0  0.095209  0  3.923226  0  0  0.10745  0  3.936355  0  0  0.145859  0.087324  0  3.914444  0
C  C60  1  0.17739627  0.47199722  0.42441587  1  0  0.155685  0  3.655016  0  0  0.095247  0  3.923227  0  0  0.107482  0  3.936361  0  0  0.14589  0.087364  0  3.914447  0
C  C61  1  0.82260173  0.02800046  0.92441646  1  0  0.15569  0  3.654962  0  0  0.095236  0  3.923199  0  0  0.107474  0  3.936331  0  0  0.145879  0.087355  0  3.91441  0
C  C62  1  0.67739559  0.52800016  0.07558367  1  0  0.15572  0  3.655053  0  0  0.095285  0  3.923254  0  0  0.107518  0  3.936391  0  0  0.145917  0.087402  0  3.914468  0
C  C63  1  0.32260283  0.97199916  0.57558385  1  0  0.155689  0  3.654967  0  0  0.095252  0  3.923194  0  0  0.107493  0  3.936323  0  0  0.145889  0.087373  0  3.914402  0
C  C64  1  0.99344937  0.72811866  0.53565079  1  0  -0.166032  0  3.654126  0  0  -0.268804  0  3.904079  0  0  -0.265439  0  3.912142  0  0  -0.141459  -0.270923  0  3.898592  0
C  C65  1  0.00654910  0.77188166  0.03565127  1  0  -0.16611  0  3.654162  0  0  -0.26886  0  3.904097  0  0  -0.265494  0  3.912158  0  0  -0.14146  -0.270974  0  3.898613  0
C  C66  1  0.49344947  0.27188123  0.96434949  1  0  -0.166042  0  3.654153  0  0  -0.268808  0  3.904114  0  0  -0.265442  0  3.912175  0  0  -0.141458  -0.270928  0  3.898625  0
C  C67  1  0.50654978  0.22811943  0.46434882  1  0  -0.166078  0  3.654173  0  0  -0.268857  0  3.904113  0  0  -0.265492  0  3.912176  0  0  -0.141463  -0.270974  0  3.898625  0
C  C68  1  0.00654949  0.27188084  0.46434887  1  0  -0.166075  0  3.654111  0  0  -0.268827  0  3.90403  0  0  -0.265461  0  3.912092  0  0  -0.141454  -0.270942  0  3.898542  0
C  C69  1  0.99345106  0.22811883  0.96434891  1  0  -0.166048  0  3.654105  0  0  -0.268804  0  3.904031  0  0  -0.265438  0  3.912093  0  0  -0.141448  -0.27092  0  3.898541  0
C  C70  1  0.50654939  0.72811926  0.03565122  1  0  -0.166089  0  3.654103  0  0  -0.268841  0  3.90403  0  0  -0.265475  0  3.91209  0  0  -0.141478  -0.27096  0  3.898542  0
C  C71  1  0.49345298  0.77188006  0.53565032  1  0  -0.166147  0  3.654149  0  0  -0.268887  0  3.904114  0  0  -0.265542  0  3.912163  0  0  -0.141462  -0.271  0  3.898629  0
S  S72  1  0.12737144  0.73334620  0.69403988  1  0  -0.383136  0  2.673787  0  0  -0.322741  0  3.153851  0  0  -0.342014  0  3.134564  0  0  -0.207801  -0.307705  0  3.166839  0
S  S73  1  0.87262815  0.76665512  0.19404071  1  0  -0.383091  0  2.673756  0  0  -0.322699  0  3.153807  0  0  -0.341973  0  3.134524  0  0  -0.207791  -0.307669  0  3.166782  0
S  S74  1  0.62737110  0.26665512  0.80596047  1  0  -0.383106  0  2.673755  0  0  -0.322704  0  3.153812  0  0  -0.341978  0  3.134529  0  0  -0.207793  -0.307669  0  3.166787  0
S  S75  1  0.37262833  0.23334652  0.30595931  1  0  -0.383075  0  2.673768  0  0  -0.322682  0  3.153823  0  0  -0.341956  0  3.13454  0  0  -0.20777  -0.307658  0  3.166788  0
S  S76  1  0.87262872  0.26665330  0.30595873  1  0  -0.383037  0  2.673719  0  0  -0.322636  0  3.153768  0  0  -0.341908  0  3.134485  0  0  -0.207749  -0.307611  0  3.166727  0
S  S77  1  0.12737201  0.23334735  0.80595790  1  0  -0.383037  0  2.67375  0  0  -0.32264  0  3.153792  0  0  -0.341913  0  3.134511  0  0  -0.207736  -0.307607  0  3.166769  0
S  S78  1  0.37262905  0.73334636  0.19404076  1  0  -0.38313  0  2.673767  0  0  -0.322742  0  3.153816  0  0  -0.342014  0  3.134533  0  0  -0.207803  -0.307705  0  3.166797  0
S  S79  1  0.62737313  0.76665297  0.69403983  1  0  -0.383101  0  2.673718  0  0  -0.322702  0  3.153765  0  0  -0.341974  0  3.134482  0  0  -0.207776  -0.30767  0  3.166744  0
Br  Br80  1  0.81255015  0.10608984  0.60868450  1  0  -0.496427  0  1.270424  0  0  -0.409005  0  1.666283  0  0  -0.432303  0  1.633603  0  0  -0.252027  -0.392216  0  1.689187  0
Br  Br81  1  0.18744821  0.39390979  0.10868495  1  0  -0.496478  0  1.270454  0  0  -0.40906  0  1.666309  0  0  -0.432359  0  1.633627  0  0  -0.252048  -0.392271  0  1.689214  0
Br  Br82  1  0.31255198  0.89390977  0.89131530  1  0  -0.496488  0  1.270459  0  0  -0.409061  0  1.666304  0  0  -0.432365  0  1.633631  0  0  -0.252049  -0.392271  0  1.689213  0
Br  Br83  1  0.68744868  0.60609058  0.39131511  1  0  -0.496464  0  1.270452  0  0  -0.409048  0  1.666326  0  0  -0.432347  0  1.633642  0  0  -0.252042  -0.392257  0  1.689236  0
Br  Br84  1  0.18745001  0.89390965  0.39131517  1  0  -0.496477  0  1.270461  0  0  -0.409063  0  1.666324  0  0  -0.432356  0  1.633635  0  0  -0.252045  -0.392275  0  1.689233  0
Br  Br85  1  0.81255065  0.60609069  0.89131524  1  0  -0.496467  0  1.270436  0  0  -0.409047  0  1.666298  0  0  -0.432349  0  1.633621  0  0  -0.252044  -0.39226  0  1.689205  0
Br  Br86  1  0.68744818  0.10609072  0.10868437  1  0  -0.496457  0  1.270443  0  0  -0.409031  0  1.666292  0  0  -0.432329  0  1.633607  0  0  -0.252034  -0.392249  0  1.689195  0
Br  Br87  1  0.31255148  0.39390991  0.60868508  1  0  -0.496476  0  1.270455  0  0  -0.409057  0  1.66631  0  0  -0.43235  0  1.633619  0  0  -0.252046  -0.392265  0  1.689216  0
N  N88  1  0.80066877  0.46145497  0.63436747  1  0  -0.23508  0  3.229219  0  0  -0.182206  0  3.533882  0  0  -0.195057  0  3.548004  0  0  -0.260512  -0.174731  0  3.525775  0
N  N89  1  0.19933086  0.03854566  0.13436634  1  0  -0.235127  0  3.229172  0  0  -0.182268  0  3.533836  0  0  -0.195118  0  3.547957  0  0  -0.260517  -0.174793  0  3.525731  0
N  N90  1  0.30066969  0.53854660  0.86563390  1  0  -0.235065  0  3.2291  0  0  -0.182204  0  3.533772  0  0  -0.195054  0  3.547889  0  0  -0.260439  -0.174732  0  3.525677  0
N  N91  1  0.69933361  0.96145473  0.36563424  1  0  -0.235109  0  3.229065  0  0  -0.182246  0  3.533734  0  0  -0.195096  0  3.547851  0  0  -0.260514  -0.174777  0  3.525644  0
N  N92  1  0.19933139  0.53854452  0.36563271  1  0  -0.235096  0  3.229218  0  0  -0.182226  0  3.533876  0  0  -0.195077  0  3.547997  0  0  -0.260506  -0.174759  0  3.525788  0
N  N93  1  0.80066930  0.96145483  0.86563280  1  0  -0.235095  0  3.229234  0  0  -0.18223  0  3.533903  0  0  -0.195081  0  3.548023  0  0  -0.26052  -0.174758  0  3.525803  0
N  N94  1  0.69933047  0.46145488  0.13436734  1  0  -0.235132  0  3.229254  0  0  -0.182272  0  3.533918  0  0  -0.195123  0  3.54804  0  0  -0.260529  -0.174798  0  3.525816  0
N  N95  1  0.30066916  0.03854179  0.63436490  1  0  -0.235117  0  3.229243  0  0  -0.182253  0  3.533917  0  0  -0.195105  0  3.548036  0  0  -0.260522  -0.174783  0  3.525819  0
N  N96  1  0.90304734  0.52030198  0.68470626  1  0  -0.290462  0  3.224964  0  0  -0.227009  0  3.527861  0  0  -0.243353  0  3.541907  0  0  -0.270412  -0.215768  0  3.518821  0
N  N97  1  0.09695096  0.97969934  0.18470516  1  0  -0.290354  0  3.224814  0  0  -0.226894  0  3.527698  0  0  -0.243236  0  3.541747  0  0  -0.270385  -0.215653  0  3.518641  0
N  N98  1  0.40304686  0.47969976  0.81529509  1  0  -0.2904  0  3.22476  0  0  -0.226943  0  3.527677  0  0  -0.243287  0  3.541728  0  0  -0.270421  -0.2157  0  3.51863  0
N  N99  1  0.59695386  0.02030188  0.31529492  1  0  -0.290351  0  3.224761  0  0  -0.226871  0  3.527629  0  0  -0.243213  0  3.541675  0  0  -0.270379  -0.215632  0  3.518574  0
N  N100  1  0.09695282  0.47969752  0.31529393  1  0  -0.290397  0  3.224922  0  0  -0.226945  0  3.527822  0  0  -0.243287  0  3.541869  0  0  -0.270378  -0.21571  0  3.518773  0
N  N101  1  0.90304790  0.02030313  0.81529398  1  0  -0.290447  0  3.225023  0  0  -0.226975  0  3.527893  0  0  -0.243317  0  3.541941  0  0  -0.27037  -0.215736  0  3.518848  0
N  N102  1  0.59695200  0.52030172  0.18470615  1  0  -0.290395  0  3.224956  0  0  -0.226934  0  3.527831  0  0  -0.243276  0  3.541877  0  0  -0.270382  -0.215694  0  3.518791  0
N  N103  1  0.40304629  0.97969563  0.68470527  1  0  -0.29042  0  3.224796  0  0  -0.226954  0  3.527683  0  0  -0.243297  0  3.54173  0  0  -0.270416  -0.215716  0  3.518643  0
N  N104  1  0.93796549  0.62884551  0.58600323  1  0  -0.095083  0  3.554662  0  0  0.005535  0  3.77308  0  0  -0.01186  0  3.798058  0  0  -0.245812  0.017216  0  3.755754  0
N  N105  1  0.06203292  0.87115381  0.08600370  1  0  -0.095071  0  3.554708  0  0  0.005539  0  3.773111  0  0  -0.011854  0  3.798091  0  0  -0.245825  0.017213  0  3.755783  0
N  N106  1  0.43796721  0.37115429  0.91399759  1  0  -0.095082  0  3.554694  0  0  0.005547  0  3.773101  0  0  -0.011846  0  3.798079  0  0  -0.245803  0.017227  0  3.755773  0
N  N107  1  0.56203340  0.12884736  0.41399743  1  0  -0.09507  0  3.55469  0  0  0.005555  0  3.773102  0  0  -0.01184  0  3.798081  0  0  -0.245831  0.017229  0  3.755773  0
N  N108  1  0.06203207  0.37115299  0.41399643  1  0  -0.095061  0  3.554656  0  0  0.005544  0  3.773056  0  0  -0.011847  0  3.798034  0  0  -0.245871  0.017215  0  3.755726  0
N  N109  1  0.93796724  0.12884866  0.91399701  1  0  -0.09508  0  3.554574  0  0  0.005522  0  3.772989  0  0  -0.011871  0  3.797968  0  0  -0.24587  0.017199  0  3.755659  0
N  N110  1  0.56203425  0.62884620  0.08600365  1  0  -0.095075  0  3.55463  0  0  0.005521  0  3.773033  0  0  -0.011873  0  3.798012  0  0  -0.245812  0.017202  0  3.755706  0
N  N111  1  0.43796936  0.87115015  0.58600171  1  0  -0.095077  0  3.55449  0  0  0.00554  0  3.772923  0  0  -0.011856  0  3.797907  0  0  -0.245864  0.017214  0  3.755594  0
