# generated using pymatgen
data_CdH10C10(NO)4
_symmetry_space_group_name_H-M   'P 1'
_cell_length_a   5.20398219
_cell_length_b   8.40577327
_cell_length_c   12.36984349
_cell_angle_alpha   93.86878141
_cell_angle_beta   89.99991174
_cell_angle_gamma   90.00057596
_symmetry_Int_Tables_number   1
_chemical_formula_structural   CdH10C10(NO)4
_chemical_formula_sum   'Cd2 H20 C20 N8 O8'
_cell_volume   539.86711474
_cell_formula_units_Z   2
loop_
 _symmetry_equiv_pos_site_id
 _symmetry_equiv_pos_as_xyz
  1  'x, y, z'
loop_
 _atom_site_type_symbol
 _atom_site_label
 _atom_site_symmetry_multiplicity
 _atom_site_fract_x
 _atom_site_fract_y
 _atom_site_fract_z
 _atom_site_occupancy
 _atom_site_hle17_bader_spin_density
 _atom_site_hle17_ddec_charge
 _atom_site_hle17_ddec_spin_density
 _atom_site_hle17_ddec_sum_bond_order
 _atom_site_hle17_magmom
 _atom_site_hse06_10hf_bader_spin_density
 _atom_site_hse06_10hf_ddec_charge
 _atom_site_hse06_10hf_ddec_spin_density
 _atom_site_hse06_10hf_ddec_sum_bond_order
 _atom_site_hse06_10hf_magmom
 _atom_site_hse06_bader_spin_density
 _atom_site_hse06_ddec_charge
 _atom_site_hse06_ddec_spin_density
 _atom_site_hse06_ddec_sum_bond_order
 _atom_site_hse06_magmom
 _atom_site_pbe_bader_spin_density
 _atom_site_pbe_cm5_charge
 _atom_site_pbe_ddec_charge
 _atom_site_pbe_ddec_spin_density
 _atom_site_pbe_ddec_sum_bond_order
 _atom_site_pbe_magmom
Cd  Cd0  1  0.00000000  0.00000478  0.00000100  1  0  1.17236  0  1.68363  0  0  0.984175  0  2.135541  0  0  1.037228  0  2.084217  0  0  0.7908  0.945759  0  2.171698  0
Cd  Cd1  1  0.49999677  0.49999437  0.49999753  1  0  1.172338  0  1.68367  0  0  0.984097  0  2.135585  0  0  1.037145  0  2.084265  0  0  0.790785  0.945687  0  2.17175  0
H  H2  1  0.57657823  0.31143653  0.99275923  1  0  0.107868  0  0.996523  0  0  0.115039  0  1.061095  0  0  0.118463  0  1.05882  0  0  0.111512  0.112501  0  1.063034  0
H  H3  1  0.07658329  0.18855977  0.50723542  1  0  0.107844  0  0.996441  0  0  0.115012  0  1.061015  0  0  0.118448  0  1.058725  0  0  0.111505  0.11247  0  1.06296  0
H  H4  1  0.42342876  0.68856301  0.00724273  1  0  0.107881  0  0.996459  0  0  0.115071  0  1.061013  0  0  0.118472  0  1.058766  0  0  0.111507  0.11253  0  1.062955  0
H  H5  1  0.92341025  0.81142538  0.49275869  1  0  0.107749  0  0.996496  0  0  0.114963  0  1.061055  0  0  0.118345  0  1.058825  0  0  0.111492  0.112421  0  1.062998  0
H  H6  1  0.70056885  0.59376661  0.89146273  1  0  0.123378  0  0.978554  0  0  0.133372  0  1.038432  0  0  0.136239  0  1.037048  0  0  0.121041  0.130783  0  1.040246  0
H  H7  1  0.20058966  0.90623417  0.60853251  1  0  0.123449  0  0.978523  0  0  0.133379  0  1.038472  0  0  0.136245  0  1.037084  0  0  0.121058  0.130793  0  1.040279  0
H  H8  1  0.29942853  0.40623174  0.10854000  1  0  0.123306  0  0.978384  0  0  0.133278  0  1.038323  0  0  0.136144  0  1.036942  0  0  0.121004  0.13069  0  1.040135  0
H  H9  1  0.79940388  0.09375825  0.39147160  1  0  0.123469  0  0.978439  0  0  0.133302  0  1.03852  0  0  0.136164  0  1.037139  0  0  0.121027  0.130717  0  1.040324  0
H  H10  1  0.26409003  0.24171132  0.81661435  1  0  0.094118  0  0.973327  0  0  0.097847  0  1.047105  0  0  0.100051  0  1.045145  0  0  0.130094  0.096081  0  1.048618  0
H  H11  1  0.76408238  0.25830862  0.68338995  1  0  0.094034  0  0.973374  0  0  0.097813  0  1.047096  0  0  0.100017  0  1.045137  0  0  0.13007  0.096046  0  1.048611  0
H  H12  1  0.73591504  0.75830370  0.18338662  1  0  0.094074  0  0.973336  0  0  0.097811  0  1.047116  0  0  0.100016  0  1.045158  0  0  0.130063  0.096042  0  1.04863  0
H  H13  1  0.23590923  0.74168368  0.31660445  1  0  0.094142  0  0.973339  0  0  0.097917  0  1.047085  0  0  0.100122  0  1.045128  0  0  0.13011  0.096148  0  1.048597  0
H  H14  1  0.34320529  0.51521313  0.75088978  1  0  0.114585  0  0.951021  0  0  0.120667  0  1.02525  0  0  0.123121  0  1.02405  0  0  0.11615  0.118929  0  1.026134  0
H  H15  1  0.84320977  0.98479794  0.74911218  1  0  0.114563  0  0.950992  0  0  0.120619  0  1.02529  0  0  0.123071  0  1.024095  0  0  0.116114  0.118884  0  1.026168  0
H  H16  1  0.65679209  0.48480075  0.24911599  1  0  0.114558  0  0.95099  0  0  0.120581  0  1.025328  0  0  0.123034  0  1.02413  0  0  0.116112  0.118848  0  1.026205  0
H  H17  1  0.15678953  0.01519556  0.25088307  1  0  0.114556  0  0.950984  0  0  0.120569  0  1.025327  0  0  0.12302  0  1.024134  0  0  0.116096  0.118832  0  1.026207  0
H  H18  1  0.15866932  0.67516519  0.81124513  1  0  0.123716  0  0.931332  0  0  0.13706  0  0.990144  0  0  0.139356  0  0.98897  0  0  0.119961  0.135446  0  0.990872  0
H  H19  1  0.65866684  0.82484618  0.68875462  1  0  0.123816  0  0.931311  0  0  0.137172  0  0.990083  0  0  0.139468  0  0.988912  0  0  0.12001  0.135554  0  0.990818  0
H  H20  1  0.84131653  0.32484507  0.18875565  1  0  0.123727  0  0.931362  0  0  0.13711  0  0.99012  0  0  0.139405  0  0.988951  0  0  0.119983  0.135491  0  0.990854  0
H  H21  1  0.34132093  0.17514737  0.31124468  1  0  0.123777  0  0.931413  0  0  0.137153  0  0.990159  0  0  0.13945  0  0.988987  0  0  0.119999  0.135534  0  0.990893  0
C  C22  1  0.73602568  0.34083149  0.94127651  1  0  -0.019538  0  3.751531  0  0  -0.054092  0  4.024015  0  0  -0.052857  0  4.043854  0  0  -0.014459  -0.055033  0  4.010907  0
C  C23  1  0.23603201  0.15917277  0.55872314  1  0  -0.019612  0  3.751677  0  0  -0.054178  0  4.024182  0  0  -0.052955  0  4.044009  0  0  -0.014532  -0.05512  0  4.011074  0
C  C24  1  0.26397939  0.65917045  0.05872636  1  0  -0.019607  0  3.75148  0  0  -0.05417  0  4.02394  0  0  -0.052923  0  4.043789  0  0  -0.014481  -0.055111  0  4.01084  0
C  C25  1  0.76396153  0.84081719  0.44127520  1  0  -0.019324  0  3.751437  0  0  -0.053924  0  4.023881  0  0  -0.052655  0  4.043744  0  0  -0.014434  -0.054867  0  4.010779  0
C  C26  1  0.79166140  0.47784068  0.89116193  1  0  -0.053933  0  3.652755  0  0  -0.096833  0  3.916848  0  0  -0.094908  0  3.935159  0  0  -0.000319  -0.098004  0  3.904907  0
C  C27  1  0.29166685  0.02215786  0.60883582  1  0  -0.05395  0  3.652532  0  0  -0.096806  0  3.916642  0  0  -0.094873  0  3.934949  0  0  -0.000287  -0.097968  0  3.904694  0
C  C28  1  0.20832638  0.52217553  0.10883909  1  0  -0.053743  0  3.65264  0  0  -0.096634  0  3.916753  0  0  -0.094701  0  3.935054  0  0  -0.000203  -0.097806  0  3.904815  0
C  C29  1  0.70832092  0.97783214  0.39116576  1  0  -0.054043  0  3.652294  0  0  -0.096855  0  3.916456  0  0  -0.09492  0  3.934748  0  0  -0.000297  -0.098023  0  3.904513  0
C  C30  1  0.09181479  0.29663146  0.85101267  1  0  0.152125  0  3.664098  0  0  0.093019  0  3.932828  0  0  0.106731  0  3.946869  0  0  0.135136  0.084385  0  3.922571  0
C  C31  1  0.59181762  0.20338406  0.64898921  1  0  0.15213  0  3.663871  0  0  0.092973  0  3.932621  0  0  0.10668  0  3.946663  0  0  0.135122  0.084339  0  3.922364  0
C  C32  1  0.90819220  0.70338354  0.14898669  1  0  0.152046  0  3.664196  0  0  0.092915  0  3.932929  0  0  0.106621  0  3.946975  0  0  0.135094  0.084283  0  3.922666  0
C  C33  1  0.40817591  0.79660827  0.35100761  1  0  0.151979  0  3.663861  0  0  0.092782  0  3.932619  0  0  0.106485  0  3.946666  0  0  0.135008  0.084152  0  3.922354  0
C  C34  1  0.14666391  0.55731038  0.76691387  1  0  -0.177804  0  3.612321  0  0  -0.234528  0  3.85433  0  0  -0.235722  0  3.861144  0  0  -0.058698  -0.233625  0  3.849514  0
C  C35  1  0.64666180  0.94270449  0.73308522  1  0  -0.177987  0  3.612605  0  0  -0.234643  0  3.854471  0  0  -0.235842  0  3.86129  0  0  -0.058674  -0.233737  0  3.849652  0
C  C36  1  0.85333540  0.44270466  0.23308872  1  0  -0.177888  0  3.612629  0  0  -0.23451  0  3.854444  0  0  -0.235708  0  3.86126  0  0  -0.058633  -0.233606  0  3.849622  0
C  C37  1  0.35333750  0.05729260  0.26691179  1  0  -0.177933  0  3.612738  0  0  -0.234552  0  3.854539  0  0  -0.235751  0  3.861357  0  0  -0.058651  -0.233644  0  3.84972  0
C  C38  1  0.00852963  0.58284384  0.65952763  1  0  0.697595  0  3.85921  0  0  0.644749  0  4.167483  0  0  0.678698  0  4.159309  0  0  0.210382  0.621673  0  4.172803  0
C  C39  1  0.50851727  0.91716442  0.84047134  1  0  0.697735  0  3.859201  0  0  0.644881  0  4.167499  0  0  0.678837  0  4.159307  0  0  0.210434  0.621795  0  4.172831  0
C  C40  1  0.99147544  0.41715802  0.34046958  1  0  0.697671  0  3.859016  0  0  0.644764  0  4.167377  0  0  0.67872  0  4.159187  0  0  0.210378  0.621686  0  4.1727  0
C  C41  1  0.49148396  0.08283514  0.15953224  1  0  0.697536  0  3.859151  0  0  0.644675  0  4.167496  0  0  0.678632  0  4.159309  0  0  0.210399  0.621591  0  4.172821  0
N  N42  1  0.92509133  0.22890446  0.91571708  1  0  -0.397942  0  3.267617  0  0  -0.32069  0  3.551281  0  0  -0.341971  0  3.568548  0  0  -0.364264  -0.30578  0  3.539129  0
N  N43  1  0.42508449  0.27110071  0.58428403  1  0  -0.397821  0  3.267745  0  0  -0.320557  0  3.551407  0  0  -0.341846  0  3.568703  0  0  -0.364212  -0.30565  0  3.539259  0
N  N44  1  0.07491374  0.77109865  0.08428422  1  0  -0.397823  0  3.267868  0  0  -0.320579  0  3.551553  0  0  -0.341862  0  3.568833  0  0  -0.36419  -0.305666  0  3.539386  0
N  N45  1  0.57490905  0.72888805  0.41571345  1  0  -0.397891  0  3.267741  0  0  -0.32061  0  3.551383  0  0  -0.341894  0  3.56866  0  0  -0.364218  -0.305709  0  3.539248  0
N  N46  1  0.01701014  0.44779188  0.83459264  1  0  -0.0364  0  3.611341  0  0  0.057288  0  3.823615  0  0  0.042974  0  3.850736  0  0  -0.243972  0.066912  0  3.804762  0
N  N47  1  0.51702146  0.05221375  0.66540891  1  0  -0.036335  0  3.611183  0  0  0.057344  0  3.823465  0  0  0.043031  0  3.850586  0  0  -0.244011  0.066963  0  3.80461  0
N  N48  1  0.98299109  0.55220769  0.16541175  1  0  -0.036402  0  3.611365  0  0  0.057282  0  3.823645  0  0  0.04297  0  3.850768  0  0  -0.244079  0.066901  0  3.804789  0
N  N49  1  0.48297208  0.94778101  0.33459205  1  0  -0.036333  0  3.61123  0  0  0.057415  0  3.823385  0  0  0.043104  0  3.850508  0  0  -0.243949  0.067038  0  3.804525  0
O  O50  1  0.14550802  0.63804770  0.58586115  1  0  -0.663065  0  2.003972  0  0  -0.599703  0  2.261061  0  0  -0.626367  0  2.248917  0  0  -0.334226  -0.581166  0  2.269719  0
O  O51  1  0.64549254  0.86196600  0.91414032  1  0  -0.6631  0  2.003931  0  0  -0.599817  0  2.26113  0  0  -0.626489  0  2.248987  0  0  -0.334262  -0.581274  0  2.26979  0
O  O52  1  0.85450089  0.36194945  0.41414071  1  0  -0.663129  0  2.00384  0  0  -0.599736  0  2.260948  0  0  -0.626408  0  2.248806  0  0  -0.334232  -0.581197  0  2.26961  0
O  O53  1  0.35452406  0.13802991  0.08585746  1  0  -0.662905  0  2.004009  0  0  -0.599634  0  2.261215  0  0  -0.626311  0  2.24908  0  0  -0.334162  -0.581096  0  2.269875  0
O  O54  1  0.76890284  0.55659254  0.65496436  1  0  -0.650896  0  2.00817  0  0  -0.585272  0  2.264519  0  0  -0.612395  0  2.253262  0  0  -0.32373  -0.565967  0  2.271632  0
O  O55  1  0.26890487  0.94341214  0.84503096  1  0  -0.65093  0  2.008296  0  0  -0.58526  0  2.264613  0  0  -0.612384  0  2.25335  0  0  -0.323734  -0.565955  0  2.271727  0
O  O56  1  0.23109838  0.44340457  0.34503346  1  0  -0.650908  0  2.00819  0  0  -0.585254  0  2.264571  0  0  -0.612382  0  2.253306  0  0  -0.32373  -0.565949  0  2.271684  0
O  O57  1  0.73111749  0.05659698  0.15497544  1  0  -0.650886  0  2.007991  0  0  -0.585257  0  2.264354  0  0  -0.612384  0  2.253094  0  0  -0.323807  -0.56595  0  2.271464  0
