# generated using pymatgen
data_CuH6C4BrN4O
_symmetry_space_group_name_H-M   'P 1'
_cell_length_a   6.95993486
_cell_length_b   8.94112169
_cell_length_c   12.10264971
_cell_angle_alpha   89.99962581
_cell_angle_beta   89.99815657
_cell_angle_gamma   89.99975257
_symmetry_Int_Tables_number   1
_chemical_formula_structural   CuH6C4BrN4O
_chemical_formula_sum   'Cu4 H24 C16 Br4 N16 O4'
_cell_volume   753.14334689
_cell_formula_units_Z   4
loop_
 _symmetry_equiv_pos_site_id
 _symmetry_equiv_pos_as_xyz
  1  'x, y, z'
loop_
 _atom_site_type_symbol
 _atom_site_label
 _atom_site_symmetry_multiplicity
 _atom_site_fract_x
 _atom_site_fract_y
 _atom_site_fract_z
 _atom_site_occupancy
 _atom_site_pbe_cm5_charge
 _atom_site_pbe_ddec_charge
 _atom_site_pbe_ddec_spin_density
 _atom_site_pbe_ddec_sum_bond_order
 _atom_site_pbe_magmom
Cu  Cu0  1  0.00001959  0.19142222  0.50000246  1  0.421815  0.301282  0.292798  2.533649  0.175
Cu  Cu1  1  0.50001251  0.80857764  0.99999697  1  0.421812  0.301316  0.292807  2.533538  0.175
Cu  Cu2  1  0.00002507  0.80858527  0.50000104  1  0.421818  0.301293  0.292776  2.533442  0.175
Cu  Cu3  1  0.50000415  0.19142465  0.99999756  1  0.421767  0.301222  0.292818  2.533609  0.175
H  H4  1  0.33435984  0.86162791  0.60372065  1  0.101667  0.118823  -0.000475  1.036819  0.0
H  H5  1  0.66565770  0.86163502  0.39628954  1  0.101707  0.118844  -0.000475  1.036453  0.0
H  H6  1  0.16564043  0.13836443  0.10369945  1  0.101677  0.11877  -0.000476  1.036601  0.0
H  H7  1  0.83434949  0.13836858  0.89626450  1  0.10168  0.118837  -0.000475  1.03673  0.0
H  H8  1  0.66567693  0.13835440  0.39629534  1  0.101699  0.11884  -0.000476  1.036568  0.0
H  H9  1  0.33437764  0.13837190  0.60371075  1  0.101665  0.11879  -0.000475  1.03693  0.0
H  H10  1  0.83437192  0.86163019  0.89628679  1  0.101645  0.118722  -0.000476  1.036851  0.0
H  H11  1  0.16564849  0.86164169  0.10371100  1  0.101677  0.118822  -0.000476  1.036484  0.0
H  H12  1  0.41078952  0.78437289  0.73315791  1  0.096028  0.13098  0.00789  1.018965  0.009
H  H13  1  0.58916235  0.78436356  0.26685759  1  0.095979  0.130978  0.007884  1.01899  0.009
H  H14  1  0.08914584  0.21561490  0.23313938  1  0.095977  0.130953  0.007881  1.019147  0.009
H  H15  1  0.91081492  0.21563117  0.76683247  1  0.095984  0.130936  0.007891  1.018961  0.009
H  H16  1  0.58917829  0.21562396  0.26686056  1  0.095964  0.130968  0.007883  1.019036  0.009
H  H17  1  0.41081408  0.21561651  0.73315179  1  0.096  0.130936  0.00789  1.018933  0.009
H  H18  1  0.91084496  0.78437301  0.76685182  1  0.095971  0.130931  0.007889  1.019041  0.009
H  H19  1  0.08915576  0.78438581  0.23314964  1  0.095983  0.13097  0.007881  1.019046  0.009
H  H20  1  0.56913055  0.78087024  0.61734962  1  0.096419  0.124683  0.005033  1.036397  0.006
H  H21  1  0.43087594  0.78085590  0.38269151  1  0.096397  0.124685  0.005031  1.036433  0.006
H  H22  1  0.93085531  0.21912811  0.11731667  1  0.09639  0.124627  0.005028  1.036555  0.006
H  H23  1  0.06911980  0.21913274  0.88265104  1  0.096398  0.124642  0.005036  1.036388  0.006
H  H24  1  0.43088755  0.21912549  0.38269363  1  0.09642  0.124697  0.00503  1.036349  0.006
H  H25  1  0.56915078  0.21913200  0.61733770  1  0.096399  0.124591  0.005033  1.03634  0.006
H  H26  1  0.06913980  0.78085644  0.88267536  1  0.096413  0.124637  0.005035  1.036393  0.006
H  H27  1  0.93085951  0.78087977  0.11732859  1  0.09645  0.124653  0.005029  1.036593  0.006
C  C28  1  0.90926806  0.50000291  0.46960518  1  0.229126  0.210951  -0.02695  4.123272  -0.031
C  C29  1  0.09077302  0.50000289  0.53040585  1  0.22951  0.211406  -0.026892  4.124573  -0.031
C  C30  1  0.59074641  0.50000113  0.96959360  1  0.229294  0.211329  -0.026904  4.124209  -0.031
C  C31  1  0.40924152  0.50000355  0.03039429  1  0.229386  0.211157  -0.026939  4.123132  -0.031
C  C32  1  0.41852354  0.77286356  0.64294953  1  -0.137524  -0.281367  0.00386  3.876531  -0.003
C  C33  1  0.58146001  0.77284894  0.35706603  1  -0.137536  -0.281371  0.003856  3.876122  -0.003
C  C34  1  0.08143568  0.22714184  0.14293356  1  -0.137525  -0.281259  0.003856  3.876194  -0.003
C  C35  1  0.91851783  0.22714048  0.85704237  1  -0.137417  -0.281181  0.003858  3.876263  -0.003
C  C36  1  0.58147013  0.22713553  0.35706812  1  -0.137544  -0.281446  0.003855  3.875918  -0.003
C  C37  1  0.41853510  0.22713225  0.64294252  1  -0.137461  -0.28108  0.003857  3.876405  -0.003
C  C38  1  0.91854075  0.77286508  0.85706095  1  -0.137498  -0.281071  0.003859  3.876511  -0.003
C  C39  1  0.08144711  0.77286532  0.14294552  1  -0.137601  -0.281361  0.003856  3.876032  -0.003
C  C40  1  0.42971418  0.49999958  0.63870801  1  0.338948  0.454967  -0.003018  4.182269  -0.013
C  C41  1  0.57029818  0.49999392  0.36129889  1  0.339155  0.455138  -0.003001  4.183596  -0.013
C  C42  1  0.07028840  0.50000250  0.13870421  1  0.338734  0.454204  -0.003001  4.182769  -0.013
C  C43  1  0.92970671  0.49999883  0.86126386  1  0.33925  0.455253  -0.003018  4.18255  -0.013
Br  Br44  1  0.15285096  0.00001026  0.38635782  1  -0.225727  -0.389772  0.052753  1.794114  0.039
Br  Br45  1  0.84719719  0.00000356  0.61364395  1  -0.225697  -0.389746  0.052757  1.794188  0.039
Br  Br46  1  0.34718479  0.99999848  0.88636741  1  -0.225704  -0.389758  0.052763  1.794325  0.039
Br  Br47  1  0.65284204  0.99999818  0.11363718  1  -0.225689  -0.389726  0.052761  1.794007  0.039
N  N48  1  0.33769516  0.63123062  0.60781282  1  -0.143751  0.075128  0.147517  3.652588  0.136
N  N49  1  0.66231934  0.63119975  0.39218439  1  -0.143791  0.075107  0.147547  3.652724  0.136
N  N50  1  0.16228476  0.36880083  0.10781953  1  -0.143638  0.075531  0.147505  3.652623  0.136
N  N51  1  0.83767372  0.36877146  0.89217640  1  -0.143867  0.074851  0.147542  3.652797  0.136
N  N52  1  0.66232150  0.36879084  0.39218582  1  -0.143762  0.075327  0.147555  3.652462  0.137
N  N53  1  0.33770451  0.36877026  0.60781177  1  -0.143762  0.074952  0.14751  3.653012  0.136
N  N54  1  0.83768880  0.63122846  0.89218737  1  -0.143812  0.074776  0.147549  3.652741  0.136
N  N55  1  0.16228835  0.63120638  0.10782637  1  -0.143658  0.075557  0.147516  3.652802  0.136
N  N56  1  0.16357653  0.36603512  0.55506374  1  -0.250323  -0.223171  0.18416  3.475184  0.168
N  N57  1  0.83644375  0.36600542  0.44494213  1  -0.250373  -0.223393  0.184231  3.474507  0.168
N  N58  1  0.33641217  0.63399457  0.05506279  1  -0.250445  -0.22352  0.184208  3.474645  0.168
N  N59  1  0.66355633  0.63397089  0.94493853  1  -0.25032  -0.223224  0.184162  3.4753  0.168
N  N60  1  0.83644013  0.63399416  0.44494151  1  -0.250373  -0.223333  0.184201  3.474511  0.168
N  N61  1  0.16356860  0.63397242  0.55506064  1  -0.250351  -0.223234  0.184153  3.475134  0.168
N  N62  1  0.66354989  0.36603024  0.94493750  1  -0.25037  -0.223261  0.184157  3.475169  0.168
N  N63  1  0.33641148  0.36601142  0.05505928  1  -0.250375  -0.223347  0.184208  3.474264  0.168
O  O64  1  0.41577086  0.49999329  0.31158886  1  -0.289401  -0.467812  -0.011654  2.120773  -0.01
O  O65  1  0.58426592  0.50000356  0.68841804  1  -0.289346  -0.467671  -0.011659  2.119847  -0.01
O  O66  1  0.08420310  0.49999937  0.81154104  1  -0.28937  -0.467511  -0.011653  2.120794  -0.01
O  O67  1  0.91571155  0.50000420  0.18842951  1  -0.289195  -0.467448  -0.01166  2.11919  -0.01
