# generated using pymatgen
data_CuHgH16C14(N2Cl)4
_symmetry_space_group_name_H-M   'P 1'
_cell_length_a   8.94148243
_cell_length_b   8.94147860
_cell_length_c   14.32839258
_cell_angle_alpha   92.64302184
_cell_angle_beta   92.64318127
_cell_angle_gamma   111.65003413
_symmetry_Int_Tables_number   1
_chemical_formula_structural   CuHgH16C14(N2Cl)4
_chemical_formula_sum   'Cu2 Hg2 H32 C28 N16 Cl8'
_cell_volume   1061.14839636
_cell_formula_units_Z   2
loop_
 _symmetry_equiv_pos_site_id
 _symmetry_equiv_pos_as_xyz
  1  'x, y, z'
loop_
 _atom_site_type_symbol
 _atom_site_label
 _atom_site_symmetry_multiplicity
 _atom_site_fract_x
 _atom_site_fract_y
 _atom_site_fract_z
 _atom_site_occupancy
 _atom_site_hle17_ddec_charge
 _atom_site_hle17_ddec_spin_density
 _atom_site_hle17_ddec_sum_bond_order
 _atom_site_hle17_magmom
 _atom_site_hse06_10hf_ddec_charge
 _atom_site_hse06_10hf_ddec_spin_density
 _atom_site_hse06_10hf_ddec_sum_bond_order
 _atom_site_hse06_10hf_magmom
 _atom_site_hse06_ddec_charge
 _atom_site_hse06_ddec_spin_density
 _atom_site_hse06_ddec_sum_bond_order
 _atom_site_hse06_magmom
 _atom_site_pbe_cm5_charge
 _atom_site_pbe_ddec_charge
 _atom_site_pbe_ddec_spin_density
 _atom_site_pbe_ddec_sum_bond_order
 _atom_site_pbe_magmom
Cu  Cu0  1  0.99999967  0.49999986  0.99999994  1  0.721822  -0.693799  1.973497  -0.529  0.673096  -0.776701  2.378554  -0.634  0.753629  -0.8337  2.318148  -0.708  0.766258  0.624645  -0.736728  2.41861  -0.585
Cu  Cu1  1  0.50000018  0.00000070  0.49999945  1  0.721805  -0.693797  1.973552  -0.529  0.673123  -0.776709  2.378631  -0.634  0.753611  -0.833707  2.318197  -0.708  0.76624  0.624649  -0.736734  2.418697  -0.585
Hg  Hg2  1  0.20573660  0.79426425  0.74999900  1  0.736138  -5.3e-05  2.22507  0.0  0.610846  8.8e-05  2.763659  0.0  0.655733  5.6e-05  2.724054  0.0  0.416452  0.580217  5.5e-05  2.78996  0.0
Hg  Hg3  1  0.79426386  0.20573474  0.25000039  1  0.736161  -5.2e-05  2.22506  0.0  0.610868  8.8e-05  2.763652  0.0  0.655756  5.4e-05  2.724044  0.0  0.41647  0.580241  5.5e-05  2.789953  0.0
H  H4  1  0.08589232  0.20701312  0.91093265  1  0.104657  0.000263  0.965885  0.0  0.111853  -4.9e-05  1.029706  0.0  0.113875  -1e-05  1.027213  0.0  0.108368  0.110424  -8.6e-05  1.031373  0.0
H  H5  1  0.79298661  0.91410762  0.58906709  1  0.10467  0.000266  0.965883  0.0  0.111867  -4.9e-05  1.029706  0.0  0.113889  -1.1e-05  1.027214  0.0  0.108369  0.110438  -8.6e-05  1.031371  0.0
H  H6  1  0.91410702  0.79298588  0.08906670  1  0.104654  0.000264  0.96589  0.0  0.111854  -4.8e-05  1.029708  0.0  0.113875  -1.1e-05  1.027216  0.0  0.108361  0.110425  -8.6e-05  1.031373  0.0
H  H7  1  0.20701430  0.08589258  0.41093304  1  0.104666  0.000264  0.965894  0.0  0.111864  -4.9e-05  1.029713  0.0  0.113886  -1e-05  1.027221  0.0  0.108364  0.110435  -8.6e-05  1.031378  0.0
H  H8  1  0.85009281  0.95818033  0.80932761  1  0.130813  -0.000423  0.954934  -0.001  0.142755  -0.000427  1.008496  -0.001  0.144745  -0.000312  1.009514  0.0  0.111268  0.141431  -0.000525  1.007808  -0.001
H  H9  1  0.04182136  0.14990626  0.69067148  1  0.130809  -0.000423  0.954923  -0.001  0.14276  -0.000427  1.008494  -0.001  0.14475  -0.000312  1.00951  0.0  0.111255  0.141435  -0.000525  1.007805  -0.001
H  H10  1  0.14990653  0.04181866  0.19067174  1  0.130831  -0.00042  0.954948  -0.001  0.142752  -0.000427  1.008528  -0.001  0.144742  -0.000312  1.009546  0.0  0.111263  0.141429  -0.000525  1.00784  -0.001
H  H11  1  0.95818179  0.85009394  0.30932802  1  0.130819  -0.000421  0.95497  -0.001  0.142753  -0.000427  1.008541  -0.001  0.144744  -0.000311  1.009558  0.0  0.111258  0.14143  -0.000525  1.007851  -0.001
H  H12  1  0.56737732  0.99904304  0.85087348  1  0.110494  4.4e-05  0.979124  0.0  0.115605  -0.000314  1.051853  -0.001  0.118079  -0.000225  1.048746  0.0  0.110603  0.113875  -0.000379  1.054708  -0.001
H  H13  1  0.00095868  0.43262102  0.64912601  1  0.110514  4.1e-05  0.979129  0.0  0.115621  -0.000313  1.05186  -0.001  0.118097  -0.000225  1.048748  0.0  0.11061  0.113894  -0.000379  1.054715  -0.001
H  H14  1  0.43262135  0.00095716  0.14912659  1  0.110531  4e-05  0.979119  0.0  0.115643  -0.000313  1.051841  -0.001  0.118117  -0.000225  1.048734  0.0  0.110611  0.113915  -0.000379  1.054695  -0.001
H  H15  1  0.99904335  0.56737917  0.35087276  1  0.110521  3.9e-05  0.979123  0.0  0.115635  -0.000314  1.051845  -0.001  0.118109  -0.000225  1.048738  0.0  0.11061  0.113906  -0.000379  1.0547  -0.001
H  H16  1  0.43100624  0.39916824  0.86753296  1  0.123039  -0.000508  0.944131  -0.001  0.129963  -0.000406  1.012152  -0.001  0.132717  -0.000298  1.008304  0.0  0.123344  0.127732  -0.000488  1.014433  -0.001
H  H17  1  0.60083363  0.56899492  0.63246841  1  0.123038  -0.000507  0.944104  -0.001  0.129968  -0.000406  1.012114  -0.001  0.132721  -0.000298  1.008267  0.0  0.123346  0.127733  -0.000488  1.014406  -0.001
H  H18  1  0.56899244  0.60083197  0.13246851  1  0.123047  -0.000506  0.944134  -0.001  0.129993  -0.000406  1.012133  -0.001  0.132747  -0.000298  1.008282  0.0  0.123339  0.12776  -0.000488  1.014418  -0.001
H  H19  1  0.39916930  0.43100770  0.36753254  1  0.123026  -0.000505  0.944157  -0.001  0.129954  -0.000406  1.012175  -0.001  0.132705  -0.000298  1.008334  0.0  0.123345  0.127724  -0.000488  1.014452  -0.001
H  H20  1  0.60199758  0.70551492  0.81571118  1  0.131344  -0.000604  0.979253  -0.001  0.139516  -0.000477  1.039125  -0.001  0.142134  -0.000353  1.039496  0.0  0.101279  0.137496  -0.000582  1.039201  -0.001
H  H21  1  0.29448574  0.39800261  0.68428861  1  0.131341  -0.000606  0.979252  -0.001  0.139515  -0.000477  1.039119  -0.001  0.142133  -0.000352  1.03949  0.0  0.101281  0.137496  -0.000582  1.039197  -0.001
H  H22  1  0.39800221  0.29448528  0.18428892  1  0.131357  -0.000605  0.979238  -0.001  0.139531  -0.000477  1.039106  -0.001  0.142148  -0.000353  1.039476  0.0  0.10128  0.137511  -0.000582  1.039183  -0.001
H  H23  1  0.70551629  0.60199759  0.31571085  1  0.131337  -0.000605  0.979275  -0.001  0.13951  -0.000477  1.039143  -0.001  0.142129  -0.000353  1.03951  0.0  0.101283  0.13749  -0.000582  1.039221  -0.001
H  H24  1  0.91233651  0.77203948  0.89425058  1  0.103347  0.000126  0.961182  0.0  0.108142  -6.2e-05  1.032951  0.0  0.109592  -1.3e-05  1.031341  0.0  0.116893  0.10686  -0.000108  1.034243  0.0
H  H25  1  0.22796080  0.08766504  0.60574806  1  0.1033  0.000128  0.961189  0.0  0.108112  -6.2e-05  1.032941  0.0  0.109562  -1.3e-05  1.031334  0.0  0.116859  0.10683  -0.000108  1.034235  0.0
H  H26  1  0.08766328  0.22796072  0.10574882  1  0.103346  0.000127  0.96119  0.0  0.108144  -6.2e-05  1.032953  0.0  0.109594  -1.3e-05  1.031344  0.0  0.116892  0.106862  -0.000108  1.034245  0.0
H  H27  1  0.77203988  0.91233757  0.39425074  1  0.103301  0.000126  0.961186  0.0  0.108114  -6.2e-05  1.032934  0.0  0.109564  -1.3e-05  1.031326  0.0  0.116857  0.106832  -0.000108  1.034228  0.0
H  H28  1  0.65299805  0.29465155  0.05107398  1  0.091357  8.3e-05  0.964006  0.0  0.095722  9.9e-05  1.044574  0.0  0.096769  9.8e-05  1.042136  0.0  0.113621  0.094731  9.3e-05  1.046808  0.0
H  H29  1  0.70534860  0.34700335  0.44892671  1  0.091365  8.3e-05  0.964023  0.0  0.095713  9.9e-05  1.044601  0.0  0.096759  9.8e-05  1.042164  0.0  0.113611  0.094721  9.3e-05  1.046838  0.0
H  H30  1  0.34700241  0.70534745  0.94892611  1  0.091378  8.6e-05  0.964001  0.0  0.095747  9.9e-05  1.044567  0.0  0.096796  9.8e-05  1.042129  0.0  0.113632  0.094753  9.3e-05  1.046802  0.0
H  H31  1  0.29465276  0.65299806  0.55107416  1  0.091364  8.7e-05  0.964013  0.0  0.095725  9.9e-05  1.044579  0.0  0.096772  9.8e-05  1.042142  0.0  0.11363  0.094734  9.3e-05  1.046815  0.0
H  H32  1  0.50091326  0.19439282  0.95637353  1  0.108449  0.000228  0.95055  0.0  0.120257  0.000146  1.016218  0.0  0.121776  0.000132  1.014131  0.0  0.123764  0.119028  0.000155  1.018114  0.0
H  H33  1  0.80560780  0.49908598  0.54362659  1  0.108378  0.000232  0.950512  0.0  0.120179  0.000146  1.0162  0.0  0.121698  0.000132  1.014114  0.0  0.123731  0.118951  0.000155  1.018097  0.0
H  H34  1  0.49908654  0.80560739  0.04362726  1  0.108452  0.00023  0.950554  0.0  0.120264  0.000147  1.016222  0.0  0.121785  0.000132  1.014135  0.0  0.123765  0.119035  0.000155  1.018117  0.0
H  H35  1  0.19439266  0.50091301  0.45637279  1  0.108385  0.000235  0.950507  0.0  0.120188  0.000146  1.016191  0.0  0.121707  0.000132  1.014104  0.0  0.12373  0.118959  0.000155  1.018088  0.0
C  C36  1  0.95662340  0.17617084  0.90802997  1  0.087994  0.001309  3.692452  -0.001  0.046663  -0.001713  3.96962  -0.003  0.059207  -0.000282  3.983598  -0.002  0.024263  0.038187  -0.002811  3.963131  -0.004
C  C37  1  0.82383051  0.04337708  0.59196923  1  0.087955  0.001272  3.692499  -0.002  0.046618  -0.001715  3.969693  -0.003  0.059158  -0.000281  3.983673  -0.002  0.024251  0.038144  -0.002811  3.963199  -0.004
C  C38  1  0.04337572  0.82383056  0.09196875  1  0.087929  0.001304  3.692474  -0.001  0.046585  -0.001715  3.969671  -0.003  0.059126  -0.000281  3.983651  -0.002  0.024243  0.038112  -0.002812  3.963181  -0.004
C  C39  1  0.17616928  0.95662313  0.40803157  1  0.087926  0.001292  3.692517  -0.001  0.046597  -0.001715  3.969709  -0.003  0.059134  -0.00028  3.983689  -0.002  0.024265  0.038123  -0.002812  3.963217  -0.004
C  C40  1  0.83484103  0.04854756  0.85661608  1  -0.188659  -0.004666  3.756265  -0.005  -0.203102  -0.001854  4.019922  -0.002  -0.214155  -0.001169  4.042073  -0.002  -0.108346  -0.196273  -0.002497  4.0078  -0.003
C  C41  1  0.95145348  0.16515997  0.64338313  1  -0.188644  -0.004654  3.756376  -0.005  -0.203111  -0.001851  4.02003  -0.002  -0.214164  -0.001169  4.042184  -0.002  -0.108327  -0.19628  -0.002497  4.007907  -0.003
C  C42  1  0.16516032  0.95145385  0.14338270  1  -0.188592  -0.004683  3.756345  -0.005  -0.203012  -0.001851  4.019997  -0.002  -0.214064  -0.00117  4.042152  -0.002  -0.108291  -0.196183  -0.002497  4.007879  -0.003
C  C43  1  0.04854631  0.83484023  0.35661697  1  -0.188603  -0.004674  3.756364  -0.005  -0.203037  -0.001851  4.020006  -0.002  -0.21409  -0.00117  4.042162  -0.002  -0.108303  -0.196207  -0.002497  4.007884  -0.003
C  C44  1  0.69162624  0.06656174  0.87594589  1  0.03897  -0.011548  3.624602  -0.011  -0.016867  -0.00351  3.888073  -0.004  -0.006508  -0.001914  3.900816  -0.003  0.02935  -0.032695  -0.004919  3.875341  -0.005
C  C45  1  0.93343906  0.30837183  0.62405449  1  0.038978  -0.011549  3.624673  -0.011  -0.016868  -0.003511  3.888131  -0.004  -0.006509  -0.001914  3.900877  -0.003  0.029362  -0.032694  -0.004919  3.875404  -0.005
C  C46  1  0.30837198  0.93343725  0.12405413  1  0.038855  -0.011533  3.624812  -0.011  -0.016995  -0.003511  3.88827  -0.004  -0.006637  -0.001915  3.901016  -0.003  0.029297  -0.03283  -0.00492  3.875539  -0.005
C  C47  1  0.06656363  0.69162716  0.37594496  1  0.038883  -0.011536  3.62476  -0.011  -0.01697  -0.003512  3.88823  -0.004  -0.006611  -0.001913  3.900976  -0.003  0.029302  -0.032796  -0.00492  3.875498  -0.005
C  C48  1  0.55674271  0.47623524  0.88257006  1  0.024625  0.004179  3.640953  0.001  -0.038007  0.001158  3.89768  0.0  -0.018181  0.002422  3.914867  0.0  0.029863  -0.043851  0.000237  3.888427  -0.001
C  C49  1  0.52376364  0.44325795  0.61742986  1  0.024607  0.004147  3.640926  0.001  -0.038037  0.001158  3.897671  0.0  -0.018206  0.002423  3.914858  0.0  0.029838  -0.043881  0.000237  3.888416  -0.001
C  C50  1  0.44325730  0.52376255  0.11742998  1  0.024604  0.00416  3.640991  0.001  -0.038043  0.001157  3.897731  0.0  -0.018199  0.002423  3.914923  0.0  0.029854  -0.043886  0.000237  3.888479  -0.001
C  C51  1  0.47623615  0.55674225  0.38256954  1  0.024622  0.004139  3.641  0.001  -0.038021  0.001158  3.89774  0.0  -0.018194  0.002422  3.914924  0.0  0.029845  -0.043862  0.000237  3.888488  -0.001
C  C52  1  0.64604142  0.63081297  0.85796695  1  -0.202258  -0.004194  3.755872  -0.005  -0.213232  -0.001934  4.015333  -0.002  -0.223912  -0.001584  4.033891  -0.002  -0.113169  -0.206066  -0.002256  4.000531  -0.003
C  C53  1  0.36918692  0.35395949  0.64203295  1  -0.202271  -0.004171  3.755847  -0.005  -0.213238  -0.001934  4.015299  -0.002  -0.223919  -0.001583  4.033861  -0.002  -0.113184  -0.206072  -0.002256  4.000499  -0.003
C  C54  1  0.35395837  0.36918723  0.14203315  1  -0.202324  -0.004183  3.755975  -0.005  -0.213293  -0.001934  4.015437  -0.002  -0.223974  -0.001582  4.033993  -0.002  -0.113205  -0.206127  -0.002256  4.000637  -0.003
C  C55  1  0.63081355  0.64603951  0.35796783  1  -0.202262  -0.004175  3.75592  -0.005  -0.21323  -0.001934  4.015372  -0.002  -0.22391  -0.001582  4.033935  -0.002  -0.113188  -0.206064  -0.002256  4.000573  -0.003
C  C56  1  0.80338834  0.66568360  0.89697169  1  0.073352  0.005719  3.694865  0.001  0.032253  0.001197  3.97611  -0.001  0.044368  0.002907  3.988585  0.0  0.026492  0.025045  -1.1e-05  3.965499  -0.002
C  C57  1  0.33431727  0.19661303  0.60302766  1  0.073471  0.005693  3.694748  0.001  0.032373  0.001196  3.97598  -0.001  0.044485  0.002908  3.988453  0.0  0.026588  0.025164  -1e-05  3.965372  -0.002
C  C58  1  0.19661145  0.33431660  0.10302841  1  0.073373  0.00571  3.694946  0.001  0.03227  0.001197  3.976194  -0.001  0.044386  0.002906  3.988665  0.0  0.026507  0.025062  -1e-05  3.965583  -0.002
C  C59  1  0.66568318  0.80338596  0.39697173  1  0.073413  0.005696  3.694802  0.001  0.032316  0.001196  3.976039  -0.001  0.044428  0.002906  3.988515  0.0  0.026579  0.025107  -1.1e-05  3.965432  -0.002
C  C60  1  0.62698135  0.27296770  0.97486747  1  0.047196  0.000717  3.631411  0.0  -0.050881  6.1e-05  3.883872  0.0  -0.03414  0.000164  3.895183  0.0  0.058308  -0.064615  -7.2e-05  3.875753  -0.001
C  C61  1  0.72703073  0.37301839  0.52513335  1  0.047279  0.000709  3.631433  0.0  -0.050757  6.2e-05  3.883806  0.0  -0.034015  0.000163  3.895123  0.0  0.058342  -0.064486  -7.2e-05  3.875689  -0.001
C  C62  1  0.37301844  0.72703251  0.02513333  1  0.0472  0.000703  3.631409  0.0  -0.050893  6.1e-05  3.883875  0.0  -0.034146  0.000163  3.895204  0.0  0.058301  -0.064625  -7.2e-05  3.875745  -0.001
C  C63  1  0.27296794  0.62698182  0.47486672  1  0.047251  0.000697  3.6314  0.0  -0.0508  6.3e-05  3.883797  0.0  -0.034063  0.000163  3.895112  0.0  0.058336  -0.064532  -7.2e-05  3.875677  -0.001
N  N64  1  0.89232162  0.26672027  0.95692358  1  -0.264182  -0.071632  3.212956  -0.095  -0.244402  -0.050313  3.530509  -0.07  -0.272979  -0.040488  3.554126  -0.06  -0.27533  -0.236023  -0.056605  3.511859  -0.075
N  N65  1  0.73327894  0.10767775  0.54307539  1  -0.264117  -0.071608  3.212937  -0.095  -0.244375  -0.050314  3.530501  -0.07  -0.272935  -0.040489  3.554096  -0.06  -0.27532  -0.235985  -0.056604  3.511847  -0.075
N  N66  1  0.10767861  0.73328113  0.04307517  1  -0.264055  -0.071621  3.212982  -0.095  -0.244303  -0.050314  3.530532  -0.07  -0.272873  -0.040488  3.554145  -0.06  -0.275306  -0.23593  -0.056605  3.511879  -0.075
N  N67  1  0.26671974  0.89232246  0.45692537  1  -0.26406  -0.07162  3.212977  -0.095  -0.244334  -0.050312  3.530564  -0.07  -0.272889  -0.040488  3.554155  -0.06  -0.275313  -0.235949  -0.056602  3.51191  -0.075
N  N68  1  0.73054039  0.19810581  0.93658028  1  0.048494  0.00057  3.5763  0.0  0.137019  -0.001231  3.802842  -0.002  0.127178  -0.000593  3.829336  -0.001  -0.150097  0.170766  -0.001672  3.749358  -0.002
N  N69  1  0.80189423  0.26945991  0.56341936  1  0.048412  0.000563  3.576338  0.0  0.13698  -0.001232  3.802835  -0.002  0.127135  -0.00059  3.829332  -0.001  -0.150105  0.170719  -0.001672  3.749364  -0.002
N  N70  1  0.26945940  0.80189439  0.06341913  1  0.04844  0.000564  3.576526  0.0  0.137022  -0.001233  3.803009  -0.002  0.127182  -0.000591  3.829503  -0.001  -0.150073  0.170783  -0.001672  3.749509  -0.002
N  N71  1  0.19810713  0.73054149  0.43658081  1  0.048431  0.000568  3.576455  0.0  0.136992  -0.001232  3.802965  -0.002  0.127147  -0.000591  3.82946  -0.001  -0.150102  0.170742  -0.001671  3.749485  -0.002
N  N72  1  0.65825430  0.42622942  0.93409926  1  0.047612  -0.002387  3.559145  -0.003  0.166821  -0.00192  3.742496  -0.002  0.128782  -0.001421  3.805678  -0.002  -0.145152  0.172328  -0.002286  3.726829  -0.003
N  N73  1  0.57377034  0.34174640  0.56590082  1  0.047589  -0.002382  3.559142  -0.003  0.166801  -0.00192  3.74249  -0.002  0.128752  -0.001421  3.805679  -0.002  -0.14515  0.172308  -0.002286  3.726823  -0.003
N  N74  1  0.34174549  0.57377079  0.06590084  1  0.047606  -0.002378  3.559111  -0.003  0.16678  -0.001919  3.742523  -0.002  0.128696  -0.001423  3.805756  -0.002  -0.145164  0.172286  -0.002287  3.726858  -0.003
N  N75  1  0.42622990  0.65825501  0.43409933  1  0.047652  -0.002381  3.559084  -0.003  0.16686  -0.001918  3.742447  -0.002  0.128822  -0.001422  3.805621  -0.002  -0.145132  0.172366  -0.002286  3.72678  -0.003
N  N76  1  0.80933089  0.54084715  0.94363802  1  -0.251836  -0.070373  3.202524  -0.093  -0.236706  -0.051816  3.504053  -0.072  -0.254248  -0.042471  3.53065  -0.063  -0.266501  -0.220243  -0.057648  3.490713  -0.077
N  N77  1  0.45915318  0.19067021  0.55636211  1  -0.251865  -0.070362  3.202503  -0.093  -0.236767  -0.051815  3.504068  -0.072  -0.254291  -0.042471  3.530646  -0.063  -0.266521  -0.220299  -0.057648  3.490727  -0.077
N  N78  1  0.19066778  0.45915305  0.05636205  1  -0.251791  -0.070371  3.202468  -0.093  -0.236643  -0.051815  3.50399  -0.072  -0.254167  -0.042469  3.530593  -0.063  -0.266467  -0.22018  -0.057646  3.490652  -0.077
N  N79  1  0.54084751  0.80933240  0.44363738  1  -0.251845  -0.070357  3.202476  -0.093  -0.236749  -0.051816  3.504053  -0.072  -0.254278  -0.04247  3.53063  -0.063  -0.266509  -0.220282  -0.057646  3.490713  -0.077
Cl  Cl80  1  0.25001449  0.02248294  0.86953053  1  -0.540083  -5e-06  0.901484  0.0  -0.48021  -4e-06  1.156921  0.0  -0.496622  2.2e-05  1.140439  0.0  -0.312406  -0.468448  -6.8e-05  1.168289  0.0
Cl  Cl81  1  0.97751798  0.74998594  0.63046817  1  -0.540064  -4e-06  0.901465  0.0  -0.480195  -5e-06  1.156912  0.0  -0.496604  2.2e-05  1.140423  0.0  -0.312405  -0.468431  -6.8e-05  1.168282  0.0
Cl  Cl82  1  0.74998687  0.97751847  0.13046895  1  -0.540075  -6e-06  0.901487  0.0  -0.480203  -4e-06  1.156925  0.0  -0.496612  2.2e-05  1.140436  0.0  -0.312401  -0.468439  -6.8e-05  1.168293  0.0
Cl  Cl83  1  0.02248137  0.25001305  0.36953188  1  -0.540068  -5e-06  0.901474  0.0  -0.480201  -5e-06  1.156922  0.0  -0.496608  2.2e-05  1.140428  0.0  -0.312408  -0.468439  -6.8e-05  1.168291  0.0
Cl  Cl84  1  0.15980500  0.52663133  0.82255840  1  -0.553727  4.7e-05  0.969931  -0.002  -0.505158  0.001677  1.253361  0.0  -0.523188  0.00221  1.232388  0.0  -0.297788  -0.492149  0.000866  1.267643  -0.001
Cl  Cl85  1  0.47336863  0.84019493  0.67744044  1  -0.553724  4.7e-05  0.969946  -0.002  -0.505144  0.001678  1.253366  0.0  -0.52317  0.002209  1.232389  0.0  -0.297784  -0.492139  0.000866  1.267657  -0.001
Cl  Cl86  1  0.84019479  0.47336887  0.17744100  1  -0.553743  4.7e-05  0.969933  -0.002  -0.50517  0.001677  1.25336  0.0  -0.523201  0.002209  1.232387  0.0  -0.297799  -0.492164  0.000866  1.267645  -0.001
Cl  Cl87  1  0.52663295  0.15980407  0.32256037  1  -0.553728  4.6e-05  0.969943  -0.002  -0.505146  0.001677  1.253358  0.0  -0.523171  0.00221  1.232381  0.0  -0.297784  -0.492142  0.000866  1.267649  -0.001
