# generated using pymatgen
data_CaH4(C2O)4
_symmetry_space_group_name_H-M   'P 1'
_cell_length_a   6.62330100
_cell_length_b   9.62387138
_cell_length_c   13.48244930
_cell_angle_alpha   108.19324420
_cell_angle_beta   90.00037737
_cell_angle_gamma   90.00000225
_symmetry_Int_Tables_number   1
_chemical_formula_structural   CaH4(C2O)4
_chemical_formula_sum   'Ca4 H16 C32 O16'
_cell_volume   816.43339365
_cell_formula_units_Z   4
loop_
 _symmetry_equiv_pos_site_id
 _symmetry_equiv_pos_as_xyz
  1  'x, y, z'
loop_
 _atom_site_type_symbol
 _atom_site_label
 _atom_site_symmetry_multiplicity
 _atom_site_fract_x
 _atom_site_fract_y
 _atom_site_fract_z
 _atom_site_occupancy
 _atom_site_hle17_bader_spin_density
 _atom_site_hle17_ddec_charge
 _atom_site_hle17_ddec_spin_density
 _atom_site_hle17_ddec_sum_bond_order
 _atom_site_hle17_magmom
 _atom_site_hse06_10hf_bader_spin_density
 _atom_site_hse06_10hf_ddec_charge
 _atom_site_hse06_10hf_ddec_spin_density
 _atom_site_hse06_10hf_ddec_sum_bond_order
 _atom_site_hse06_10hf_magmom
 _atom_site_hse06_bader_spin_density
 _atom_site_hse06_ddec_charge
 _atom_site_hse06_ddec_spin_density
 _atom_site_hse06_ddec_sum_bond_order
 _atom_site_hse06_magmom
 _atom_site_pbe_bader_spin_density
 _atom_site_pbe_cm5_charge
 _atom_site_pbe_ddec_charge
 _atom_site_pbe_ddec_spin_density
 _atom_site_pbe_ddec_sum_bond_order
 _atom_site_pbe_magmom
Ca  Ca0  1  0.96368462  0.81807794  0.51623497  1  0  1.544641  0  1.162579  0  0  1.416286  0  1.509786  0  0  1.462035  0  1.464685  0  0  0.921339  1.381363  0  1.543153  0
Ca  Ca1  1  0.46368598  0.68191988  0.48376715  1  0  1.544632  0  1.162649  0  0  1.416264  0  1.509876  0  0  1.462021  0  1.464763  0  0  0.921342  1.381341  0  1.543249  0
Ca  Ca2  1  0.03631598  0.18191513  0.48376172  1  0  1.544693  0  1.162529  0  0  1.416306  0  1.509782  0  0  1.462056  0  1.464681  0  0  0.921402  1.381383  0  1.543148  0
Ca  Ca3  1  0.53631311  0.31808415  0.51623715  1  0  1.544743  0  1.16241  0  0  1.416297  0  1.509781  0  0  1.462039  0  1.46469  0  0  0.921409  1.381377  0  1.543148  0
H  H4  1  0.11314849  0.77638216  0.14060714  1  0  0.092849  0  0.948048  0  0  0.104792  0  1.007391  0  0  0.107406  0  1.006968  0  0  0.103318  0.102935  0  1.007827  0
H  H5  1  0.61315930  0.72362496  0.85939665  1  0  0.092809  0  0.948058  0  0  0.104798  0  1.007367  0  0  0.107378  0  1.006984  0  0  0.103279  0.102938  0  1.007802  0
H  H6  1  0.88685361  0.22363061  0.85939390  1  0  0.092835  0  0.948039  0  0  0.104751  0  1.007404  0  0  0.107361  0  1.006988  0  0  0.10332  0.102893  0  1.00784  0
H  H7  1  0.38683224  0.27636813  0.14060524  1  0  0.092824  0  0.948097  0  0  0.104816  0  1.007394  0  0  0.107418  0  1.006984  0  0  0.103312  0.102959  0  1.007829  0
H  H8  1  0.31321917  0.82309788  0.99886857  1  0  0.082089  0  0.968443  0  0  0.092712  0  1.030263  0  0  0.095186  0  1.029699  0  0  0.097403  0.090957  0  1.030715  0
H  H9  1  0.81322595  0.67689643  0.00113080  1  0  0.081958  0  0.968456  0  0  0.092562  0  1.030302  0  0  0.09501  0  1.029766  0  0  0.097338  0.090821  0  1.030739  0
H  H10  1  0.68678747  0.17691598  0.00113271  1  0  0.082164  0  0.968228  0  0  0.092838  0  1.030011  0  0  0.0953  0  1.029461  0  0  0.097469  0.091081  0  1.030468  0
H  H11  1  0.18677011  0.32309228  0.99886789  1  0  0.082038  0  0.968476  0  0  0.092694  0  1.030264  0  0  0.095142  0  1.029727  0  0  0.097391  0.090944  0  1.030712  0
H  H12  1  0.78792732  0.01000570  0.21962659  1  0  0.105723  0  0.933781  0  0  0.117372  0  0.989968  0  0  0.120975  0  0.987967  0  0  0.11434  0.114561  0  0.991976  0
H  H13  1  0.28791761  0.48998851  0.78037196  1  0  0.105718  0  0.933904  0  0  0.117366  0  0.990075  0  0  0.120969  0  0.988075  0  0  0.11434  0.114556  0  0.992082  0
H  H14  1  0.21208234  0.98999725  0.78038118  1  0  0.105722  0  0.933892  0  0  0.11738  0  0.990065  0  0  0.120983  0  0.988067  0  0  0.114341  0.114564  0  0.992068  0
H  H15  1  0.71207242  0.51000892  0.21961901  1  0  0.105737  0  0.933916  0  0  0.117384  0  0.99009  0  0  0.120988  0  0.988089  0  0  0.114324  0.114573  0  0.992099  0
H  H16  1  0.65266278  0.94234698  0.03835152  1  0  0.084457  0  0.966293  0  0  0.096336  0  1.026344  0  0  0.098657  0  1.026146  0  0  0.099  0.094647  0  1.026626  0
H  H17  1  0.15266150  0.55763724  0.96164733  1  0  0.084393  0  0.966284  0  0  0.096312  0  1.026298  0  0  0.098634  0  1.026102  0  0  0.099031  0.094624  0  1.026578  0
H  H18  1  0.34735594  0.05765487  0.96165453  1  0  0.084432  0  0.966202  0  0  0.096304  0  1.026261  0  0  0.098625  0  1.026065  0  0  0.099006  0.094625  0  1.026534  0
H  H19  1  0.84733909  0.44235911  0.03834711  1  0  0.084384  0  0.966299  0  0  0.09637  0  1.026241  0  0  0.098701  0  1.026031  0  0  0.099031  0.094663  0  1.026542  0
C  C20  1  0.20832747  0.83583709  0.34203635  1  0  0.71107  0  3.859595  0  0  0.659581  0  4.155631  0  0  0.695098  0  4.143877  0  0  0.24272  0.635357  0  4.162581  0
C  C21  1  0.70832045  0.66416032  0.65796263  1  0  0.711098  0  3.859794  0  0  0.659602  0  4.155866  0  0  0.69512  0  4.144113  0  0  0.242722  0.635377  0  4.162812  0
C  C22  1  0.79167615  0.16416364  0.65796129  1  0  0.710857  0  3.860175  0  0  0.659544  0  4.155918  0  0  0.695059  0  4.144169  0  0  0.242716  0.63532  0  4.162867  0
C  C23  1  0.29166655  0.33583495  0.34203825  1  0  0.71125  0  3.859433  0  0  0.659636  0  4.155669  0  0  0.695154  0  4.143913  0  0  0.242742  0.635411  0  4.16262  0
C  C24  1  0.34104019  0.85956649  0.25839244  1  0  -0.042234  0  3.689276  0  0  -0.029299  0  3.922521  0  0  -0.031311  0  3.939279  0  0  0.007197  -0.028224  0  3.911746  0
C  C25  1  0.84103581  0.64042567  0.74160655  1  0  -0.042346  0  3.689499  0  0  -0.029426  0  3.922765  0  0  -0.031434  0  3.939516  0  0  0.007152  -0.028352  0  3.911987  0
C  C26  1  0.65896796  0.14042769  0.74160746  1  0  -0.042183  0  3.689345  0  0  -0.029299  0  3.922535  0  0  -0.031309  0  3.939295  0  0  0.007163  -0.028226  0  3.911757  0
C  C27  1  0.15895271  0.35956851  0.25839261  1  0  -0.042293  0  3.68923  0  0  -0.029263  0  3.922476  0  0  -0.031272  0  3.939236  0  0  0.007247  -0.028188  0  3.9117  0
C  C28  1  0.26332750  0.82478441  0.15695578  1  0  -0.086658  0  3.744693  0  0  -0.108006  0  3.990308  0  0  -0.110369  0  4.011238  0  0  -0.085163  -0.1065  0  3.976603  0
C  C29  1  0.76333053  0.67521418  0.84304364  1  0  -0.08665  0  3.744693  0  0  -0.108049  0  3.99033  0  0  -0.110387  0  4.011259  0  0  -0.085138  -0.106539  0  3.976625  0
C  C30  1  0.73668065  0.17521851  0.84304308  1  0  -0.086651  0  3.744761  0  0  -0.107968  0  3.990411  0  0  -0.110329  0  4.011335  0  0  -0.08518  -0.106461  0  3.976703  0
C  C31  1  0.23666252  0.32477890  0.15695602  1  0  -0.086658  0  3.744673  0  0  -0.108058  0  3.990291  0  0  -0.110415  0  4.01122  0  0  -0.085209  -0.10655  0  3.976586  0
C  C32  1  0.53251133  0.92487712  0.28044556  1  0  -0.064945  0  3.693576  0  0  -0.053329  0  3.929686  0  0  -0.057633  0  3.94728  0  0  0.002941  -0.050521  0  3.917938  0
C  C33  1  0.03250378  0.57511893  0.71955330  1  0  -0.064831  0  3.693854  0  0  -0.053121  0  3.929842  0  0  -0.057428  0  3.947443  0  0  0.003014  -0.050313  0  3.91809  0
C  C34  1  0.46749682  0.07512253  0.71955629  1  0  -0.064872  0  3.693716  0  0  -0.05319  0  3.929781  0  0  -0.057495  0  3.947377  0  0  0.003028  -0.050376  0  3.918031  0
C  C35  1  0.96748323  0.42487851  0.28044362  1  0  -0.064925  0  3.693649  0  0  -0.053382  0  3.929823  0  0  -0.057697  0  3.947441  0  0  0.002938  -0.05057  0  3.918079  0
C  C36  1  0.37542665  0.85245938  0.07761409  1  0  -0.073785  0  3.797281  0  0  -0.088725  0  4.048882  0  0  -0.090249  0  4.070901  0  0  -0.093208  -0.087511  0  4.033876  0
C  C37  1  0.87543226  0.64753939  0.92238499  1  0  -0.073594  0  3.797259  0  0  -0.088508  0  4.048887  0  0  -0.090007  0  4.070906  0  0  -0.09309  -0.087308  0  4.033874  0
C  C38  1  0.62458602  0.14755338  0.92238770  1  0  -0.073913  0  3.797306  0  0  -0.088909  0  4.048939  0  0  -0.090423  0  4.070961  0  0  -0.093298  -0.087696  0  4.033936  0
C  C39  1  0.12456683  0.35245479  0.07761342  1  0  -0.073789  0  3.797332  0  0  -0.088762  0  4.048993  0  0  -0.090263  0  4.071019  0  0  -0.093187  -0.087554  0  4.033976  0
C  C40  1  0.64157423  0.95619157  0.20075312  1  0  -0.068596  0  3.725771  0  0  -0.092862  0  3.974611  0  0  -0.092992  0  3.993352  0  0  -0.077853  -0.092614  0  3.961874  0
C  C41  1  0.14156775  0.54380684  0.79924587  1  0  -0.068607  0  3.726042  0  0  -0.092897  0  3.974868  0  0  -0.093028  0  3.993614  0  0  -0.077819  -0.09265  0  3.96213  0
C  C42  1  0.35843391  0.04381684  0.79925438  1  0  -0.068545  0  3.725955  0  0  -0.092843  0  3.974781  0  0  -0.092976  0  3.993526  0  0  -0.077786  -0.092586  0  3.962037  0
C  C43  1  0.85842378  0.45619060  0.20074808  1  0  -0.068581  0  3.726032  0  0  -0.09283  0  3.974917  0  0  -0.09296  0  3.993669  0  0  -0.077763  -0.092583  0  3.962174  0
C  C44  1  0.63020502  0.96531496  0.38608761  1  0  0.733441  0  3.832688  0  0  0.680354  0  4.130504  0  0  0.716847  0  4.1173  0  0  0.257103  0.655157  0  4.138732  0
C  C45  1  0.13019453  0.53468453  0.61391381  1  0  0.73344  0  3.832656  0  0  0.680294  0  4.130542  0  0  0.716791  0  4.117333  0  0  0.257145  0.655098  0  4.138765  0
C  C46  1  0.36980312  0.03469671  0.61391320  1  0  0.733478  0  3.83264  0  0  0.680315  0  4.130556  0  0  0.716813  0  4.117344  0  0  0.257108  0.655097  0  4.138808  0
C  C47  1  0.86979550  0.46530638  0.38608759  1  0  0.73355  0  3.832652  0  0  0.680473  0  4.130492  0  0  0.716968  0  4.117287  0  0  0.257177  0.655262  0  4.138739  0
C  C48  1  0.56502713  0.91877871  0.09963755  1  0  -0.08577  0  3.804318  0  0  -0.099554  0  4.057278  0  0  -0.102332  0  4.079548  0  0  -0.095738  -0.097538  0  4.041802  0
C  C49  1  0.06502805  0.58121412  0.90036218  1  0  -0.085704  0  3.804416  0  0  -0.099535  0  4.057408  0  0  -0.102312  0  4.079676  0  0  -0.095821  -0.097518  0  4.041935  0
C  C50  1  0.43498555  0.08122532  0.90036675  1  0  -0.085822  0  3.804341  0  0  -0.099597  0  4.057334  0  0  -0.102373  0  4.079601  0  0  -0.095843  -0.09759  0  4.041852  0
C  C51  1  0.93497103  0.41878552  0.09963522  1  0  -0.085688  0  3.804418  0  0  -0.099574  0  4.057403  0  0  -0.102356  0  4.079666  0  0  -0.095851  -0.097539  0  4.041933  0
O  O52  1  0.07718620  0.93319566  0.38407128  1  0  -0.724782  0  2.017341  0  0  -0.664524  0  2.266305  0  0  -0.69367  0  2.255825  0  0  -0.377535  -0.643347  0  2.272972  0
O  O53  1  0.57718163  0.56679829  0.61593171  1  0  -0.724675  0  2.017424  0  0  -0.664494  0  2.266459  0  0  -0.693637  0  2.255976  0  0  -0.377536  -0.643327  0  2.273155  0
O  O54  1  0.92281892  0.06679853  0.61593159  1  0  -0.724603  0  2.017319  0  0  -0.66453  0  2.266343  0  0  -0.693675  0  2.255867  0  0  -0.377542  -0.643345  0  2.272996  0
O  O55  1  0.42280991  0.43320463  0.38406716  1  0  -0.724826  0  2.017031  0  0  -0.664563  0  2.266098  0  0  -0.693707  0  2.255615  0  0  -0.377554  -0.643394  0  2.272795  0
O  O56  1  0.22482394  0.71956907  0.36710189  1  0  -0.72085  0  2.003674  0  0  -0.664865  0  2.249734  0  0  -0.693793  0  2.240541  0  0  -0.374335  -0.644048  0  2.255701  0
O  O57  1  0.72481962  0.78042618  0.63289518  1  0  -0.720854  0  2.003776  0  0  -0.664837  0  2.249821  0  0  -0.693765  0  2.240626  0  0  -0.374331  -0.644022  0  2.25579  0
O  O58  1  0.77518874  0.28042400  0.63289331  1  0  -0.720774  0  2.004142  0  0  -0.664806  0  2.250098  0  0  -0.693732  0  2.240906  0  0  -0.374294  -0.643992  0  2.256065  0
O  O59  1  0.27517947  0.21957565  0.36710567  1  0  -0.720863  0  2.003833  0  0  -0.664831  0  2.249974  0  0  -0.693756  0  2.240779  0  0  -0.374337  -0.644018  0  2.255946  0
O  O60  1  0.64053252  0.87119926  0.43437885  1  0  -0.727872  0  2.014522  0  0  -0.668135  0  2.267652  0  0  -0.696679  0  2.257097  0  0  -0.35519  -0.64752  0  2.275006  0
O  O61  1  0.14053045  0.62880134  0.56562358  1  0  -0.727918  0  2.014437  0  0  -0.668158  0  2.267572  0  0  -0.696704  0  2.257012  0  0  -0.355276  -0.647543  0  2.274926  0
O  O62  1  0.35946204  0.12880586  0.56562643  1  0  -0.727869  0  2.014771  0  0  -0.668051  0  2.267871  0  0  -0.696594  0  2.257313  0  0  -0.355219  -0.647432  0  2.275235  0
O  O63  1  0.85945656  0.37119502  0.43437383  1  0  -0.727882  0  2.014853  0  0  -0.668102  0  2.26792  0  0  -0.696644  0  2.257364  0  0  -0.355202  -0.647481  0  2.27528  0
O  O64  1  0.70739481  0.09295245  0.41904223  1  0  -0.758818  0  2.062681  0  0  -0.698147  0  2.321437  0  0  -0.727187  0  2.310489  0  0  -0.386366  -0.677163  0  2.329024  0
O  O65  1  0.20739146  0.40704929  0.58095921  1  0  -0.758894  0  2.062691  0  0  -0.69819  0  2.321429  0  0  -0.72723  0  2.310476  0  0  -0.386393  -0.677205  0  2.329016  0
O  O66  1  0.29259673  0.90705376  0.58095884  1  0  -0.758917  0  2.062484  0  0  -0.698222  0  2.321253  0  0  -0.727269  0  2.310302  0  0  -0.38636  -0.677229  0  2.328847  0
O  O67  1  0.79259102  0.59294926  0.41904239  1  0  -0.75899  0  2.062595  0  0  -0.698298  0  2.321317  0  0  -0.727341  0  2.310365  0  0  -0.386427  -0.677305  0  2.328912  0
