# generated using pymatgen
data_CdH8C6S(NO2)2
_symmetry_space_group_name_H-M   'P 1'
_cell_length_a   4.97129913
_cell_length_b   4.97132549
_cell_length_c   16.99142238
_cell_angle_alpha   90.00044582
_cell_angle_beta   90.00004876
_cell_angle_gamma   93.57432957
_symmetry_Int_Tables_number   1
_chemical_formula_structural   CdH8C6S(NO2)2
_chemical_formula_sum   'Cd2 H16 C12 S2 N4 O8'
_cell_volume   419.10824203
_cell_formula_units_Z   2
loop_
 _symmetry_equiv_pos_site_id
 _symmetry_equiv_pos_as_xyz
  1  'x, y, z'
loop_
 _atom_site_type_symbol
 _atom_site_label
 _atom_site_symmetry_multiplicity
 _atom_site_fract_x
 _atom_site_fract_y
 _atom_site_fract_z
 _atom_site_occupancy
 _atom_site_pbe_bader_spin_density
 _atom_site_pbe_cm5_charge
 _atom_site_pbe_ddec_charge
 _atom_site_pbe_ddec_spin_density
 _atom_site_pbe_ddec_sum_bond_order
 _atom_site_pbe_magmom
Cd  Cd0  1  0.05615098  0.94384369  0.75000134  1  0  0.804762  1.007773  0  2.105957  0
Cd  Cd1  1  0.94387381  0.05614724  0.25000229  1  0  0.804801  1.007838  0  2.106309  0
H  H2  1  0.18607713  0.56897420  0.85966978  1  0  0.300294  0.299024  0  0.95931  0
H  H3  1  0.81393058  0.43105991  0.35965864  1  0  0.300155  0.29888  0  0.959096  0
H  H4  1  0.43103357  0.81394786  0.64033064  1  0  0.300274  0.298981  0  0.959383  0
H  H5  1  0.56892202  0.18603268  0.14034351  1  0  0.300222  0.299014  0  0.95915  0
H  H6  1  0.81397003  0.43107910  0.14034739  1  0  0.300207  0.29894  0  0.959215  0
H  H7  1  0.18599554  0.56892961  0.64033264  1  0  0.300294  0.299043  0  0.959207  0
H  H8  1  0.56890171  0.18599926  0.35965358  1  0  0.300204  0.298938  0  0.959182  0
H  H9  1  0.43107591  0.81400681  0.85966601  1  0  0.300321  0.299042  0  0.959198  0
H  H10  1  0.78905845  0.57997427  0.94121754  1  0  0.102142  0.116308  0  1.019695  0
H  H11  1  0.21092804  0.42001363  0.44120964  1  0  0.102143  0.116286  0  1.019704  0
H  H12  1  0.42001960  0.21096119  0.55877934  1  0  0.102169  0.116377  0  1.019763  0
H  H13  1  0.57998169  0.78904123  0.05878721  1  0  0.102185  0.116437  0  1.019649  0
H  H14  1  0.21095634  0.42004697  0.05879139  1  0  0.102163  0.116473  0  1.019817  0
H  H15  1  0.78900446  0.57995166  0.55878222  1  0  0.102096  0.116298  0  1.019664  0
H  H16  1  0.57995076  0.78902806  0.44121546  1  0  0.102194  0.116549  0  1.019854  0
H  H17  1  0.42005674  0.21100205  0.94122231  1  0  0.102168  0.116431  0  1.019739  0
C  C18  1  0.87990401  0.76466659  0.96718500  1  0  -0.101484  -0.173516  0  3.981344  0
C  C19  1  0.12008886  0.23532595  0.46717603  1  0  -0.101471  -0.173405  0  3.98179  0
C  C20  1  0.23531918  0.12013461  0.53281080  1  0  -0.101558  -0.173615  0  3.981114  0
C  C21  1  0.76466707  0.87988338  0.03282779  1  0  -0.101512  -0.173551  0  3.981232  0
C  C22  1  0.12013386  0.23536862  0.03282923  1  0  -0.101452  -0.17361  0  3.981949  0
C  C23  1  0.87985599  0.76464329  0.53281113  1  0  -0.101503  -0.173395  0  3.981846  0
C  C24  1  0.76462339  0.87983062  0.46717636  1  0  -0.101437  -0.173648  0  3.981744  0
C  C25  1  0.23536477  0.12015187  0.96718820  1  0  -0.101435  -0.173535  0  3.981403  0
C  C26  1  0.11620374  0.88383153  0.93431016  1  0  0.073474  0.259566  0  4.035449  0
C  C27  1  0.88381409  0.11614390  0.43431064  1  0  0.073471  0.2595  0  4.035467  0
C  C28  1  0.11614006  0.88378496  0.56569123  1  0  0.073663  0.259533  0  4.035239  0
C  C29  1  0.88385876  0.11618134  0.06569112  1  0  0.07344  0.259407  0  4.03585  0
S  S30  1  0.63210053  0.36787602  0.74999253  1  0  0.540259  1.395237  0  6.396553  0
S  S31  1  0.36793126  0.63212898  0.25000287  1  0  0.540482  1.395588  0  6.395862  0
N  N32  1  0.22770903  0.77234916  0.86526168  1  0  -0.606709  -0.603839  0  3.397637  0
N  N33  1  0.77231078  0.22762655  0.36525650  1  0  -0.60651  -0.603635  0  3.397059  0
N  N34  1  0.22765093  0.77232445  0.63473949  1  0  -0.606705  -0.603792  0  3.397783  0
N  N35  1  0.77234661  0.22765167  0.13474372  1  0  -0.60658  -0.60378  0  3.397142  0
O  O36  1  0.75102535  0.24894202  0.82156499  1  0  -0.366959  -0.661289  0  2.171618  0
O  O37  1  0.24900813  0.75108695  0.32157616  1  0  -0.367087  -0.661465  0  2.171456  0
O  O38  1  0.75102468  0.24896241  0.67841924  1  0  -0.367079  -0.661437  0  2.171755  0
O  O39  1  0.24900671  0.75106702  0.17842569  1  0  -0.36696  -0.661311  0  2.171459  0
O  O40  1  0.33086013  0.32213631  0.74999712  1  0  -0.37426  -0.679593  0  2.341395  0
O  O41  1  0.66918116  0.67786057  0.25000181  1  0  -0.374379  -0.679835  0  2.341548  0
O  O42  1  0.67786258  0.66912334  0.74999761  1  0  -0.374234  -0.67959  0  2.341364  0
O  O43  1  0.32213932  0.33088588  0.25000426  1  0  -0.374268  -0.679621  0  2.341392  0
