# generated using pymatgen
data_CdH22C22N4O5
_symmetry_space_group_name_H-M   'P 1'
_cell_length_a   9.27846822
_cell_length_b   10.42358072
_cell_length_c   11.40567684
_cell_angle_alpha   91.05764350
_cell_angle_beta   103.40430322
_cell_angle_gamma   102.74930074
_symmetry_Int_Tables_number   1
_chemical_formula_structural   CdH22C22N4O5
_chemical_formula_sum   'Cd2 H44 C44 N8 O10'
_cell_volume   1043.77109280
_cell_formula_units_Z   2
loop_
 _symmetry_equiv_pos_site_id
 _symmetry_equiv_pos_as_xyz
  1  'x, y, z'
loop_
 _atom_site_type_symbol
 _atom_site_label
 _atom_site_symmetry_multiplicity
 _atom_site_fract_x
 _atom_site_fract_y
 _atom_site_fract_z
 _atom_site_occupancy
 _atom_site_hle17_bader_spin_density
 _atom_site_hle17_ddec_charge
 _atom_site_hle17_ddec_spin_density
 _atom_site_hle17_ddec_sum_bond_order
 _atom_site_hle17_magmom
 _atom_site_hse06_10hf_bader_spin_density
 _atom_site_hse06_10hf_ddec_charge
 _atom_site_hse06_10hf_ddec_spin_density
 _atom_site_hse06_10hf_ddec_sum_bond_order
 _atom_site_hse06_10hf_magmom
 _atom_site_hse06_bader_spin_density
 _atom_site_hse06_ddec_charge
 _atom_site_hse06_ddec_spin_density
 _atom_site_hse06_ddec_sum_bond_order
 _atom_site_hse06_magmom
 _atom_site_pbe_bader_spin_density
 _atom_site_pbe_cm5_charge
 _atom_site_pbe_ddec_charge
 _atom_site_pbe_ddec_spin_density
 _atom_site_pbe_ddec_sum_bond_order
 _atom_site_pbe_magmom
Cd  Cd0  1  0.67222279  0.81726883  0.97609017  1  0  1.132028  0  1.653726  0  0  0.93784  0  2.093153  0  0  0.995525  0  2.0412  0  0  0.768104  0.897215  0  2.128437  0
Cd  Cd1  1  0.32777738  0.18273005  0.02390917  1  0  1.132027  0  1.653725  0  0  0.937828  0  2.093171  0  0  0.995512  0  2.041223  0  0  0.768111  0.897203  0  2.128455  0
H  H2  1  0.52170591  0.56193034  0.14336484  1  0  0.123525  0  0.963862  0  0  0.128513  0  1.03009  0  0  0.132755  0  1.025222  0  0  0.1376  0.125217  0  1.033871  0
H  H3  1  0.47829371  0.43807053  0.85663617  1  0  0.123519  0  0.963856  0  0  0.128501  0  1.030087  0  0  0.132745  0  1.025217  0  0  0.137603  0.125223  0  1.033846  0
H  H4  1  0.55851429  0.97257852  0.19762124  1  0  0.11664  0  0.964109  0  0  0.126212  0  1.024031  0  0  0.128937  0  1.022699  0  0  0.118705  0.124135  0  1.025186  0
H  H5  1  0.44148728  0.02742136  0.80238012  1  0  0.11666  0  0.964154  0  0  0.126232  0  1.02407  0  0  0.128957  0  1.022737  0  0  0.118693  0.124154  0  1.025225  0
H  H6  1  0.38985876  0.83938720  0.34895141  1  0  0.105556  0  0.982149  0  0  0.113878  0  1.046502  0  0  0.116445  0  1.045879  0  0  0.116828  0.112104  0  1.047149  0
H  H7  1  0.61014557  0.16061466  0.65105223  1  0  0.105592  0  0.982048  0  0  0.113918  0  1.046395  0  0  0.116483  0  1.045767  0  0  0.116852  0.112142  0  1.047043  0
H  H8  1  0.26997447  0.43670548  0.15760477  1  0  0.118672  0  0.96877  0  0  0.125738  0  1.03415  0  0  0.128903  0  1.032555  0  0  0.109428  0.123335  0  1.035616  0
H  H9  1  0.73003594  0.56329435  0.84239733  1  0  0.118643  0  0.968802  0  0  0.125747  0  1.034134  0  0  0.12891  0  1.03254  0  0  0.109448  0.123344  0  1.035601  0
H  H10  1  0.11847479  0.26384653  0.25211131  1  0  0.093656  0  0.964182  0  0  0.102457  0  1.029877  0  0  0.104841  0  1.029327  0  0  0.102318  0.10074  0  1.030446  0
H  H11  1  0.88152699  0.73615428  0.74788571  1  0  0.093686  0  0.964177  0  0  0.102467  0  1.02989  0  0  0.104852  0  1.029338  0  0  0.10231  0.100749  0  1.030461  0
H  H12  1  0.26740110  0.50269552  0.58990949  1  0  0.091644  0  0.967203  0  0  0.104797  0  1.026245  0  0  0.107361  0  1.025024  0  0  0.102031  0.102901  0  1.027452  0
H  H13  1  0.73259437  0.49730238  0.41008810  1  0  0.091703  0  0.967095  0  0  0.104834  0  1.026165  0  0  0.107405  0  1.024926  0  0  0.102038  0.102937  0  1.027374  0
H  H14  1  0.42344100  0.67402645  0.49587557  1  0  0.097127  0  0.97236  0  0  0.109545  0  1.033828  0  0  0.111913  0  1.033255  0  0  0.102151  0.107817  0  1.03439  0
H  H15  1  0.57656087  0.32597048  0.50412670  1  0  0.097111  0  0.972374  0  0  0.109532  0  1.03385  0  0  0.111898  0  1.033278  0  0  0.102163  0.107811  0  1.034384  0
H  H16  1  0.90554276  0.20201178  0.31864713  1  0  0.097219  0  0.967197  0  0  0.108618  0  1.029937  0  0  0.111339  0  1.028318  0  0  0.103925  0.106538  0  1.031322  0
H  H17  1  0.09444828  0.79799013  0.68135320  1  0  0.097183  0  0.967146  0  0  0.108565  0  1.029907  0  0  0.111286  0  1.028286  0  0  0.10388  0.106489  0  1.031279  0
H  H18  1  0.74056636  0.04456271  0.41238244  1  0  0.095956  0  0.97341  0  0  0.106736  0  1.037834  0  0  0.109085  0  1.037627  0  0  0.101966  0.105332  0  1.037366  0
H  H19  1  0.25943108  0.95543422  0.58761814  1  0  0.095969  0  0.973447  0  0  0.106748  0  1.037871  0  0  0.109091  0  1.037685  0  0  0.101972  0.105344  0  1.037403  0
H  H20  1  0.07580957  0.13780744  0.75463972  1  0  0.112166  0  0.961483  0  0  0.121782  0  1.025578  0  0  0.124423  0  1.024333  0  0  0.108617  0.119802  0  1.02666  0
H  H21  1  0.92419282  0.86219144  0.24536091  1  0  0.112142  0  0.96153  0  0  0.121754  0  1.025634  0  0  0.124395  0  1.024389  0  0  0.108617  0.119775  0  1.026717  0
H  H22  1  0.23514956  0.30229001  0.66157786  1  0  0.091982  0  0.974966  0  0  0.09993  0  1.041839  0  0  0.102259  0  1.041424  0  0  0.101103  0.098379  0  1.041878  0
H  H23  1  0.76484919  0.69771182  0.33842038  1  0  0.091938  0  0.975  0  0  0.099926  0  1.041823  0  0  0.10225  0  1.041422  0  0  0.101089  0.098376  0  1.041862  0
H  H24  1  0.91305546  0.02779952  0.83816475  1  0  0.111886  0  0.97359  0  0  0.118051  0  1.03873  0  0  0.121001  0  1.035354  0  0  0.139105  0.11586  0  1.041155  0
H  H25  1  0.08694443  0.97219835  0.16183366  1  0  0.111806  0  0.97364  0  0  0.11798  0  1.038785  0  0  0.12093  0  1.035414  0  0  0.139075  0.115792  0  1.041202  0
H  H26  1  0.48394828  0.78591539  0.67318787  1  0  0.105513  0  0.955384  0  0  0.117143  0  1.011657  0  0  0.119385  0  1.010808  0  0  0.119414  0.115542  0  1.012252  0
H  H27  1  0.51605496  0.21407853  0.32681112  1  0  0.105565  0  0.955369  0  0  0.117198  0  1.011634  0  0  0.119439  0  1.010787  0  0  0.119436  0.115596  0  1.01223  0
H  H28  1  0.60993728  0.90779653  0.49332620  1  0  0.098747  0  1.011497  0  0  0.103751  0  1.085347  0  0  0.106389  0  1.084521  0  0  0.112162  0.101852  0  1.085881  0
H  H29  1  0.39006097  0.09219938  0.50667189  1  0  0.098737  0  1.011518  0  0  0.103737  0  1.085363  0  0  0.106375  0  1.084539  0  0  0.112171  0.101844  0  1.085891  0
H  H30  1  0.07803189  0.57644341  0.05483701  1  0  0.135471  0  0.96091  0  0  0.156132  0  1.019587  0  0  0.158157  0  1.019677  0  0  0.098947  0.154588  0  1.019447  0
H  H31  1  0.92196965  0.42356043  0.94516526  1  0  0.135428  0  0.960965  0  0  0.156084  0  1.019641  0  0  0.158108  0  1.019735  0  0  0.098917  0.154542  0  1.019498  0
H  H32  1  0.10081395  0.67372623  0.18849952  1  0  0.13433  0  0.94197  0  0  0.153559  0  1.002809  0  0  0.155832  0  1.003054  0  0  0.096806  0.151793  0  1.002843  0
H  H33  1  0.89918676  0.32627861  0.81150349  1  0  0.134407  0  0.941939  0  0  0.153597  0  1.002811  0  0  0.155868  0  1.003062  0  0  0.09684  0.15183  0  1.002844  0
H  H34  1  0.19628896  0.74007460  0.07597527  1  0  0.134329  0  0.955099  0  0  0.152537  0  1.015585  0  0  0.154625  0  1.015922  0  0  0.094628  0.150963  0  1.015342  0
H  H35  1  0.80370898  0.25993223  0.92402812  1  0  0.134335  0  0.955031  0  0  0.152507  0  1.015551  0  0  0.154613  0  1.015867  0  0  0.09459  0.150932  0  1.015309  0
H  H36  1  0.11639138  0.65862674  0.83818550  1  0  0.123071  0  0.965799  0  0  0.142764  0  1.026422  0  0  0.144595  0  1.026621  0  0  0.088919  0.141406  0  1.026469  0
H  H37  1  0.88360967  0.34137118  0.16181750  1  0  0.12303  0  0.965835  0  0  0.142735  0  1.026447  0  0  0.144567  0  1.026645  0  0  0.088906  0.141376  0  1.026496  0
H  H38  1  0.19157658  0.51359984  0.85715946  1  0  0.157212  0  0.966977  0  0  0.171334  0  1.029788  0  0  0.175523  0  1.027102  0  0  0.095584  0.168439  0  1.031544  0
H  H39  1  0.80843300  0.48640497  0.14284605  1  0  0.157231  0  0.966912  0  0  0.171326  0  1.029757  0  0  0.175501  0  1.027084  0  0  0.095587  0.168431  0  1.031514  0
H  H40  1  0.17287330  0.58951820  0.71794685  1  0  0.125268  0  0.95726  0  0  0.143441  0  1.020854  0  0  0.146006  0  1.020018  0  0  0.092559  0.141753  0  1.021507  0
H  H41  1  0.82712441  0.41047972  0.28205378  1  0  0.125242  0  0.957294  0  0  0.143418  0  1.020882  0  0  0.145982  0  1.020046  0  0  0.092548  0.14173  0  1.021536  0
H  H42  1  0.73003668  0.08760600  0.09312044  1  0  0.423198  0  0.885598  0  0  0.390156  0  0.953019  0  0  0.402162  0  0.935641  0  0  0.27718  0.381551  0  0.965484  0
H  H43  1  0.26996433  0.91239190  0.90687993  1  0  0.423164  0  0.885642  0  0  0.390124  0  0.953062  0  0  0.40213  0  0.935685  0  0  0.277175  0.381514  0  0.96553  0
H  H44  1  0.87651423  0.07267136  0.04707683  1  0  0.416118  0  0.896035  0  0  0.381782  0  0.966293  0  0  0.393509  0  0.94933  0  0  0.277432  0.373501  0  0.978232  0
H  H45  1  0.12348317  0.92732555  0.95292112  1  0  0.416098  0  0.896051  0  0  0.381785  0  0.966282  0  0  0.393515  0  0.949314  0  0  0.277423  0.373505  0  0.978219  0
C  C46  1  0.51050006  0.65731829  0.17637923  1  0  0.171786  0  3.593602  0  0  0.113586  0  3.8573  0  0  0.127847  0  3.867605  0  0  0.147806  0.104549  0  3.850017  0
C  C47  1  0.48949902  0.34268061  0.82362166  1  0  0.171853  0  3.593491  0  0  0.113659  0  3.85719  0  0  0.127918  0  3.867497  0  0  0.147825  0.104605  0  3.849902  0
C  C48  1  0.52924664  0.86800534  0.21053063  1  0  0.007388  0  3.735322  0  0  -0.026567  0  4.000574  0  0  -0.024024  0  4.020305  0  0  -0.001728  -0.027939  0  3.987113  0
C  C49  1  0.47075490  0.13199451  0.78946897  1  0  0.00729  0  3.735419  0  0  -0.026666  0  4.000665  0  0  -0.024125  0  4.020393  0  0  -0.001731  -0.028039  0  3.987203  0
C  C50  1  0.44752174  0.80427617  0.28707124  1  0  -0.086261  0  3.709646  0  0  -0.124894  0  3.973593  0  0  -0.123949  0  3.992199  0  0  -0.008297  -0.125617  0  3.961341  0
C  C51  1  0.55248095  0.19572373  0.71293208  1  0  -0.086192  0  3.709549  0  0  -0.124822  0  3.973482  0  0  -0.123871  0  3.992084  0  0  -0.008298  -0.125546  0  3.961231  0
C  C52  1  0.35377970  0.56765665  0.32045097  1  0  0.17567  0  3.783391  0  0  0.167777  0  4.029676  0  0  0.172632  0  4.05233  0  0  0.093647  0.164696  0  4.014378  0
C  C53  1  0.64622710  0.43234616  0.67955138  1  0  0.175718  0  3.783291  0  0  0.167845  0  4.029571  0  0  0.172699  0  4.052224  0  0  0.093664  0.164761  0  4.014273  0
C  C54  1  0.26950282  0.45119508  0.25239191  1  0  -0.133085  0  3.717338  0  0  -0.153158  0  3.969657  0  0  -0.156653  0  3.990467  0  0  -0.085592  -0.15071  0  3.955798  0
C  C55  1  0.73050041  0.54880280  0.74760886  1  0  -0.133049  0  3.717253  0  0  -0.153164  0  3.969565  0  0  -0.156659  0  3.990378  0  0  -0.085602  -0.150715  0  3.955706  0
C  C56  1  0.18284100  0.35441367  0.30622928  1  0  -0.091073  0  3.737  0  0  -0.108969  0  3.984073  0  0  -0.11159  0  4.006829  0  0  -0.085533  -0.106876  0  3.968863  0
C  C57  1  0.81716191  0.64558716  0.69376971  1  0  -0.091127  0  3.736993  0  0  -0.10901  0  3.984079  0  0  -0.111631  0  4.006831  0  0  -0.085535  -0.106918  0  3.96887  0
C  C58  1  0.17822769  0.37052886  0.42783524  1  0  0.043789  0  3.791666  0  0  0.057683  0  4.023349  0  0  0.057207  0  4.048288  0  0  -0.008992  0.05772  0  4.00707  0
C  C59  1  0.82176943  0.62947102  0.57216443  1  0  0.043695  0  3.791771  0  0  0.057657  0  4.023469  0  0  0.057189  0  4.048411  0  0  -0.008994  0.057692  0  4.007191  0
C  C60  1  0.26685151  0.48733760  0.49502610  1  0  -0.097334  0  3.744716  0  0  -0.115842  0  3.988812  0  0  -0.117957  0  4.009843  0  0  -0.08957  -0.11504  0  3.975789  0
C  C61  1  0.73314645  0.51266130  0.50497372  1  0  -0.097395  0  3.744805  0  0  -0.115895  0  3.988884  0  0  -0.118007  0  4.009916  0  0  -0.089578  -0.115094  0  3.975863  0
C  C62  1  0.35369093  0.58509242  0.44221566  1  0  -0.147048  0  3.764502  0  0  -0.167554  0  4.015732  0  0  -0.170551  0  4.036601  0  0  -0.095036  -0.165572  0  4.00226  0
C  C63  1  0.64631367  0.41490645  0.55778538  1  0  -0.147015  0  3.764517  0  0  -0.167526  0  4.015734  0  0  -0.170523  0  4.036604  0  0  -0.095041  -0.16554  0  4.002264  0
C  C64  1  0.08212768  0.26901441  0.48309566  1  0  0.039716  0  3.791818  0  0  0.052808  0  4.025648  0  0  0.052273  0  4.049783  0  0  -0.012148  0.053054  0  4.009677  0
C  C65  1  0.91786552  0.73098743  0.51690068  1  0  0.040009  0  3.791283  0  0  0.052909  0  4.025366  0  0  0.052344  0  4.049548  0  0  -0.012074  0.053156  0  4.009397  0
C  C66  1  0.94311818  0.19128173  0.41499041  1  0  -0.091047  0  3.733688  0  0  -0.110763  0  3.97971  0  0  -0.112338  0  4.000428  0  0  -0.086854  -0.109637  0  3.965776  0
C  C67  1  0.05687670  0.80872212  0.58500889  1  0  -0.091172  0  3.73352  0  0  -0.110822  0  3.979631  0  0  -0.112387  0  4.000357  0  0  -0.086854  -0.109691  0  3.965692  0
C  C68  1  0.84827413  0.10105695  0.46852883  1  0  -0.147684  0  3.754481  0  0  -0.166711  0  4.004583  0  0  -0.170557  0  4.025824  0  0  -0.09506  -0.163873  0  3.989537  0
C  C69  1  0.15172107  0.89894396  0.53147225  1  0  -0.147633  0  3.754619  0  0  -0.166665  0  4.004696  0  0  -0.170514  0  4.025931  0  0  -0.095062  -0.163827  0  3.989649  0
C  C70  1  0.89245286  0.08369568  0.59202597  1  0  0.171706  0  3.78221  0  0  0.163705  0  4.02811  0  0  0.169523  0  4.050651  0  0  0.090516  0.159905  0  4.013077  0
C  C71  1  0.10754289  0.91630322  0.40797344  1  0  0.17168  0  3.782143  0  0  0.163718  0  4.028004  0  0  0.169537  0  4.050541  0  0  0.090565  0.159917  0  4.012973  0
C  C72  1  0.03407978  0.15527809  0.66031522  1  0  -0.139944  0  3.732654  0  0  -0.159727  0  3.983879  0  0  -0.163893  0  4.005394  0  0  -0.088526  -0.157072  0  3.969677  0
C  C73  1  0.96591926  0.84472475  0.33968483  1  0  -0.139934  0  3.732772  0  0  -0.159727  0  3.983988  0  0  -0.163892  0  4.005499  0  0  -0.088533  -0.157074  0  3.969789  0
C  C74  1  0.12578359  0.24757312  0.60632849  1  0  -0.089373  0  3.728639  0  0  -0.108241  0  3.97639  0  0  -0.109735  0  3.997555  0  0  -0.08748  -0.107061  0  3.962017  0
C  C75  1  0.87421184  0.75242872  0.39366913  1  0  -0.089385  0  3.728548  0  0  -0.108223  0  3.976349  0  0  -0.10971  0  3.99752  0  0  -0.087507  -0.107043  0  3.961977  0
C  C76  1  0.81343936  0.97868064  0.76912789  1  0  0.17934  0  3.607195  0  0  0.119089  0  3.875262  0  0  0.133868  0  3.886522  0  0  0.148361  0.109142  0  3.867907  0
C  C77  1  0.18656025  0.02131625  0.23086958  1  0  0.179475  0  3.60704  0  0  0.119217  0  3.875109  0  0  0.133995  0  3.886368  0  0  0.148395  0.109269  0  3.867756  0
C  C78  1  0.59145011  0.85575801  0.67994396  1  0  0.007801  0  3.76361  0  0  -0.025992  0  4.031864  0  0  -0.023201  0  4.051605  0  0  -0.000325  -0.028151  0  4.018665  0
C  C79  1  0.40855035  0.14423789  0.32005453  1  0  0.00771  0  3.763762  0  0  -0.026097  0  4.032022  0  0  -0.023307  0  4.051764  0  0  -0.000332  -0.028258  0  4.018825  0
C  C80  1  0.65158128  0.91624160  0.59053064  1  0  -0.081704  0  3.689038  0  0  -0.121302  0  3.953679  0  0  -0.120127  0  3.971652  0  0  -0.007646  -0.121792  0  3.941198  0
C  C81  1  0.34841944  0.08375528  0.40946703  1  0  -0.081642  0  3.68915  0  0  -0.121224  0  3.953787  0  0  -0.120048  0  3.971761  0  0  -0.007683  -0.121719  0  3.941298  0
C  C82  1  0.95375465  0.73097132  0.03657232  1  0  0.72258  0  3.873412  0  0  0.678047  0  4.171821  0  0  0.711365  0  4.16562  0  0  0.197517  0.655697  0  4.174568  0
C  C83  1  0.04624361  0.26902860  0.96343019  1  0  0.722403  0  3.87381  0  0  0.677864  0  4.172202  0  0  0.711181  0  4.166013  0  0  0.197447  0.655515  0  4.174947  0
C  C84  1  0.09150687  0.67770434  0.09084538  1  0  -0.458844  0  3.65956  0  0  -0.535968  0  3.896129  0  0  -0.543503  0  3.899544  0  0  -0.251869  -0.530318  0  3.893011  0
C  C85  1  0.90849386  0.32230052  0.90915938  1  0  -0.458841  0  3.659563  0  0  -0.535904  0  3.896144  0  0  -0.543454  0  3.89954  0  0  -0.251865  -0.53026  0  3.893031  0
C  C86  1  0.36039333  0.69292001  0.85996742  1  0  0.733272  0  3.861584  0  0  0.693687  0  4.153478  0  0  0.727031  0  4.147434  0  0  0.194019  0.671173  0  4.156267  0
C  C87  1  0.63960731  0.30708476  0.14002943  1  0  0.733318  0  3.861693  0  0  0.693603  0  4.153742  0  0  0.726946  0  4.147694  0  0  0.193928  0.67109  0  4.156531  0
C  C88  1  0.20033869  0.60895167  0.81665328  1  0  -0.465039  0  3.657702  0  0  -0.538197  0  3.88868  0  0  -0.545972  0  3.890085  0  0  -0.255668  -0.532779  0  3.887475  0
C  C89  1  0.79966341  0.39105018  0.18334820  1  0  -0.465062  0  3.657708  0  0  -0.538157  0  3.888723  0  0  -0.545919  0  3.890142  0  0  -0.255651  -0.532739  0  3.887518  0
N  N90  1  0.56829308  0.77555212  0.14302828  1  0  -0.373646  0  3.229606  0  0  -0.29765  0  3.506042  0  0  -0.319285  0  3.52449  0  0  -0.349236  -0.282741  0  3.492635  0
N  N91  1  0.43170431  0.22444875  0.85697056  1  0  -0.3737  0  3.229523  0  0  -0.297695  0  3.505955  0  0  -0.319331  0  3.524401  0  0  -0.349299  -0.282786  0  3.492555  0
N  N92  1  0.43626308  0.67062924  0.26501927  1  0  -0.096546  0  3.606088  0  0  -0.006006  0  3.817562  0  0  -0.020791  0  3.843178  0  0  -0.228575  0.003795  0  3.800074  0
N  N93  1  0.56373959  0.32937063  0.73498229  1  0  -0.096639  0  3.605929  0  0  -0.006116  0  3.817416  0  0  -0.020902  0  3.843031  0  0  -0.228587  0.003687  0  3.799931  0
N  N94  1  0.79319744  0.99504607  0.64800093  1  0  -0.091773  0  3.58426  0  0  -0.001214  0  3.793346  0  0  -0.016366  0  3.818728  0  0  -0.224129  0.008714  0  3.776282  0
N  N95  1  0.20680218  0.00495083  0.35199742  1  0  -0.091776  0  3.58419  0  0  -0.001227  0  3.793263  0  0  -0.016379  0  3.818646  0  0  -0.224114  0.008701  0  3.7762  0
N  N96  1  0.69322995  0.89545235  0.79024273  1  0  -0.382002  0  3.26149  0  0  -0.307125  0  3.544187  0  0  -0.328616  0  3.561593  0  0  -0.349614  -0.292696  0  3.532749  0
N  N97  1  0.30677215  0.10454551  0.20975521  1  0  -0.382074  0  3.261475  0  0  -0.307189  0  3.544184  0  0  -0.328677  0  3.561586  0  0  -0.349631  -0.29276  0  3.532749  0
O  O98  1  0.82197922  0.66206570  0.03728473  1  0  -0.648744  0  1.94884  0  0  -0.578278  0  2.180928  0  0  -0.606865  0  2.171324  0  0  -0.329089  -0.558464  0  2.186405  0
O  O99  1  0.17801799  0.33793428  0.96272285  1  0  -0.648608  0  1.949036  0  0  -0.57819  0  2.181169  0  0  -0.606777  0  2.171564  0  0  -0.329052  -0.558373  0  2.186643  0
O  O100  1  0.97174239  0.84507099  0.99574116  1  0  -0.668561  0  1.991199  0  0  -0.594255  0  2.214166  0  0  -0.6223  0  2.205263  0  0  -0.324503  -0.57467  0  2.219408  0
O  O101  1  0.02825084  0.15492690  0.00425427  1  0  -0.668626  0  1.991368  0  0  -0.594183  0  2.214173  0  0  -0.622215  0  2.205272  0  0  -0.324444  -0.574596  0  2.219416  0
O  O102  1  0.38269169  0.81677147  0.88636315  1  0  -0.686728  0  1.963791  0  0  -0.620698  0  2.191754  0  0  -0.64872  0  2.181292  0  0  -0.334072  -0.600782  0  2.198255  0
O  O103  1  0.61730986  0.18323238  0.11364000  1  0  -0.686822  0  1.963824  0  0  -0.620712  0  2.191817  0  0  -0.648736  0  2.181356  0  0  -0.33406  -0.60079  0  2.198305  0
O  O104  1  0.47111522  0.63686281  0.86886262  1  0  -0.655325  0  1.939022  0  0  -0.592875  0  2.174269  0  0  -0.621647  0  2.165539  0  0  -0.332768  -0.572785  0  2.179814  0
O  O105  1  0.52888645  0.36314187  0.13112741  1  0  -0.655203  0  1.939052  0  0  -0.592774  0  2.174393  0  0  -0.621552  0  2.165681  0  0  -0.332703  -0.572679  0  2.179935  0
O  O106  1  0.79222812  0.02297319  0.08144058  1  0  -0.862544  0  1.844756  0  0  -0.801066  0  2.051728  0  0  -0.824046  0  2.015598  0  0  -0.605056  -0.784616  0  2.076764  0
O  O107  1  0.20777317  0.97702570  0.91855984  1  0  -0.86253  0  1.844793  0  0  -0.801052  0  2.051729  0  0  -0.824033  0  2.015602  0  0  -0.605048  -0.784598  0  2.076778  0
