# generated using pymatgen
data_SnH3C7NO5
_symmetry_space_group_name_H-M   'P 1'
_cell_length_a   5.41199867
_cell_length_b   8.10774622
_cell_length_c   17.87835381
_cell_angle_alpha   90.00056052
_cell_angle_beta   89.99933914
_cell_angle_gamma   90.00014561
_symmetry_Int_Tables_number   1
_chemical_formula_structural   SnH3C7NO5
_chemical_formula_sum   'Sn4 H12 C28 N4 O20'
_cell_volume   784.48628504
_cell_formula_units_Z   4
loop_
 _symmetry_equiv_pos_site_id
 _symmetry_equiv_pos_as_xyz
  1  'x, y, z'
loop_
 _atom_site_type_symbol
 _atom_site_label
 _atom_site_symmetry_multiplicity
 _atom_site_fract_x
 _atom_site_fract_y
 _atom_site_fract_z
 _atom_site_occupancy
 _atom_site_hle17_bader_spin_density
 _atom_site_hle17_ddec_charge
 _atom_site_hle17_ddec_spin_density
 _atom_site_hle17_ddec_sum_bond_order
 _atom_site_hle17_magmom
 _atom_site_hse06_10hf_bader_spin_density
 _atom_site_hse06_10hf_ddec_charge
 _atom_site_hse06_10hf_ddec_spin_density
 _atom_site_hse06_10hf_ddec_sum_bond_order
 _atom_site_hse06_10hf_magmom
 _atom_site_hse06_bader_spin_density
 _atom_site_hse06_ddec_charge
 _atom_site_hse06_ddec_spin_density
 _atom_site_hse06_ddec_sum_bond_order
 _atom_site_hse06_magmom
 _atom_site_pbe_bader_spin_density
 _atom_site_pbe_cm5_charge
 _atom_site_pbe_ddec_charge
 _atom_site_pbe_ddec_spin_density
 _atom_site_pbe_ddec_sum_bond_order
 _atom_site_pbe_magmom
Sn  Sn0  1  0.83105075  0.92299048  0.32132113  1  0  1.084374  0  1.768997  0  0  0.887383  0  2.207158  0  0  0.932665  0  2.180235  0  0  0.538396  0.854705  0  2.226349  0
Sn  Sn1  1  0.33108592  0.07701774  0.67868684  1  0  1.08446  0  1.768874  0  0  0.887445  0  2.207019  0  0  0.932742  0  2.180102  0  0  0.538405  0.854754  0  2.226241  0
Sn  Sn2  1  0.33103396  0.42297788  0.17867570  1  0  1.084294  0  1.769293  0  0  0.887298  0  2.207533  0  0  0.932556  0  2.180677  0  0  0.53828  0.854616  0  2.226724  0
Sn  Sn3  1  0.83106760  0.57703403  0.82131381  1  0  1.08445  0  1.768924  0  0  0.887425  0  2.207132  0  0  0.932721  0  2.180214  0  0  0.538361  0.854719  0  2.226382  0
H  H4  1  0.15828569  0.27336217  0.46779007  1  0  0.145175  0  0.929868  0  0  0.151532  0  0.992544  0  0  0.156152  0  0.990399  0  0  0.118802  0.148237  0  0.994239  0
H  H5  1  0.65829288  0.72664332  0.53221231  1  0  0.145303  0  0.929798  0  0  0.151633  0  0.992487  0  0  0.156256  0  0.99034  0  0  0.118895  0.148334  0  0.994183  0
H  H6  1  0.65828462  0.77336988  0.03220554  1  0  0.14523  0  0.929718  0  0  0.151616  0  0.992335  0  0  0.156235  0  0.990189  0  0  0.118868  0.148322  0  0.994029  0
H  H7  1  0.15829210  0.22664178  0.96778790  1  0  0.145276  0  0.929805  0  0  0.15162  0  0.992479  0  0  0.156242  0  0.990333  0  0  0.118878  0.148322  0  0.994177  0
H  H8  1  0.36976575  0.68457723  0.42197547  1  0  0.388688  0  0.898305  0  0  0.358223  0  0.976624  0  0  0.370679  0  0.963107  0  0  0.30272  0.34944  0  0.986059  0
H  H9  1  0.86977301  0.31542734  0.57802734  1  0  0.388654  0  0.898305  0  0  0.358189  0  0.976621  0  0  0.370644  0  0.963104  0  0  0.302681  0.349407  0  0.986054  0
H  H10  1  0.86977915  0.18457311  0.07802519  1  0  0.388604  0  0.898373  0  0  0.358173  0  0.976638  0  0  0.370629  0  0.963119  0  0  0.302709  0.349396  0  0.98607  0
H  H11  1  0.36977624  0.81542777  0.92197203  1  0  0.38858  0  0.898488  0  0  0.358153  0  0.976734  0  0  0.370606  0  0.963219  0  0  0.302693  0.349379  0  0.986158  0
H  H12  1  0.70503308  0.57164030  0.35211589  1  0  0.12851  0  0.976797  0  0  0.134627  0  1.047516  0  0  0.13923  0  1.044262  0  0  0.114088  0.131296  0  1.050109  0
H  H13  1  0.20503036  0.42836033  0.64788746  1  0  0.128554  0  0.976872  0  0  0.13464  0  1.047585  0  0  0.139232  0  1.044354  0  0  0.1141  0.131314  0  1.050185  0
H  H14  1  0.20503047  0.07162458  0.14788984  1  0  0.128437  0  0.976998  0  0  0.134583  0  1.047672  0  0  0.13918  0  1.044439  0  0  0.114052  0.131255  0  1.050267  0
H  H15  1  0.70504221  0.92836248  0.85211239  1  0  0.128508  0  0.97694  0  0  0.134608  0  1.047635  0  0  0.139215  0  1.044362  0  0  0.114062  0.131271  0  1.050262  0
C  C16  1  0.41597749  0.44560697  0.41624223  1  0  0.414046  0  3.782467  0  0  0.402052  0  4.046563  0  0  0.420915  0  4.055379  0  0  0.118214  0.38932  0  4.04031  0
C  C17  1  0.91598554  0.55439767  0.58376547  1  0  0.413979  0  3.782213  0  0  0.401926  0  4.04635  0  0  0.42079  0  4.055165  0  0  0.118189  0.389206  0  4.040104  0
C  C18  1  0.91597617  0.94560344  0.08376170  1  0  0.413968  0  3.782356  0  0  0.401925  0  4.046494  0  0  0.420784  0  4.055315  0  0  0.118183  0.389201  0  4.04025  0
C  C19  1  0.41598501  0.05439874  0.91623592  1  0  0.414011  0  3.782201  0  0  0.401959  0  4.046358  0  0  0.420819  0  4.055185  0  0  0.11816  0.389237  0  4.040108  0
C  C20  1  0.34447079  0.97953215  0.41952853  1  0  0.626723  0  3.888127  0  0  0.570091  0  4.187147  0  0  0.603936  0  4.177385  0  0  0.225333  0.547129  0  4.193072  0
C  C21  1  0.84448592  0.02046375  0.58047604  1  0  0.626715  0  3.88824  0  0  0.570024  0  4.187371  0  0  0.603858  0  4.17761  0  0  0.225294  0.547061  0  4.193293  0
C  C22  1  0.84444898  0.47953301  0.08046964  1  0  0.626835  0  3.888098  0  0  0.570176  0  4.187252  0  0  0.604026  0  4.17748  0  0  0.225424  0.547214  0  4.193184  0
C  C23  1  0.34447077  0.52046659  0.91952487  1  0  0.626682  0  3.888114  0  0  0.569999  0  4.187281  0  0  0.603839  0  4.177525  0  0  0.225359  0.54704  0  4.193198  0
C  C24  1  0.44536913  0.14996740  0.40708463  1  0  0.147016  0  3.743146  0  0  0.141841  0  3.990488  0  0  0.147975  0  4.005902  0  0  0.124725  0.137606  0  3.980239  0
C  C25  1  0.94537994  0.85003112  0.59292241  1  0  0.147034  0  3.74331  0  0  0.141791  0  3.990739  0  0  0.147947  0  4.006132  0  0  0.124685  0.13755  0  3.980491  0
C  C26  1  0.94535821  0.64996653  0.09291340  1  0  0.147148  0  3.743096  0  0  0.141859  0  3.990674  0  0  0.147985  0  4.006108  0  0  0.124723  0.137624  0  3.980432  0
C  C27  1  0.44537238  0.35003693  0.90708078  1  0  0.147263  0  3.74315  0  0  0.141992  0  3.990637  0  0  0.14813  0  4.006057  0  0  0.124772  0.137756  0  3.980385  0
C  C28  1  0.32426390  0.28816137  0.43412902  1  0  -0.200554  0  3.597666  0  0  -0.233041  0  3.852736  0  0  -0.241338  0  3.867168  0  0  -0.076692  -0.227721  0  3.843351  0
C  C29  1  0.82426781  0.71184191  0.56587898  1  0  -0.200636  0  3.597778  0  0  -0.233018  0  3.852794  0  0  -0.241324  0  3.867227  0  0  -0.076754  -0.227722  0  3.843457  0
C  C30  1  0.82425407  0.78815992  0.06587171  1  0  -0.200683  0  3.597575  0  0  -0.233065  0  3.852632  0  0  -0.241361  0  3.867077  0  0  -0.076736  -0.227746  0  3.843235  0
C  C31  1  0.32426840  0.21184089  0.93412174  1  0  -0.200643  0  3.597762  0  0  -0.233015  0  3.852801  0  0  -0.241316  0  3.867236  0  0  -0.076713  -0.227716  0  3.843456  0
C  C32  1  0.62792416  0.45471892  0.37032380  1  0  -0.218576  0  3.643278  0  0  -0.248823  0  3.891788  0  0  -0.255777  0  3.906634  0  0  -0.079007  -0.244312  0  3.882061  0
C  C33  1  0.12793007  0.54528037  0.62968148  1  0  -0.218721  0  3.643375  0  0  -0.248827  0  3.89189  0  0  -0.25581  0  3.906743  0  0  -0.079053  -0.244278  0  3.882036  0
C  C34  1  0.12792074  0.95471191  0.12967887  1  0  -0.218666  0  3.643457  0  0  -0.24883  0  3.891952  0  0  -0.255804  0  3.906795  0  0  -0.079025  -0.244303  0  3.882157  0
C  C35  1  0.62793534  0.04527997  0.87031858  1  0  -0.218723  0  3.643299  0  0  -0.248833  0  3.891825  0  0  -0.255823  0  3.906661  0  0  -0.079015  -0.2443  0  3.881998  0
C  C36  1  0.94692775  0.30894537  0.29075522  1  0  0.603135  0  3.920604  0  0  0.54856  0  4.213544  0  0  0.582352  0  4.207446  0  0  0.226054  0.525719  0  4.216745  0
C  C37  1  0.44694216  0.69105192  0.70924622  1  0  0.60308  0  3.920553  0  0  0.548639  0  4.213356  0  0  0.582418  0  4.207253  0  0  0.226089  0.525794  0  4.216554  0
C  C38  1  0.44692112  0.80894129  0.20923736  1  0  0.60293  0  3.920879  0  0  0.548509  0  4.213649  0  0  0.582282  0  4.207563  0  0  0.226168  0.525665  0  4.216845  0
C  C39  1  0.94694880  0.19105477  0.79075737  1  0  0.60323  0  3.920015  0  0  0.548706  0  4.212961  0  0  0.582462  0  4.206869  0  0  0.226203  0.525864  0  4.216157  0
C  C40  1  0.73533754  0.31019891  0.34510677  1  0  0.113061  0  3.786117  0  0  0.112463  0  4.031378  0  0  0.115782  0  4.050205  0  0  0.11707  0.110157  0  4.018722  0
C  C41  1  0.23534306  0.68980300  0.65489928  1  0  0.113249  0  3.785954  0  0  0.112428  0  4.031422  0  0  0.115797  0  4.05018  0  0  0.117076  0.110147  0  4.018744  0
C  C42  1  0.23532756  0.81018504  0.15489322  1  0  0.113322  0  3.786115  0  0  0.112572  0  4.031595  0  0  0.115926  0  4.050384  0  0  0.117114  0.110281  0  4.018926  0
C  C43  1  0.73534380  0.18981193  0.84510276  1  0  0.113156  0  3.786075  0  0  0.112377  0  4.031563  0  0  0.115783  0  4.050279  0  0  0.117069  0.110094  0  4.018881  0
N  N44  1  0.64844657  0.16010678  0.36408036  1  0  -0.343152  0  3.293631  0  0  -0.268101  0  3.52825  0  0  -0.285983  0  3.548625  0  0  -0.295411  -0.255858  0  3.514396  0
N  N45  1  0.14846274  0.83989130  0.63592374  1  0  -0.343205  0  3.293291  0  0  -0.268042  0  3.527903  0  0  -0.285952  0  3.548267  0  0  -0.295378  -0.255804  0  3.514043  0
N  N46  1  0.14842627  0.66010114  0.13591868  1  0  -0.343279  0  3.29377  0  0  -0.268339  0  3.528792  0  0  -0.286191  0  3.54907  0  0  -0.295455  -0.256111  0  3.514953  0
N  N47  1  0.64845901  0.33989693  0.86407870  1  0  -0.343342  0  3.293629  0  0  -0.268258  0  3.528443  0  0  -0.28614  0  3.548721  0  0  -0.29546  -0.256018  0  3.514579  0
O  O48  1  0.48479251  0.85842068  0.39756236  1  0  -0.633374  0  2.073266  0  0  -0.549539  0  2.306864  0  0  -0.57842  0  2.29855  0  0  -0.280819  -0.529219  0  2.312002  0
O  O49  1  0.98480358  0.14157666  0.60244064  1  0  -0.633389  0  2.073281  0  0  -0.549498  0  2.306852  0  0  -0.578373  0  2.298538  0  0  -0.280843  -0.529206  0  2.312047  0
O  O50  1  0.98476243  0.35842324  0.10243984  1  0  -0.633362  0  2.073475  0  0  -0.549502  0  2.307087  0  0  -0.578383  0  2.298774  0  0  -0.280835  -0.529167  0  2.312171  0
O  O51  1  0.48478747  0.64157903  0.89756036  1  0  -0.633308  0  2.073328  0  0  -0.549435  0  2.306944  0  0  -0.578312  0  2.29863  0  0  -0.280854  -0.529131  0  2.312097  0
O  O52  1  0.13138075  0.96301719  0.44502559  1  0  -0.586625  0  1.980064  0  0  -0.533667  0  2.21661  0  0  -0.557796  0  2.210723  0  0  -0.286533  -0.51681  0  2.220197  0
O  O53  1  0.63139514  0.03697593  0.55497856  1  0  -0.586621  0  1.979962  0  0  -0.533644  0  2.216545  0  0  -0.557788  0  2.210692  0  0  -0.286481  -0.516786  0  2.220137  0
O  O54  1  0.63135813  0.46302491  0.05497096  1  0  -0.586694  0  1.980015  0  0  -0.533678  0  2.216524  0  0  -0.55782  0  2.210672  0  0  -0.28657  -0.516826  0  2.220116  0
O  O55  1  0.13136972  0.53698301  0.94502313  1  0  -0.586652  0  1.979812  0  0  -0.533665  0  2.216374  0  0  -0.557818  0  2.210539  0  0  -0.286552  -0.516807  0  2.219962  0
O  O56  1  0.29638003  0.57723559  0.44163320  1  0  -0.490455  0  2.11538  0  0  -0.44083  0  2.326945  0  0  -0.46179  0  2.317436  0  0  -0.327537  -0.42598  0  2.332988  0
O  O57  1  0.79639594  0.42277011  0.55836985  1  0  -0.490411  0  2.115309  0  0  -0.440783  0  2.326901  0  0  -0.461745  0  2.317393  0  0  -0.327471  -0.4259  0  2.332873  0
O  O58  1  0.79639423  0.07723105  0.05836722  1  0  -0.490322  0  2.11537  0  0  -0.440715  0  2.326967  0  0  -0.461673  0  2.317459  0  0  -0.327505  -0.425873  0  2.332997  0
O  O59  1  0.29639653  0.92276848  0.94162968  1  0  -0.490351  0  2.115367  0  0  -0.440755  0  2.326973  0  0  -0.461717  0  2.317468  0  0  -0.32747  -0.42589  0  2.332959  0
O  O60  1  0.03386469  0.44798558  0.26983173  1  0  -0.572615  0  2.039297  0  0  -0.498921  0  2.279946  0  0  -0.526797  0  2.275478  0  0  -0.268039  -0.479519  0  2.282486  0
O  O61  1  0.53387974  0.55201850  0.73017051  1  0  -0.572721  0  2.039414  0  0  -0.499074  0  2.280051  0  0  -0.52695  0  2.275584  0  0  -0.268116  -0.479678  0  2.282597  0
O  O62  1  0.53387039  0.94795924  0.23016228  1  0  -0.572523  0  2.039623  0  0  -0.498929  0  2.280306  0  0  -0.52677  0  2.275815  0  0  -0.268204  -0.479538  0  2.282856  0
O  O63  1  0.03389437  0.05203003  0.76983660  1  0  -0.572717  0  2.039324  0  0  -0.499072  0  2.280047  0  0  -0.526933  0  2.275575  0  0  -0.26821  -0.479675  0  2.282592  0
O  O64  1  0.02232496  0.16958635  0.26768103  1  0  -0.60531  0  2.049287  0  0  -0.533752  0  2.29163  0  0  -0.56168  0  2.287229  0  0  -0.27126  -0.514107  0  2.294055  0
O  O65  1  0.52236330  0.83041524  0.73231453  1  0  -0.605343  0  2.04945  0  0  -0.5338  0  2.291727  0  0  -0.561738  0  2.287334  0  0  -0.271286  -0.514149  0  2.29415  0
O  O66  1  0.52232503  0.66956130  0.23230616  1  0  -0.60531  0  2.049208  0  0  -0.533754  0  2.291439  0  0  -0.561699  0  2.28706  0  0  -0.271296  -0.5141  0  2.293857  0
O  O67  1  0.02236138  0.33042673  0.76768492  1  0  -0.6054  0  2.048939  0  0  -0.533828  0  2.291261  0  0  -0.561769  0  2.286881  0  0  -0.271315  -0.514181  0  2.293687  0
