# generated using pymatgen
data_CdH12C13(N2O)3
_symmetry_space_group_name_H-M   'P 1'
_cell_length_a   7.30671621
_cell_length_b   13.15207376
_cell_length_c   14.60800000
_cell_angle_alpha   90.00000000
_cell_angle_beta   90.00000000
_cell_angle_gamma   91.26553585
_symmetry_Int_Tables_number   1
_chemical_formula_structural   CdH12C13(N2O)3
_chemical_formula_sum   'Cd4 H48 C52 N24 O12'
_cell_volume   1403.46403568
_cell_formula_units_Z   4
loop_
 _symmetry_equiv_pos_site_id
 _symmetry_equiv_pos_as_xyz
  1  'x, y, z'
loop_
 _atom_site_type_symbol
 _atom_site_label
 _atom_site_symmetry_multiplicity
 _atom_site_fract_x
 _atom_site_fract_y
 _atom_site_fract_z
 _atom_site_occupancy
 _atom_site_hle17_bader_spin_density
 _atom_site_hle17_ddec_charge
 _atom_site_hle17_ddec_spin_density
 _atom_site_hle17_ddec_sum_bond_order
 _atom_site_hle17_magmom
 _atom_site_hse06_10hf_bader_spin_density
 _atom_site_hse06_10hf_ddec_charge
 _atom_site_hse06_10hf_ddec_spin_density
 _atom_site_hse06_10hf_ddec_sum_bond_order
 _atom_site_hse06_10hf_magmom
 _atom_site_hse06_bader_spin_density
 _atom_site_hse06_ddec_charge
 _atom_site_hse06_ddec_spin_density
 _atom_site_hse06_ddec_sum_bond_order
 _atom_site_hse06_magmom
 _atom_site_pbe_bader_charge
 _atom_site_pbe_bader_spin_density
 _atom_site_pbe_cm5_charge
 _atom_site_pbe_ddec_charge
 _atom_site_pbe_ddec_spin_density
 _atom_site_pbe_ddec_sum_bond_order
 _atom_site_pbe_magmom
Cd  Cd0  1  0.24578024  0.69130070  0.44957421  1  0  1.031042  0  1.733886  0  0  0.812001  0  2.189188  0  0  0.871262  0  2.14146  0  1.201659  0  0.773882  0.770129  0  2.221654  0
Cd  Cd1  1  0.25421933  0.80870094  0.94957626  1  0  1.031052  0  1.733861  0  0  0.812014  0  2.189128  0  0  0.871276  0  2.141401  0  1.201624  0  0.773867  0.770139  0  2.221596  0
Cd  Cd2  1  0.75421559  0.30869735  0.55042374  1  0  1.031131  0  1.733833  0  0  0.812067  0  2.189139  0  0  0.871331  0  2.141411  0  1.201703  0  0.773881  0.770195  0  2.221606  0
Cd  Cd3  1  0.74577939  0.19130091  0.05042579  1  0  1.031082  0  1.733824  0  0  0.812014  0  2.189096  0  0  0.871274  0  2.141372  0  1.201763  0  0.77385  0.770139  0  2.221561  0
H  H4  1  0.03115851  0.80112006  0.63749452  1  0  0.079112  0  0.934711  0  0  0.090913  0  0.995345  0  0  0.093364  0  0.991907  0  0.101108  0  0.121471  0.088994  0  0.998015  0
H  H5  1  0.46884671  0.69888614  0.13749247  1  0  0.079185  0  0.934714  0  0  0.090952  0  0.995388  0  0  0.093399  0  0.991954  0  0.101085  0  0.1215  0.089035  0  0.998056  0
H  H6  1  0.96884577  0.19888408  0.36250616  1  0  0.079163  0  0.93471  0  0  0.090925  0  0.99539  0  0  0.093373  0  0.991954  0  0.101053  0  0.121483  0.089007  0  0.998058  0
H  H7  1  0.53115329  0.30111343  0.86250411  1  0  0.079215  0  0.934719  0  0  0.090986  0  0.995392  0  0  0.093433  0  0.991958  0  0.101105  0  0.121514  0.089067  0  0.998059  0
H  H8  1  0.93168111  0.74418967  0.79590635  1  0  0.129289  0  0.951193  0  0  0.137987  0  1.008531  0  0  0.142197  0  1.006965  0  0.129771  0  0.113631  0.134967  0  1.009817  0
H  H9  1  0.56832728  0.75581425  0.29590498  1  0  0.129237  0  0.951245  0  0  0.137968  0  1.008529  0  0  0.142179  0  1.006963  0  0.129821  0  0.113629  0.134948  0  1.009814  0
H  H10  1  0.06832454  0.25581446  0.20409433  1  0  0.129254  0  0.95123  0  0  0.137984  0  1.008516  0  0  0.142193  0  1.006952  0  0.129838  0  0.11364  0.134964  0  1.009801  0
H  H11  1  0.43167667  0.24418152  0.70409296  1  0  0.129289  0  0.951261  0  0  0.138024  0  1.008537  0  0  0.142236  0  1.006969  0  0.129889  0  0.113636  0.135003  0  1.009824  0
H  H12  1  0.96656165  0.55808921  0.83421687  1  0  0.08113  0  0.918606  0  0  0.093689  0  0.975235  0  0  0.095555  0  0.973777  0  0.104372  0  0.121439  0.092256  0  0.976357  0
H  H13  1  0.53343430  0.94191167  0.33422029  1  0  0.081093  0  0.918547  0  0  0.093646  0  0.975203  0  0  0.095514  0  0.973742  0  0.104299  0  0.121448  0.092211  0  0.976326  0
H  H14  1  0.03344263  0.44191493  0.16578382  1  0  0.081135  0  0.918535  0  0  0.093689  0  0.975175  0  0  0.095557  0  0.973715  0  0.104346  0  0.121438  0.092255  0  0.976297  0
H  H15  1  0.46656546  0.05808182  0.66578176  1  0  0.081124  0  0.918461  0  0  0.093676  0  0.975104  0  0  0.095546  0  0.973641  0  0.104299  0  0.121372  0.092242  0  0.976225  0
H  H16  1  0.46914166  0.30785621  0.36600288  1  0  0.112214  0  0.985284  0  0  0.116331  0  1.056503  0  0  0.120055  0  1.054725  0  0.126214  0  0.107539  0.113629  0  1.05792  0
H  H17  1  0.03085862  0.19215042  0.86600288  1  0  0.112163  0  0.985361  0  0  0.116291  0  1.056541  0  0  0.120013  0  1.054766  0  0.126196  0  0.107504  0.113588  0  1.057958  0
H  H18  1  0.53085418  0.69214184  0.63399712  1  0  0.112209  0  0.985313  0  0  0.116333  0  1.056504  0  0  0.120055  0  1.054728  0  0.126235  0  0.107533  0.11363  0  1.057921  0
H  H19  1  0.96912502  0.80785068  0.13399986  1  0  0.112263  0  0.985292  0  0  0.116354  0  1.056558  0  0  0.120079  0  1.054782  0  0.126245  0  0.107485  0.113654  0  1.057974  0
H  H20  1  0.60767419  0.19114425  0.24855353  1  0  0.092186  0  0.952456  0  0  0.097696  0  1.020466  0  0  0.101087  0  1.017351  0  0.13663  0  0.115944  0.095261  0  1.022713  0
H  H21  1  0.89232511  0.30885934  0.74855148  1  0  0.092277  0  0.952395  0  0  0.097786  0  1.020374  0  0  0.101179  0  1.017255  0  0.136598  0  0.11595  0.095342  0  1.022646  0
H  H22  1  0.39232581  0.80885533  0.75144510  1  0  0.092267  0  0.952446  0  0  0.097755  0  1.020484  0  0  0.101145  0  1.01737  0  0.136619  0  0.115944  0.095315  0  1.022741  0
H  H23  1  0.10766391  0.69113947  0.25144921  1  0  0.092286  0  0.952329  0  0  0.097771  0  1.020363  0  0  0.101163  0  1.017243  0  0.136205  0  0.115931  0.095325  0  1.022639  0
H  H24  1  0.56772326  0.40999126  0.04626780  1  0  0.07956  0  0.950927  0  0  0.091002  0  1.010912  0  0  0.093064  0  1.009107  0  0.122348  0  0.115919  0.089414  0  1.012339  0
H  H25  1  0.93229511  0.09001005  0.54626711  1  0  0.079634  0  0.950956  0  0  0.091014  0  1.010994  0  0  0.093076  0  1.009188  0  0.122377  0  0.115955  0.089428  0  1.012423  0
H  H26  1  0.43228242  0.59001363  0.95373357  1  0  0.079625  0  0.950993  0  0  0.091013  0  1.011017  0  0  0.093076  0  1.009211  0  0.122365  0  0.115951  0.089423  0  1.012445  0
H  H27  1  0.06773503  0.90999029  0.45373220  1  0  0.079582  0  0.950909  0  0  0.090994  0  1.010927  0  0  0.09306  0  1.009114  0  0.122332  0  0.115917  0.089409  0  1.012356  0
H  H28  1  0.42295610  0.53364147  0.15527519  1  0  0.116111  0  0.953706  0  0  0.123665  0  1.019009  0  0  0.127807  0  1.016212  0  0.104663  0  0.108683  0.120588  0  1.021282  0
H  H29  1  0.07706272  0.96636245  0.65527656  1  0  0.116184  0  0.953653  0  0  0.123747  0  1.018946  0  0  0.127889  0  1.016155  0  0.104675  0  0.108689  0.120698  0  1.021187  0
H  H30  1  0.57704542  0.46636190  0.84472823  1  0  0.116091  0  0.953676  0  0  0.123603  0  1.019053  0  0  0.127745  0  1.016258  0  0.104684  0  0.108661  0.12052  0  1.02133  0
H  H31  1  0.92295927  0.03363940  0.34472686  1  0  0.116135  0  0.953612  0  0  0.123665  0  1.018944  0  0  0.127808  0  1.016148  0  0.104714  0  0.108678  0.120582  0  1.021223  0
H  H32  1  0.65880390  0.97671695  0.52971454  1  0  0.139645  0  0.973498  0  0  0.156446  0  1.039249  0  0  0.158818  0  1.039067  0  0.112536  0  0.095386  0.154706  0  1.039458  0
H  H33  1  0.84120288  0.52328088  0.02971522  1  0  0.139601  0  0.973494  0  0  0.156423  0  1.039229  0  0  0.158786  0  1.039057  0  0.112481  0  0.095367  0.154682  0  1.03944  0
H  H34  1  0.34120559  0.02328034  0.47027656  1  0  0.139715  0  0.973452  0  0  0.156508  0  1.039217  0  0  0.158879  0  1.039036  0  0.112571  0  0.095394  0.15477  0  1.039423  0
H  H35  1  0.15879563  0.47671565  0.97027519  1  0  0.139765  0  0.973408  0  0  0.156549  0  1.03915  0  0  0.158929  0  1.038962  0  0.112672  0  0.095439  0.15481  0  1.039357  0
H  H36  1  0.78863020  0.86401902  0.54064348  1  0  0.121294  0  0.961849  0  0  0.138456  0  1.026343  0  0  0.14069  0  1.025644  0  0.049636  0  0.088064  0.136864  0  1.026836  0
H  H37  1  0.71137232  0.63597501  0.04064691  1  0  0.121312  0  0.961902  0  0  0.138498  0  1.026357  0  0  0.140734  0  1.025652  0  0.049578  0  0.088105  0.136901  0  1.026858  0
H  H38  1  0.21137363  0.13597371  0.45934488  1  0  0.12137  0  0.961941  0  0  0.138556  0  1.026385  0  0  0.140805  0  1.025668  0  0.049666  0  0.088093  0.136949  0  1.026889  0
H  H39  1  0.28862479  0.36402076  0.95934283  1  0  0.121363  0  0.961941  0  0  0.138542  0  1.026384  0  0  0.140784  0  1.025675  0  0.049752  0  0.088071  0.136935  0  1.026892  0
H  H40  1  0.65096490  0.90739158  0.63397659  1  0  0.133853  0  0.953152  0  0  0.150886  0  1.01788  0  0  0.153532  0  1.016877  0  0.092124  0  0.094491  0.149032  0  1.018558  0
H  H41  1  0.84904322  0.59260549  0.13397590  1  0  0.133918  0  0.953106  0  0  0.150936  0  1.017844  0  0  0.15358  0  1.016843  0  0.092045  0  0.09451  0.149082  0  1.018522  0
H  H42  1  0.34905146  0.09260647  0.36601725  1  0  0.134029  0  0.953222  0  0  0.151054  0  1.017937  0  0  0.153699  0  1.016939  0  0.091891  0  0.094557  0.149201  0  1.018615  0
H  H43  1  0.15094419  0.40738723  0.86601588  1  0  0.134041  0  0.953258  0  0  0.15102  0  1.018007  0  0  0.153664  0  1.017009  0  0.091887  0  0.094582  0.149166  0  1.018685  0
H  H44  1  0.28809745  0.33894787  0.54846043  1  0  0.35237  0  0.903608  0  0  0.328152  0  0.97664  0  0  0.337525  0  0.967575  0  0.5332  0  0.300012  0.321497  0  0.983081  0
H  H45  1  0.21190005  0.16105800  0.04846454  1  0  0.352443  0  0.903456  0  0  0.328193  0  0.976565  0  0  0.33757  0  0.967492  0  0.533183  0  0.300015  0.321536  0  0.983008  0
H  H46  1  0.71190133  0.66105550  0.45153957  1  0  0.352388  0  0.903579  0  0  0.32816  0  0.976642  0  0  0.337532  0  0.96758  0  0.53316  0  0.300007  0.321503  0  0.983084  0
H  H47  1  0.78809177  0.83894233  0.95154094  1  0  0.352415  0  0.903547  0  0  0.328179  0  0.976616  0  0  0.337551  0  0.967554  0  0.532653  0  0.300012  0.321523  0  0.983058  0
H  H48  1  0.18162469  0.37476389  0.65140403  1  0  0.31406  0  0.910151  0  0  0.297156  0  0.97737  0  0  0.303578  0  0.972297  0  0.443254  0  0.304962  0.292661  0  0.980876  0
H  H49  1  0.31836868  0.12524122  0.15140813  1  0  0.314114  0  0.910051  0  0  0.297201  0  0.977286  0  0  0.303625  0  0.972214  0  0.443048  0  0.304959  0.292703  0  0.980801  0
H  H50  1  0.81837683  0.62523949  0.34859597  1  0  0.314082  0  0.910084  0  0  0.297182  0  0.977297  0  0  0.303606  0  0.972225  0  0.443283  0  0.304994  0.292688  0  0.9808  0
H  H51  1  0.68162177  0.87475911  0.84859871  1  0  0.314108  0  0.910113  0  0  0.297176  0  0.977381  0  0  0.3036  0  0.972308  0  0.44329  0  0.304969  0.292677  0  0.980896  0
C  C52  1  0.03728828  0.72193452  0.65884310  1  0  0.20203  0  3.671952  0  0  0.163512  0  3.930061  0  0  0.175064  0  3.942999  0  0.557621  0  0.074279  0.155962  0  3.921257  0
C  C53  1  0.46271555  0.77807092  0.15884310  1  0  0.201952  0  3.672111  0  0  0.163441  0  3.930249  0  0  0.174999  0  3.943183  0  0.557748  0  0.074253  0.155889  0  3.921452  0
C  C54  1  0.96271734  0.27806885  0.34115622  1  0  0.201994  0  3.672024  0  0  0.163494  0  3.930154  0  0  0.175052  0  3.943084  0  0.557728  0  0.074273  0.155942  0  3.921356  0
C  C55  1  0.53728305  0.22192789  0.84115622  1  0  0.201956  0  3.672016  0  0  0.163408  0  3.930191  0  0  0.174965  0  3.943125  0  0.557452  0  0.074236  0.155859  0  3.921388  0
C  C56  1  0.98277230  0.69061851  0.74593031  1  0  -0.165246  0  3.684003  0  0  -0.17817  0  3.940683  0  0  -0.18674  0  3.959006  0  -0.028709  0  -0.078811  -0.17289  0  3.92868  0
C  C57  1  0.51722927  0.80938617  0.24593031  1  0  -0.165236  0  3.684176  0  0  -0.178163  0  3.940831  0  0  -0.186734  0  3.959151  0  -0.028731  0  -0.078782  -0.172881  0  3.928826  0
C  C58  1  0.01722927  0.30938638  0.25407037  1  0  -0.165224  0  3.684196  0  0  -0.178158  0  3.940846  0  0  -0.186728  0  3.959166  0  -0.028799  0  -0.078778  -0.172875  0  3.92884  0
C  C59  1  0.48277197  0.19061036  0.75406900  1  0  -0.165277  0  3.684192  0  0  -0.178234  0  3.940887  0  0  -0.186804  0  3.959209  0  -0.028492  0  -0.078773  -0.172951  0  3.928878  0
C  C60  1  0.00514953  0.58843403  0.76717073  1  0  0.184597  0  3.682606  0  0  0.151832  0  3.947696  0  0  0.16122  0  3.961985  0  0.51195  0  0.069853  0.145771  0  3.93809  0
C  C61  1  0.49484323  0.91156837  0.26717415  1  0  0.184728  0  3.682482  0  0  0.151957  0  3.947593  0  0  0.161345  0  3.961878  0  0.512068  0  0.069845  0.145895  0  3.937985  0
C  C62  1  0.99485336  0.41156934  0.23282996  1  0  0.184703  0  3.682538  0  0  0.151939  0  3.947641  0  0  0.161325  0  3.961926  0  0.512009  0  0.069862  0.145878  0  3.938035  0
C  C63  1  0.50515112  0.08842664  0.73282927  1  0  0.184768  0  3.682423  0  0  0.15202  0  3.947542  0  0  0.161405  0  3.961825  0  0.512042  0  0.069966  0.145961  0  3.937931  0
C  C64  1  0.12144315  0.55922162  0.62475424  1  0  0.295413  0  3.775591  0  0  0.281595  0  4.027829  0  0  0.294372  0  4.041408  0  1.082574  0  0.248643  0.272823  0  4.018735  0
C  C65  1  0.37855240  0.94078230  0.12475767  1  0  0.295482  0  3.775616  0  0  0.281619  0  4.027955  0  0  0.294392  0  4.041546  0  1.082438  0  0.248743  0.272849  0  4.018847  0
C  C66  1  0.87855834  0.44078099  0.37524712  1  0  0.295544  0  3.775498  0  0  0.281713  0  4.027805  0  0  0.29449  0  4.041375  0  1.082598  0  0.24869  0.272942  0  4.018705  0
C  C67  1  0.62144206  0.05921575  0.87524644  1  0  0.295432  0  3.775532  0  0  0.281681  0  4.02772  0  0  0.294468  0  4.041266  0  1.082565  0  0.248707  0.272902  0  4.018623  0
C  C68  1  0.19922949  0.48672944  0.55863979  1  0  0.35295  0  3.841871  0  0  0.31233  0  4.118554  0  0  0.330321  0  4.130714  0  1.175581  0  0.235048  0.300505  0  4.109703  0
C  C69  1  0.30076533  0.01327795  0.05864595  1  0  0.352769  0  3.842069  0  0  0.312141  0  4.118782  0  0  0.330135  0  4.130943  0  1.17594  0  0.234928  0.300327  0  4.109917  0
C  C70  1  0.80077075  0.51327622  0.44135884  1  0  0.352969  0  3.841743  0  0  0.3123  0  4.118526  0  0  0.330298  0  4.130675  0  1.175028  0  0.235045  0.300477  0  4.109675  0
C  C71  1  0.69922238  0.98672238  0.94135953  1  0  0.353111  0  3.841495  0  0  0.312357  0  4.118352  0  0  0.330353  0  4.130501  0  1.175232  0  0.235009  0.300537  0  4.1095  0
C  C72  1  0.36418432  0.50231786  0.33794222  1  0  0.432101  0  3.910531  0  0  0.400254  0  4.194041  0  0  0.423239  0  4.202205  0  1.312425  0  0.195019  0.384908  0  4.187542  0
C  C73  1  0.13582222  0.99768682  0.83794496  1  0  0.432041  0  3.910837  0  0  0.400299  0  4.194276  0  0  0.423284  0  4.202444  0  1.31307  0  0.195105  0.384964  0  4.187759  0
C  C74  1  0.63580458  0.49767791  0.66205778  1  0  0.432241  0  3.910658  0  0  0.400339  0  4.194341  0  0  0.423325  0  4.202507  0  1.312632  0  0.195009  0.385006  0  4.187821  0
C  C75  1  0.86418341  0.00231655  0.16205915  1  0  0.43215  0  3.910695  0  0  0.40039  0  4.194118  0  0  0.423373  0  4.202287  0  1.312507  0  0.195057  0.38505  0  4.187611  0
C  C76  1  0.43930485  0.43014129  0.26975698  1  0  0.034712  0  3.732262  0  0  0.04931  0  3.963357  0  0  0.052216  0  3.981891  0  -0.069739  0  0.010051  0.047342  0  3.950813  0
C  C77  1  0.06070224  0.06986458  0.76975698  1  0  0.0351  0  3.73238  0  0  0.049528  0  3.963638  0  0  0.052441  0  3.98216  0  -0.069728  0  0.010153  0.047553  0  3.951102  0
C  C78  1  0.56069381  0.56985904  0.73024576  1  0  0.034729  0  3.732391  0  0  0.049203  0  3.963698  0  0  0.052112  0  3.982226  0  -0.070051  0  0.010018  0.047231  0  3.951149  0
C  C79  1  0.93929645  0.93013651  0.23024644  1  0  0.034726  0  3.732486  0  0  0.04923  0  3.96369  0  0  0.052137  0  3.982225  0  -0.069868  0  0.009988  0.04726  0  3.95114  0
C  C80  1  0.48823978  0.33155712  0.29531627  1  0  -0.13571  0  3.713737  0  0  -0.155991  0  3.962186  0  0  -0.162679  0  3.983275  0  0.006957  0  -0.083814  -0.151588  0  3.948096  0
C  C81  1  0.01176594  0.16844875  0.79531695  1  0  -0.13579  0  3.713768  0  0  -0.156031  0  3.962272  0  0  -0.162721  0  3.983365  0  0.006934  0  -0.083795  -0.151625  0  3.948177  0
C  C82  1  0.51175606  0.66844093  0.70468237  1  0  -0.135809  0  3.713628  0  0  -0.156039  0  3.962103  0  0  -0.162727  0  3.983192  0  0.007092  0  -0.083842  -0.151638  0  3.948016  0
C  C83  1  0.98822868  0.83155310  0.20468510  1  0  -0.135825  0  3.713805  0  0  -0.156098  0  3.962261  0  0  -0.162789  0  3.983353  0  0.007192  0  -0.083767  -0.151698  0  3.948174  0
C  C84  1  0.56280884  0.26730062  0.23093853  1  0  0.106924  0  3.714146  0  0  0.078688  0  3.960403  0  0  0.085715  0  3.978595  0  0.400902  0  0.034022  0.073614  0  3.948918  0
C  C85  1  0.93719596  0.23270372  0.73093579  1  0  0.106772  0  3.714279  0  0  0.078563  0  3.96049  0  0  0.085591  0  3.978678  0  0.40084  0  0.033939  0.073486  0  3.949001  0
C  C86  1  0.43719264  0.73270199  0.76906216  1  0  0.106918  0  3.714218  0  0  0.07872  0  3.960431  0  0  0.085747  0  3.978619  0  0.400799  0  0.034037  0.07366  0  3.948918  0
C  C87  1  0.06279990  0.76729509  0.26906421  1  0  0.106874  0  3.714164  0  0  0.078701  0  3.960363  0  0  0.085728  0  3.978555  0  0.401116  0  0.034058  0.073635  0  3.948852  0
C  C88  1  0.54007038  0.39008688  0.11742881  1  0  0.122667  0  3.72099  0  0  0.093492  0  3.966563  0  0  0.100565  0  3.98607  0  0.435835  0  0.043178  0.088932  0  3.953179  0
C  C89  1  0.95994121  0.10991595  0.61742744  1  0  0.12282  0  3.720989  0  0  0.093704  0  3.966511  0  0  0.100779  0  3.986011  0  0.436021  0  0.043221  0.089137  0  3.953139  0
C  C90  1  0.45993251  0.60991649  0.88257325  1  0  0.122615  0  3.721077  0  0  0.093518  0  3.966599  0  0  0.100589  0  3.986108  0  0.435781  0  0.04316  0.088959  0  3.953214  0
C  C91  1  0.04007388  0.89008439  0.38257256  1  0  0.122732  0  3.72088  0  0  0.093586  0  3.966439  0  0  0.100659  0  3.985944  0  0.435652  0  0.043221  0.089021  0  3.953059  0
C  C92  1  0.46425086  0.45876125  0.17817566  1  0  -0.133397  0  3.687342  0  0  -0.153428  0  3.934478  0  0  -0.159817  0  3.953469  0  0.0243  0  -0.081266  -0.149317  0  3.921933  0
C  C93  1  0.03576717  0.04124462  0.67817703  1  0  -0.133811  0  3.687629  0  0  -0.153831  0  3.934833  0  0  -0.160222  0  3.953818  0  0.024182  0  -0.081392  -0.149737  0  3.922276  0
C  C94  1  0.53574923  0.54124061  0.82182571  1  0  -0.133289  0  3.687497  0  0  -0.153248  0  3.93463  0  0  -0.159637  0  3.953622  0  0.024182  0  -0.081188  -0.149129  0  3.922089  0
C  C95  1  0.96424937  0.95875799  0.32182571  1  0  -0.133385  0  3.687372  0  0  -0.153373  0  3.934549  0  0  -0.159763  0  3.953541  0  0.024207  0  -0.081238  -0.149256  0  3.922009  0
C  C96  1  0.49743285  0.83855599  0.52367196  1  0  0.726285  0  3.870114  0  0  0.688996  0  4.156679  0  0  0.722203  0  4.150723  0  1.534051  0  0.191819  0.666479  0  4.159771  0
C  C97  1  0.00256265  0.66144641  0.02367196  1  0  0.726352  0  3.87007  0  0  0.689043  0  4.156651  0  0  0.72225  0  4.150696  0  1.534009  0  0.191812  0.666527  0  4.159744  0
C  C98  1  0.50256171  0.16144434  0.47632462  1  0  0.726397  0  3.870256  0  0  0.68904  0  4.156905  0  0  0.722246  0  4.150946  0  1.534006  0  0.191849  0.666522  0  4.159999  0
C  C99  1  0.99743869  0.33855240  0.97632667  1  0  0.72637  0  3.870137  0  0  0.689027  0  4.15675  0  0  0.722233  0  4.150798  0  1.533994  0  0.191824  0.66651  0  4.159842  0
C  C100  1  0.65999908  0.89978408  0.55923124  1  0  -0.461788  0  3.664373  0  0  -0.536804  0  3.895268  0  0  -0.544698  0  3.89899  0  -0.177953  0  -0.253765  -0.531179  0  3.892495  0
C  C101  1  0.84000493  0.60021299  0.05923193  1  0  -0.461835  0  3.664421  0  0  -0.536871  0  3.895312  0  0  -0.544755  0  3.899039  0  -0.177752  0  -0.253801  -0.531245  0  3.89255  0
C  C102  1  0.34000767  0.10021321  0.44076123  1  0  -0.462119  0  3.664674  0  0  -0.537127  0  3.895507  0  0  -0.545031  0  3.899219  0  -0.177832  0  -0.253829  -0.531486  0  3.89275  0
C  C103  1  0.15999215  0.39978201  0.94076054  1  0  -0.46217  0  3.664699  0  0  -0.537122  0  3.89556  0  0  -0.545032  0  3.899274  0  -0.17794  0  -0.253881  -0.531486  0  3.892811  0
N  N104  1  0.10488702  0.65674791  0.59808666  1  0  -0.391607  0  3.200787  0  0  -0.322502  0  3.464363  0  0  -0.342731  0  3.479394  0  -1.244116  0  -0.315884  -0.308891  0  3.454106  0
N  N105  1  0.39510719  0.84325677  0.09808872  1  0  -0.391653  0  3.20078  0  0  -0.322524  0  3.464341  0  0  -0.342754  0  3.479373  0  -1.243996  0  -0.315966  -0.308911  0  3.454077  0
N  N106  1  0.89511309  0.34325471  0.40191334  1  0  -0.391703  0  3.200805  0  0  -0.322592  0  3.464385  0  0  -0.342821  0  3.479412  0  -1.244052  0  -0.315942  -0.308979  0  3.454125  0
N  N107  1  0.60488593  0.15674204  0.90191334  1  0  -0.391754  0  3.200803  0  0  -0.322579  0  3.464271  0  0  -0.342811  0  3.479297  0  -1.24394  0  -0.315962  -0.308962  0  3.454008  0
N  N108  1  0.07567401  0.52237814  0.70758352  1  0  -0.366236  0  3.024048  0  0  -0.330275  0  3.291507  0  0  -0.342947  0  3.30311  0  -1.204502  0  -0.308805  -0.321976  0  3.283847  0
N  N109  1  0.42431741  0.97762502  0.20758762  1  0  -0.366377  0  3.02424  0  0  -0.330404  0  3.291749  0  0  -0.343079  0  3.303357  0  -1.20479  0  -0.308873  -0.322104  0  3.284089  0
N  N110  1  0.92432344  0.47762599  0.29241648  1  0  -0.366461  0  3.024076  0  0  -0.330484  0  3.291532  0  0  -0.343167  0  3.303163  0  -1.204588  0  -0.308887  -0.322185  0  3.283874  0
N  N111  1  0.57567836  0.02237151  0.79241648  1  0  -0.366431  0  3.024103  0  0  -0.330449  0  3.291471  0  0  -0.343144  0  3.303119  0  -1.204732  0  -0.308921  -0.322146  0  3.283812  0
N  N112  1  0.20940413  0.38879780  0.58448042  1  0  -0.6405  0  3.144463  0  0  -0.604356  0  3.390984  0  0  -0.625025  0  3.387263  0  -1.264863  0  -0.567087  -0.589678  0  3.392929  0
N  N113  1  0.29059328  0.11120579  0.08448248  1  0  -0.640557  0  3.144404  0  0  -0.604422  0  3.39097  0  0  -0.62508  0  3.387214  0  -1.264783  0  -0.567093  -0.589748  0  3.392916  0
N  N114  1  0.79059456  0.61120329  0.41552232  1  0  -0.640559  0  3.144469  0  0  -0.604389  0  3.391001  0  0  -0.625056  0  3.387266  0  -1.2649  0  -0.567146  -0.589715  0  3.392946  0
N  N115  1  0.70939987  0.88879378  0.91552300  1  0  -0.640659  0  3.144289  0  0  -0.604451  0  3.390835  0  0  -0.62512  0  3.387104  0  -1.264449  0  -0.567125  -0.589775  0  3.392783  0
N  N116  1  0.24958669  0.52341321  0.47862746  1  0  -0.320246  0  3.359514  0  0  -0.249793  0  3.648677  0  0  -0.270543  0  3.670755  0  -0.826157  0  -0.264735  -0.235662  0  3.633208  0
N  N117  1  0.25041032  0.97659299  0.97862883  1  0  -0.320016  0  3.35948  0  0  -0.249535  0  3.648615  0  0  -0.270287  0  3.670699  0  -0.825945  0  -0.264602  -0.235407  0  3.633143  0
N  N118  1  0.75041063  0.47658788  0.52137664  1  0  -0.320189  0  3.359447  0  0  -0.249684  0  3.648557  0  0  -0.27044  0  3.670643  0  -0.825665  0  -0.264643  -0.235551  0  3.633085  0
N  N119  1  0.74958287  0.02340734  0.02137596  1  0  -0.320254  0  3.359501  0  0  -0.249774  0  3.64871  0  0  -0.270528  0  3.67079  0  -0.825877  0  -0.264673  -0.235641  0  3.633239  0
N  N120  1  0.31993014  0.45727899  0.41770400  1  0  -0.336278  0  3.008832  0  0  -0.321358  0  3.301078  0  0  -0.340611  0  3.324304  0  -0.726995  0  -0.25644  -0.307971  0  3.284781  0
N  N121  1  0.18007284  0.04272688  0.91770742  1  0  -0.336335  0  3.009014  0  0  -0.321439  0  3.301214  0  0  -0.340695  0  3.324444  0  -0.727287  0  -0.256505  -0.308054  0  3.284912  0
N  N122  1  0.68007260  0.54272058  0.58229806  1  0  -0.336381  0  3.008984  0  0  -0.321433  0  3.30123  0  0  -0.340691  0  3.324462  0  -0.726869  0  -0.256496  -0.308046  0  3.284924  0
N  N123  1  0.81991764  0.95727421  0.08229942  1  0  -0.336253  0  3.009167  0  0  -0.321337  0  3.301355  0  0  -0.340593  0  3.324587  0  -0.726993  0  -0.256409  -0.307952  0  3.285059  0
N  N124  1  0.58953992  0.29624076  0.14296071  1  0  -0.342364  0  3.305185  0  0  -0.252743  0  3.566894  0  0  -0.273585  0  3.585639  0  -1.233042  0  -0.34336  -0.238452  0  3.553738  0
N  N125  1  0.91047029  0.20376206  0.64295934  1  0  -0.342428  0  3.305365  0  0  -0.252796  0  3.567033  0  0  -0.273636  0  3.585772  0  -1.233085  0  -0.343368  -0.238504  0  3.553879  0
N  N126  1  0.41046150  0.70376033  0.85703792  1  0  -0.342469  0  3.305409  0  0  -0.252903  0  3.567136  0  0  -0.273745  0  3.585881  0  -1.232928  0  -0.343394  -0.238613  0  3.553981  0
N  N127  1  0.08953932  0.79623827  0.35703929  1  0  -0.342487  0  3.305355  0  0  -0.252888  0  3.567065  0  0  -0.273729  0  3.585807  0  -1.232855  0  -0.343434  -0.238598  0  3.553913  0
O  O128  1  0.34783605  0.59591528  0.31594880  1  0  -0.617005  0  1.976875  0  0  -0.554376  0  2.220411  0  0  -0.584279  0  2.216622  0  -1.165144  0  -0.332143  -0.532986  0  2.22192  0
O  O129  1  0.15216775  0.90408940  0.81595222  1  0  -0.61702  0  1.977185  0  0  -0.554404  0  2.220666  0  0  -0.584307  0  2.216876  0  -1.16565  0  -0.332154  -0.53302  0  2.222173  0
O  O130  1  0.65214330  0.40408124  0.68404710  1  0  -0.617072  0  1.977191  0  0  -0.5544  0  2.220714  0  0  -0.584302  0  2.216924  0  -1.165011  0  -0.332071  -0.533013  0  2.222215  0
O  O131  1  0.84784195  0.09591322  0.18405052  1  0  -0.617048  0  1.977015  0  0  -0.554408  0  2.220447  0  0  -0.58431  0  2.216657  0  -1.165106  0  -0.332106  -0.533021  0  2.221953  0
O  O132  1  0.53099544  0.76124285  0.47202013  1  0  -0.668429  0  1.983623  0  0  -0.587459  0  2.224306  0  0  -0.616427  0  2.211849  0  -1.175425  0  -0.336659  -0.567136  0  2.232078  0
O  O133  1  0.96900860  0.73875498  0.97202081  1  0  -0.668435  0  1.983755  0  0  -0.587425  0  2.224416  0  0  -0.616389  0  2.211951  0  -1.175435  0  -0.336632  -0.567104  0  2.23219  0
O  O134  1  0.46900437  0.23875215  0.52797645  1  0  -0.668496  0  1.983991  0  0  -0.587504  0  2.224688  0  0  -0.616485  0  2.212255  0  -1.175359  0  -0.336696  -0.567184  0  2.232466  0
O  O135  1  0.03099277  0.26124459  0.02798056  1  0  -0.668444  0  1.983747  0  0  -0.58741  0  2.224415  0  0  -0.616383  0  2.211964  0  -1.175471  0  -0.336631  -0.567088  0  2.232188  0
O  O136  1  0.33693165  0.86349198  0.54468100  1  0  -0.660685  0  1.876597  0  0  -0.607086  0  2.101321  0  0  -0.633322  0  2.092779  0  -1.18312  0  -0.340545  -0.588565  0  2.106388  0
O  O137  1  0.16307068  0.63651042  0.04467894  1  0  -0.660803  0  1.876543  0  0  -0.6072  0  2.101283  0  0  -0.633427  0  2.092722  0  -1.183081  0  -0.340574  -0.588669  0  2.106331  0
O  O138  1  0.66307254  0.13650987  0.45532037  1  0  -0.660802  0  1.876502  0  0  -0.607139  0  2.101211  0  0  -0.63337  0  2.092662  0  -1.18313  0  -0.34059  -0.588613  0  2.106274  0
O  O139  1  0.83692782  0.36348611  0.95532243  1  0  -0.660785  0  1.876537  0  0  -0.607188  0  2.101305  0  0  -0.633416  0  2.092747  0  -1.183067  0  -0.340601  -0.588657  0  2.106357  0
