# generated using pymatgen
data_Cu2H5C3I2N3
_symmetry_space_group_name_H-M   'P 1'
_cell_length_a   7.84394952
_cell_length_b   8.08147393
_cell_length_c   8.08471379
_cell_angle_alpha   115.95417933
_cell_angle_beta   99.39216423
_cell_angle_gamma   104.12105759
_symmetry_Int_Tables_number   1
_chemical_formula_structural   Cu2H5C3I2N3
_chemical_formula_sum   'Cu4 H10 C6 I4 N6'
_cell_volume   424.92574514
_cell_formula_units_Z   2
loop_
 _symmetry_equiv_pos_site_id
 _symmetry_equiv_pos_as_xyz
  1  'x, y, z'
loop_
 _atom_site_type_symbol
 _atom_site_label
 _atom_site_symmetry_multiplicity
 _atom_site_fract_x
 _atom_site_fract_y
 _atom_site_fract_z
 _atom_site_occupancy
 _atom_site_hle17_bader_spin_density
 _atom_site_hle17_ddec_charge
 _atom_site_hle17_ddec_spin_density
 _atom_site_hle17_ddec_sum_bond_order
 _atom_site_hle17_magmom
 _atom_site_hse06_10hf_bader_spin_density
 _atom_site_hse06_10hf_ddec_charge
 _atom_site_hse06_10hf_ddec_spin_density
 _atom_site_hse06_10hf_ddec_sum_bond_order
 _atom_site_hse06_10hf_magmom
 _atom_site_hse06_bader_spin_density
 _atom_site_hse06_ddec_charge
 _atom_site_hse06_ddec_spin_density
 _atom_site_hse06_ddec_sum_bond_order
 _atom_site_hse06_magmom
 _atom_site_pbe_bader_spin_density
 _atom_site_pbe_cm5_charge
 _atom_site_pbe_ddec_charge
 _atom_site_pbe_ddec_spin_density
 _atom_site_pbe_ddec_sum_bond_order
 _atom_site_pbe_magmom
Cu  Cu0  1  0.88931431  0.97448765  0.85020846  1  0  0.211643  0  2.257185  0  0  0.132324  0  2.741827  0  0  0.147037  0  2.682757  0  0  0.24261  0.124157  0  2.780509  0
Cu  Cu1  1  0.11069285  0.02551553  0.14979071  1  0  0.211657  0  2.25732  0  0  0.132289  0  2.741955  0  0  0.146976  0  2.682887  0  0  0.242583  0.124138  0  2.780596  0
Cu  Cu2  1  0.66440593  0.00977025  0.08286307  1  0  0.214572  0  2.213411  0  0  0.133525  0  2.697611  0  0  0.148709  0  2.637717  0  0  0.232987  0.124903  0  2.737001  0
Cu  Cu3  1  0.33559210  0.99022117  0.91713073  1  0  0.21465  0  2.213341  0  0  0.133652  0  2.697525  0  0  0.148844  0  2.637627  0  0  0.233054  0.125036  0  2.736916  0
H  H4  1  0.28711319  0.67483348  0.46242296  1  0  0.116089  0  0.949304  0  0  0.127217  0  1.007941  0  0  0.129868  0  1.007304  0  0  0.114032  0.125255  0  1.008578  0
H  H5  1  0.71286706  0.32513589  0.53756205  1  0  0.116058  0  0.949064  0  0  0.127215  0  1.00769  0  0  0.129864  0  1.007054  0  0  0.114016  0.125248  0  1.008338  0
H  H6  1  0.93063164  0.48897372  0.19369393  1  0  0.124904  0  0.975562  0  0  0.13107  0  1.045832  0  0  0.134401  0  1.043307  0  0  0.110557  0.128491  0  1.047903  0
H  H7  1  0.06935755  0.51102213  0.80631155  1  0  0.12482  0  0.975206  0  0  0.131037  0  1.045481  0  0  0.134347  0  1.043014  0  0  0.110579  0.128459  0  1.04755  0
H  H8  1  0.62111808  0.65238154  0.49352340  1  0  0.109282  0  0.948612  0  0  0.126166  0  1.02157  0  0  0.128291  0  1.019268  0  0  0.101966  0.124411  0  1.023381  0
H  H9  1  0.37888898  0.34764817  0.50649113  1  0  0.109282  0  0.94858  0  0  0.126174  0  1.021525  0  0  0.128302  0  1.019226  0  0  0.101954  0.1244  0  1.023379  0
H  H10  1  0.61417883  0.48629845  0.25265266  1  0  0.115153  0  0.962757  0  0  0.132502  0  1.033236  0  0  0.134236  0  1.0321  0  0  0.096347  0.130929  0  1.034446  0
H  H11  1  0.38581622  0.51372245  0.74736104  1  0  0.115169  0  0.962596  0  0  0.132553  0  1.033087  0  0  0.134296  0  1.031951  0  0  0.096354  0.130979  0  1.034301  0
H  H12  1  0.65004074  0.73873240  0.32604691  1  0  0.12045  0  0.951802  0  0  0.137815  0  1.019596  0  0  0.139273  0  1.019406  0  0  0.093499  0.13646  0  1.020097  0
H  H13  1  0.34997188  0.26128698  0.67395901  1  0  0.120268  0  0.951923  0  0  0.137739  0  1.019637  0  0  0.139191  0  1.019454  0  0  0.093462  0.136395  0  1.020128  0
C  C14  1  0.15800525  0.69401796  0.47913153  1  0  -0.010125  0  3.706965  0  0  -0.047925  0  3.986752  0  0  -0.048716  0  4.004292  0  0  0.006299  -0.047808  0  3.97571  0
C  C15  1  0.84200965  0.30596600  0.52086661  1  0  -0.010209  0  3.707855  0  0  -0.048047  0  3.987677  0  0  -0.048834  0  4.005215  0  0  0.006319  -0.047928  0  3.976621  0
C  C16  1  0.98406984  0.60255198  0.34493152  1  0  -0.025056  0  3.634695  0  0  -0.086956  0  3.893756  0  0  -0.083149  0  3.908786  0  0  0.02537  -0.089746  0  3.884356  0
C  C17  1  0.01590665  0.39741008  0.65503237  1  0  -0.02494  0  3.635278  0  0  -0.086839  0  3.894361  0  0  -0.083043  0  3.90939  0  0  0.02533  -0.089624  0  3.884953  0
C  C18  1  0.67725921  0.63744483  0.37419973  1  0  -0.197081  0  3.622693  0  0  -0.314969  0  3.861536  0  0  -0.313441  0  3.868138  0  0  -0.137542  -0.315671  0  3.857705  0
C  C19  1  0.32273287  0.36256726  0.62579974  1  0  -0.197017  0  3.622708  0  0  -0.315003  0  3.861489  0  0  -0.313462  0  3.86806  0  0  -0.13755  -0.315716  0  3.857642  0
I  I20  1  0.79081085  0.70757625  0.95959103  1  0  -0.353992  0  1.680372  0  0  -0.296569  0  2.117263  0  0  -0.314099  0  2.079537  0  0  -0.177297  -0.28453  0  2.141743  0
I  I21  1  0.20920454  0.29242834  0.04041996  1  0  -0.354019  0  1.680329  0  0  -0.296565  0  2.117149  0  0  -0.314145  0  2.079508  0  0  -0.177295  -0.284515  0  2.141611  0
I  I22  1  0.63366487  0.12178115  0.82552212  1  0  -0.322692  0  1.834079  0  0  -0.269584  0  2.308378  0  0  -0.284774  0  2.262516  0  0  -0.172525  -0.259203  0  2.338177  0
I  I23  1  0.36633772  0.87821614  0.17447869  1  0  -0.322699  0  1.834112  0  0  -0.269563  0  2.308371  0  0  -0.284738  0  2.262511  0  0  -0.172509  -0.259182  0  2.338157  0
N  N24  1  0.97331495  0.81793847  0.62807828  1  0  -0.070524  0  3.149558  0  0  -0.046423  0  3.437529  0  0  -0.048072  0  3.44246  0  0  -0.151416  -0.046091  0  3.43501  0
N  N25  1  0.02669757  0.18206911  0.37192491  1  0  -0.070636  0  3.149632  0  0  -0.046465  0  3.437557  0  0  -0.048125  0  3.442491  0  0  -0.151471  -0.046131  0  3.435033  0
N  N26  1  0.14626746  0.82334529  0.65087386  1  0  -0.14864  0  3.29739  0  0  -0.098743  0  3.607041  0  0  -0.104073  0  3.614062  0  0  -0.256403  -0.095755  0  3.603092  0
N  N27  1  0.85374208  0.17665343  0.34913609  1  0  -0.148615  0  3.297564  0  0  -0.098688  0  3.607132  0  0  -0.104012  0  3.614154  0  0  -0.256369  -0.095692  0  3.603172  0
N  N28  1  0.87466101  0.68284528  0.44318910  1  0  0.115995  0  3.561422  0  0  0.240488  0  3.737316  0  0  0.234476  0  3.76052  0  0  -0.128546  0.244122  0  3.721903  0
N  N29  1  0.12532759  0.31715649  0.55681023  1  0  0.116251  0  3.561833  0  0  0.240572  0  3.737919  0  0  0.234572  0  3.761123  0  0  -0.128396  0.244207  0  3.722508  0
