# generated using pymatgen
data_GdH8C9O8
_symmetry_space_group_name_H-M   'P 1'
_cell_length_a   7.76569020
_cell_length_b   8.22105313
_cell_length_c   18.99206134
_cell_angle_alpha   89.99996747
_cell_angle_beta   90.00002226
_cell_angle_gamma   105.99264565
_symmetry_Int_Tables_number   1
_chemical_formula_structural   GdH8C9O8
_chemical_formula_sum   'Gd4 H32 C36 O32'
_cell_volume   1165.56698743
_cell_formula_units_Z   4
loop_
 _symmetry_equiv_pos_site_id
 _symmetry_equiv_pos_as_xyz
  1  'x, y, z'
loop_
 _atom_site_type_symbol
 _atom_site_label
 _atom_site_symmetry_multiplicity
 _atom_site_fract_x
 _atom_site_fract_y
 _atom_site_fract_z
 _atom_site_occupancy
 _atom_site_hle17_bader_spin_density
 _atom_site_hle17_ddec_charge
 _atom_site_hle17_ddec_spin_density
 _atom_site_hle17_ddec_sum_bond_order
 _atom_site_hle17_magmom
 _atom_site_hse06_10hf_bader_spin_density
 _atom_site_hse06_10hf_ddec_charge
 _atom_site_hse06_10hf_ddec_spin_density
 _atom_site_hse06_10hf_ddec_sum_bond_order
 _atom_site_hse06_10hf_magmom
 _atom_site_hse06_bader_spin_density
 _atom_site_hse06_ddec_charge
 _atom_site_hse06_ddec_spin_density
 _atom_site_hse06_ddec_sum_bond_order
 _atom_site_hse06_magmom
 _atom_site_pbe_bader_spin_density
 _atom_site_pbe_cm5_charge
 _atom_site_pbe_ddec_charge
 _atom_site_pbe_ddec_spin_density
 _atom_site_pbe_ddec_sum_bond_order
 _atom_site_pbe_magmom
Gd  Gd0  1  0.75806236  0.25170968  0.51782218  1  0  2.222543  0  1.798042  0  0  2.137075  0  2.155702  0  0  2.187222  0  2.103842  0  0  1.468693  2.095032  0  2.202378  0
Gd  Gd1  1  0.74194056  0.74828934  0.01782373  1  0  2.222545  0  1.798018  0  0  2.137162  0  2.155564  0  0  2.187301  0  2.103707  0  0  1.468696  2.095103  0  2.202268  0
Gd  Gd2  1  0.24193990  0.74828974  0.48217613  1  0  2.222572  0  1.798004  0  0  2.137221  0  2.155514  0  0  2.187331  0  2.103704  0  0  1.468726  2.095169  0  2.202209  0
Gd  Gd3  1  0.25806133  0.25170881  0.98217774  1  0  2.222522  0  1.798066  0  0  2.137077  0  2.155693  0  0  2.187194  0  2.103879  0  0  1.468695  2.095036  0  2.202359  0
H  H4  1  0.60826197  0.43384433  0.36982978  1  0  0.102938  0  0.966634  0  0  0.109777  0  1.033712  0  0  0.113684  0  1.030691  0  0  0.108304  0.10691  0  1.036008  0
H  H5  1  0.89173050  0.56615302  0.86982765  1  0  0.102927  0  0.966569  0  0  0.109769  0  1.03366  0  0  0.113673  0  1.030642  0  0  0.108316  0.106915  0  1.035943  0
H  H6  1  0.39173054  0.56615256  0.63017274  1  0  0.102937  0  0.966571  0  0  0.109784  0  1.033651  0  0  0.113688  0  1.030633  0  0  0.108328  0.10693  0  1.035934  0
H  H7  1  0.10826238  0.43384513  0.13017066  1  0  0.10293  0  0.966642  0  0  0.109769  0  1.033722  0  0  0.113674  0  1.030702  0  0  0.108303  0.1069  0  1.036018  0
H  H8  1  0.65871538  0.58267059  0.25313153  1  0  0.098206  0  0.940455  0  0  0.108478  0  0.998525  0  0  0.11255  0  0.99565  0  0  0.103896  0.105478  0  1.000755  0
H  H9  1  0.84128731  0.41732688  0.75312995  1  0  0.098243  0  0.940402  0  0  0.108493  0  0.998496  0  0  0.112563  0  0.99562  0  0  0.103898  0.105495  0  1.000724  0
H  H10  1  0.34128485  0.41732629  0.74686993  1  0  0.098228  0  0.940402  0  0  0.108479  0  0.998497  0  0  0.112549  0  0.995622  0  0  0.103888  0.105481  0  1.000725  0
H  H11  1  0.15871420  0.58267000  0.24686835  1  0  0.098213  0  0.940459  0  0  0.108485  0  0.998528  0  0  0.112558  0  0.995652  0  0  0.103898  0.105485  0  1.000757  0
H  H12  1  0.31514380  0.14366093  0.15364736  1  0  0.100652  0  0.97614  0  0  0.10619  0  1.04373  0  0  0.109732  0  1.041699  0  0  0.106526  0.103682  0  1.045144  0
H  H13  1  0.18485742  0.85634306  0.65364828  1  0  0.100638  0  0.9761  0  0  0.106166  0  1.043699  0  0  0.109708  0  1.041668  0  0  0.106511  0.10366  0  1.045116  0
H  H14  1  0.68485736  0.85634355  0.84635200  1  0  0.100644  0  0.9761  0  0  0.106172  0  1.043695  0  0  0.109714  0  1.041663  0  0  0.106508  0.103665  0  1.045113  0
H  H15  1  0.81514246  0.14366142  0.34635266  1  0  0.100666  0  0.976111  0  0  0.106194  0  1.043716  0  0  0.109735  0  1.041685  0  0  0.106511  0.103687  0  1.04513  0
H  H16  1  0.25933419  0.99605499  0.27110844  1  0  0.102841  0  0.938615  0  0  0.113303  0  0.995836  0  0  0.117537  0  0.992699  0  0  0.10583  0.110217  0  0.998204  0
H  H17  1  0.24065846  0.00395014  0.77110958  1  0  0.102904  0  0.93858  0  0  0.113327  0  0.995838  0  0  0.117559  0  0.992701  0  0  0.105847  0.110242  0  0.998208  0
H  H18  1  0.74065796  0.00394950  0.72889040  1  0  0.102896  0  0.938594  0  0  0.11332  0  0.995849  0  0  0.117554  0  0.992712  0  0  0.105833  0.110236  0  0.99822  0
H  H19  1  0.75933369  0.99605435  0.22889136  1  0  0.102873  0  0.938634  0  0  0.113303  0  0.995882  0  0  0.117536  0  0.992745  0  0  0.105828  0.110217  0  0.99825  0
H  H20  1  0.51617703  0.24784276  0.63949510  1  0  0.437228  0  0.806842  0  0  0.422611  0  0.85644  0  0  0.43039  0  0.847907  0  0  0.333989  0.417053  0  0.862472  0
H  H21  1  0.98382504  0.75215738  0.13949669  1  0  0.437213  0  0.806795  0  0  0.422595  0  0.856401  0  0  0.430374  0  0.847872  0  0  0.334004  0.417037  0  0.862433  0
H  H22  1  0.48382431  0.75215792  0.36050320  1  0  0.437219  0  0.806772  0  0  0.4226  0  0.856384  0  0  0.430379  0  0.847851  0  0  0.334009  0.417041  0  0.862417  0
H  H23  1  0.01617796  0.24784457  0.86050477  1  0  0.43723  0  0.806835  0  0  0.422614  0  0.85643  0  0  0.430393  0  0.847898  0  0  0.334004  0.417056  0  0.862463  0
H  H24  1  0.38123334  0.16064387  0.57804153  1  0  0.440779  0  0.853375  0  0  0.408938  0  0.917549  0  0  0.420694  0  0.900244  0  0  0.303688  0.400517  0  0.929921  0
H  H25  1  0.11876893  0.83935514  0.07804199  1  0  0.440699  0  0.853484  0  0  0.408885  0  0.917616  0  0  0.420642  0  0.900308  0  0  0.303679  0.400464  0  0.929988  0
H  H26  1  0.61876727  0.83935428  0.42195783  1  0  0.440713  0  0.853466  0  0  0.408897  0  0.917599  0  0  0.420654  0  0.900292  0  0  0.303688  0.400477  0  0.92997  0
H  H27  1  0.88123461  0.16064427  0.92195843  1  0  0.44078  0  0.853379  0  0  0.408935  0  0.917555  0  0  0.420691  0  0.90025  0  0  0.303696  0.400514  0  0.929928  0
H  H28  1  0.77585742  0.62138881  0.48381371  1  0  0.451433  0  0.841453  0  0  0.420853  0  0.903175  0  0  0.431593  0  0.887546  0  0  0.310729  0.413197  0  0.914299  0
H  H29  1  0.72414063  0.37860967  0.98381476  1  0  0.451388  0  0.841521  0  0  0.420837  0  0.903199  0  0  0.431579  0  0.887568  0  0  0.310721  0.413181  0  0.914323  0
H  H30  1  0.22414135  0.37861187  0.51618512  1  0  0.451437  0  0.841447  0  0  0.420856  0  0.903169  0  0  0.431595  0  0.887542  0  0  0.310733  0.4132  0  0.914293  0
H  H31  1  0.27585739  0.62138848  0.01618618  1  0  0.451461  0  0.841413  0  0  0.420877  0  0.903138  0  0  0.431617  0  0.887509  0  0  0.310744  0.413221  0  0.914262  0
H  H32  1  0.60526153  0.55138258  0.53332334  1  0  0.447241  0  0.813104  0  0  0.423801  0  0.876463  0  0  0.432114  0  0.866536  0  0  0.328104  0.417829  0  0.882986  0
H  H33  1  0.89474103  0.44861514  0.03332289  1  0  0.447276  0  0.813113  0  0  0.423843  0  0.876454  0  0  0.432157  0  0.866487  0  0  0.328117  0.417871  0  0.882976  0
H  H34  1  0.39474073  0.44861683  0.46667707  1  0  0.447223  0  0.813198  0  0  0.423783  0  0.876545  0  0  0.432097  0  0.866575  0  0  0.328149  0.417811  0  0.883066  0
H  H35  1  0.10526178  0.55138174  0.96667647  1  0  0.44718  0  0.813201  0  0  0.423736  0  0.876563  0  0  0.432049  0  0.866631  0  0  0.328142  0.417764  0  0.883084  0
C  C36  1  0.43090454  0.20609942  0.32682130  1  0  -0.072897  0  3.752726  0  0  -0.050417  0  3.982866  0  0  -0.058057  0  4.006415  0  0  -0.01544  -0.045449  0  3.967107  0
C  C37  1  0.06909402  0.79389931  0.82682222  1  0  -0.072977  0  3.752742  0  0  -0.050507  0  3.982863  0  0  -0.058151  0  4.006414  0  0  -0.015475  -0.045537  0  3.967108  0
C  C38  1  0.56909257  0.79390000  0.67317806  1  0  -0.072889  0  3.752718  0  0  -0.050425  0  3.982834  0  0  -0.058065  0  4.006384  0  0  -0.015455  -0.045455  0  3.96708  0
C  C39  1  0.93090272  0.20609884  0.17317872  1  0  -0.072867  0  3.752722  0  0  -0.05038  0  3.982854  0  0  -0.058021  0  4.006403  0  0  -0.015415  -0.045412  0  3.967092  0
C  C40  1  0.54206757  0.37209874  0.32249000  1  0  -0.070552  0  3.735817  0  0  -0.095077  0  3.989504  0  0  -0.096031  0  4.010402  0  0  -0.080688  -0.094301  0  3.975402  0
C  C41  1  0.95792781  0.62789993  0.82248892  1  0  -0.070409  0  3.735643  0  0  -0.094941  0  3.989314  0  0  -0.095893  0  4.010213  0  0  -0.080659  -0.094175  0  3.975207  0
C  C42  1  0.45792789  0.62789942  0.67751146  1  0  -0.07042  0  3.735611  0  0  -0.094951  0  3.989287  0  0  -0.095904  0  4.010185  0  0  -0.08065  -0.094186  0  3.975183  0
C  C43  1  0.04206672  0.37209949  0.17750991  1  0  -0.070529  0  3.735725  0  0  -0.095057  0  3.989415  0  0  -0.096011  0  4.010318  0  0  -0.080681  -0.094279  0  3.97531  0
C  C44  1  0.57047481  0.45454593  0.25779402  1  0  -0.067372  0  3.73159  0  0  -0.090521  0  3.981813  0  0  -0.091879  0  4.002802  0  0  -0.080873  -0.089509  0  3.967661  0
C  C45  1  0.92952514  0.54545534  0.75779295  1  0  -0.067432  0  3.731545  0  0  -0.090562  0  3.981776  0  0  -0.091917  0  4.002762  0  0  -0.08085  -0.089549  0  3.96763  0
C  C46  1  0.42952396  0.54545475  0.74220745  1  0  -0.067434  0  3.731522  0  0  -0.090569  0  3.981757  0  0  -0.091925  0  4.002744  0  0  -0.080863  -0.089556  0  3.967612  0
C  C47  1  0.07047271  0.45454661  0.24220641  1  0  -0.067378  0  3.731572  0  0  -0.090529  0  3.981794  0  0  -0.091887  0  4.002781  0  0  -0.080869  -0.089515  0  3.96764  0
C  C48  1  0.48909108  0.37182255  0.19682750  1  0  -0.060247  0  3.732438  0  0  -0.037512  0  3.959007  0  0  -0.04489  0  3.982624  0  0  -0.010546  -0.032754  0  3.943252  0
C  C49  1  0.01091017  0.62818139  0.69682686  1  0  -0.060257  0  3.732534  0  0  -0.037562  0  3.959083  0  0  -0.044941  0  3.982703  0  0  -0.010575  -0.032805  0  3.943333  0
C  C50  1  0.51090843  0.62818067  0.80317292  1  0  -0.060272  0  3.732504  0  0  -0.037578  0  3.95905  0  0  -0.044955  0  3.982669  0  0  -0.010584  -0.032817  0  3.943297  0
C  C51  1  0.98909063  0.37182182  0.30317250  1  0  -0.060249  0  3.732452  0  0  -0.037508  0  3.959017  0  0  -0.044884  0  3.982636  0  0  -0.010557  -0.032753  0  3.943266  0
C  C52  1  0.37660053  0.20640834  0.20146787  1  0  -0.064439  0  3.728778  0  0  -0.086849  0  3.978761  0  0  -0.088264  0  4.00053  0  0  -0.079143  -0.085803  0  3.964019  0
C  C53  1  0.12339466  0.79359687  0.70146774  1  0  -0.064418  0  3.728719  0  0  -0.086796  0  3.978669  0  0  -0.08821  0  4.00044  0  0  -0.079131  -0.085751  0  3.963932  0
C  C54  1  0.62339420  0.79359615  0.79853202  1  0  -0.064426  0  3.728689  0  0  -0.086794  0  3.978634  0  0  -0.088209  0  4.000405  0  0  -0.079134  -0.085747  0  3.963895  0
C  C55  1  0.87660007  0.20640762  0.29853215  1  0  -0.06446  0  3.728783  0  0  -0.086859  0  3.978739  0  0  -0.088272  0  4.000507  0  0  -0.079137  -0.085815  0  3.964001  0
C  C56  1  0.34656597  0.12452509  0.26611436  1  0  -0.065232  0  3.731788  0  0  -0.08864  0  3.979944  0  0  -0.089927  0  4.000841  0  0  -0.081673  -0.087689  0  3.965857  0
C  C57  1  0.15342980  0.87547751  0.76611527  1  0  -0.06529  0  3.731705  0  0  -0.08868  0  3.979864  0  0  -0.089967  0  4.000764  0  0  -0.081681  -0.087731  0  3.965783  0
C  C58  1  0.65342839  0.87547813  0.73388447  1  0  -0.065321  0  3.731737  0  0  -0.088717  0  3.979901  0  0  -0.090003  0  4.000798  0  0  -0.081666  -0.087768  0  3.96582  0
C  C59  1  0.84656584  0.12452571  0.23388567  1  0  -0.065283  0  3.731924  0  0  -0.088667  0  3.980069  0  0  -0.089953  0  4.000966  0  0  -0.081681  -0.087716  0  3.965983  0
C  C60  1  0.40934403  0.11014177  0.39460700  1  0  0.709966  0  3.869617  0  0  0.664934  0  4.162355  0  0  0.700616  0  4.150432  0  0  0.230412  0.640625  0  4.169246  0
C  C61  1  0.09065420  0.88985561  0.89460790  1  0  0.70999  0  3.86985  0  0  0.665021  0  4.162468  0  0  0.700706  0  4.150545  0  0  0.230452  0.64071  0  4.169362  0
C  C62  1  0.59065400  0.88985638  0.60539236  1  0  0.709951  0  3.869876  0  0  0.664992  0  4.162483  0  0  0.700675  0  4.150563  0  0  0.230439  0.640682  0  4.169378  0
C  C63  1  0.90934345  0.11014127  0.10539304  1  0  0.709957  0  3.86965  0  0  0.664916  0  4.162404  0  0  0.700599  0  4.150481  0  0  0.230405  0.640606  0  4.169293  0
C  C64  1  0.52177311  0.45909117  0.12699410  1  0  0.718182  0  3.851644  0  0  0.674689  0  4.140083  0  0  0.710413  0  4.128294  0  0  0.235236  0.650384  0  4.146838  0
C  C65  1  0.97822713  0.54091152  0.62699304  1  0  0.718192  0  3.851728  0  0  0.674785  0  4.14003  0  0  0.710507  0  4.128245  0  0  0.235303  0.650482  0  4.146788  0
C  C66  1  0.47822640  0.54091205  0.87300684  1  0  0.718234  0  3.851661  0  0  0.674824  0  4.139965  0  0  0.710544  0  4.128182  0  0  0.235298  0.650519  0  4.146725  0
C  C67  1  0.02177238  0.45909169  0.37300580  1  0  0.71814  0  3.851692  0  0  0.674631  0  4.140166  0  0  0.710347  0  4.128389  0  0  0.235203  0.650327  0  4.146923  0
C  C68  1  0.07284195  0.06040073  0.52297746  1  0  0.585164  0  3.86539  0  0  0.537876  0  4.166075  0  0  0.568166  0  4.156968  0  0  0.232943  0.517304  0  4.171155  0
C  C69  1  0.42716893  0.93959707  0.02297583  1  0  0.585267  0  3.865366  0  0  0.537943  0  4.166089  0  0  0.568236  0  4.156974  0  0  0.233019  0.51737  0  4.171167  0
C  C70  1  0.92716766  0.93959741  0.47702401  1  0  0.585243  0  3.865242  0  0  0.53793  0  4.165954  0  0  0.568223  0  4.156841  0  0  0.233027  0.517359  0  4.171035  0
C  C71  1  0.57284160  0.06039981  0.97702247  1  0  0.585168  0  3.865364  0  0  0.537877  0  4.166056  0  0  0.568171  0  4.15694  0  0  0.232954  0.517302  0  4.171136  0
O  O72  1  0.51618423  0.17098716  0.44516497  1  0  -0.760231  0  2.084024  0  0  -0.72029  0  2.355645  0  0  -0.745186  0  2.340498  0  0  -0.421238  -0.701638  0  2.365101  0
O  O73  1  0.98381876  0.82900629  0.94516752  1  0  -0.760206  0  2.084006  0  0  -0.720326  0  2.35565  0  0  -0.745222  0  2.340503  0  0  -0.421242  -0.701669  0  2.365108  0
O  O74  1  0.48381747  0.82900592  0.55483229  1  0  -0.76018  0  2.083976  0  0  -0.720303  0  2.3556  0  0  -0.745194  0  2.340455  0  0  -0.4212  -0.701647  0  2.365057  0
O  O75  1  0.01618422  0.17098679  0.05483500  1  0  -0.760238  0  2.08402  0  0  -0.720297  0  2.355646  0  0  -0.745188  0  2.3405  0  0  -0.421243  -0.701645  0  2.365099  0
O  O76  1  0.28796682  0.97082889  0.39826578  1  0  -0.717848  0  2.047394  0  0  -0.67717  0  2.291015  0  0  -0.702389  0  2.279625  0  0  -0.385781  -0.658885  0  2.298261  0
O  O77  1  0.21202663  0.02916976  0.89826586  1  0  -0.717925  0  2.047619  0  0  -0.677252  0  2.29121  0  0  -0.702472  0  2.279819  0  0  -0.385839  -0.658968  0  2.29846  0
O  O78  1  0.71202606  0.02916927  0.60173358  1  0  -0.717937  0  2.047682  0  0  -0.677264  0  2.291267  0  0  -0.702489  0  2.279875  0  0  -0.385858  -0.65898  0  2.298518  0
O  O79  1  0.78796753  0.97082840  0.10173456  1  0  -0.717833  0  2.047448  0  0  -0.677144  0  2.291068  0  0  -0.702368  0  2.279678  0  0  -0.38577  -0.658859  0  2.298314  0
O  O80  1  0.64172846  0.59982349  0.12307772  1  0  -0.708172  0  2.00589  0  0  -0.667807  0  2.247707  0  0  -0.692679  0  2.235168  0  0  -0.391312  -0.649728  0  2.255741  0
O  O81  1  0.85827471  0.40018047  0.62307351  1  0  -0.708185  0  2.006038  0  0  -0.667822  0  2.247795  0  0  -0.692694  0  2.235255  0  0  -0.39135  -0.649746  0  2.255832  0
O  O82  1  0.35827491  0.40017972  0.87692638  1  0  -0.708213  0  2.006042  0  0  -0.667853  0  2.247799  0  0  -0.692721  0  2.235261  0  0  -0.39136  -0.649777  0  2.255837  0
O  O83  1  0.14172774  0.59982401  0.37692216  1  0  -0.708136  0  2.005921  0  0  -0.667768  0  2.247744  0  0  -0.692631  0  2.235209  0  0  -0.391297  -0.649688  0  2.255777  0
O  O84  1  0.42858115  0.38889806  0.07429892  1  0  -0.768455  0  2.09498  0  0  -0.730435  0  2.36583  0  0  -0.755846  0  2.351349  0  0  -0.41119  -0.711197  0  2.37438  0
O  O85  1  0.07142628  0.61110981  0.57429936  1  0  -0.768466  0  2.094904  0  0  -0.730508  0  2.365742  0  0  -0.755901  0  2.351233  0  0  -0.411237  -0.711271  0  2.374304  0
O  O86  1  0.57142627  0.61111021  0.92570043  1  0  -0.768471  0  2.094859  0  0  -0.730505  0  2.3657  0  0  -0.755902  0  2.351188  0  0  -0.41121  -0.711266  0  2.374262  0
O  O87  1  0.92857949  0.38889719  0.42570105  1  0  -0.76847  0  2.095015  0  0  -0.730447  0  2.365882  0  0  -0.755863  0  2.351412  0  0  -0.411179  -0.711208  0  2.374433  0
O  O88  1  0.05275260  0.20539185  0.53561956  1  0  -0.647049  0  2.097279  0  0  -0.599097  0  2.32793  0  0  -0.62296  0  2.317706  0  0  -0.343499  -0.581941  0  2.334515  0
O  O89  1  0.44725276  0.79460468  0.03561745  1  0  -0.647163  0  2.097297  0  0  -0.599203  0  2.327977  0  0  -0.623062  0  2.31774  0  0  -0.343553  -0.582046  0  2.334562  0
O  O90  1  0.94725021  0.79460503  0.46438190  1  0  -0.64709  0  2.097261  0  0  -0.59916  0  2.327948  0  0  -0.623017  0  2.317717  0  0  -0.343539  -0.582004  0  2.334534  0
O  O91  1  0.55275353  0.20539093  0.96438033  1  0  -0.647044  0  2.097313  0  0  -0.599108  0  2.327966  0  0  -0.622971  0  2.317739  0  0  -0.343498  -0.581952  0  2.334551  0
O  O92  1  0.20158891  0.00581820  0.54375932  1  0  -0.646326  0  2.107737  0  0  -0.598411  0  2.340882  0  0  -0.623256  0  2.331402  0  0  -0.322352  -0.580571  0  2.346939  0
O  O93  1  0.29842401  0.99418211  0.04375976  1  0  -0.646333  0  2.10779  0  0  -0.59842  0  2.34098  0  0  -0.62327  0  2.331496  0  0  -0.322393  -0.580582  0  2.347035  0
O  O94  1  0.79842347  0.99418500  0.45624004  1  0  -0.646358  0  2.107684  0  0  -0.598417  0  2.340847  0  0  -0.623269  0  2.331363  0  0  -0.322395  -0.580579  0  2.346905  0
O  O95  1  0.70158855  0.00581729  0.95624065  1  0  -0.646321  0  2.10775  0  0  -0.598377  0  2.340884  0  0  -0.623229  0  2.331402  0  0  -0.322346  -0.580535  0  2.346939  0
O  O96  1  0.49167935  0.25278828  0.58946630  1  0  -0.869175  0  1.871622  0  0  -0.829047  0  2.057793  0  0  -0.84733  0  2.029922  0  0  -0.615476  -0.815507  0  2.077439  0
O  O97  1  0.00832255  0.74720945  0.08946729  1  0  -0.869091  0  1.871668  0  0  -0.828982  0  2.057794  0  0  -0.847266  0  2.029926  0  0  -0.615476  -0.815442  0  2.077439  0
O  O98  1  0.50832345  0.74720860  0.41053253  1  0  -0.86911  0  1.871636  0  0  -0.829005  0  2.057755  0  0  -0.847284  0  2.02989  0  0  -0.615494  -0.815466  0  2.077399  0
O  O99  1  0.99167934  0.25278870  0.91053365  1  0  -0.869168  0  1.871612  0  0  -0.829044  0  2.057798  0  0  -0.847324  0  2.029928  0  0  -0.615501  -0.815506  0  2.077446  0
O  O100  1  0.68687713  0.51770639  0.50111411  1  0  -0.899169  0  1.903876  0  0  -0.857259  0  2.105998  0  0  -0.87602  0  2.076763  0  0  -0.629136  -0.843262  0  2.126068  0
O  O101  1  0.81312283  0.48229137  0.00111468  1  0  -0.899167  0  1.903924  0  0  -0.857306  0  2.106021  0  0  -0.876065  0  2.076742  0  0  -0.62915  -0.843309  0  2.126096  0
O  O102  1  0.31312089  0.48229176  0.49888473  1  0  -0.899172  0  1.903944  0  0  -0.857282  0  2.106086  0  0  -0.876033  0  2.076803  0  0  -0.629195  -0.843285  0  2.12616  0
O  O103  1  0.18687777  0.51770677  0.99888573  1  0  -0.899125  0  1.903902  0  0  -0.857213  0  2.106037  0  0  -0.875968  0  2.07679  0  0  -0.629184  -0.843218  0  2.126107  0
