# generated using pymatgen
data_AgH17C16SN2O3
_symmetry_space_group_name_H-M   'P 1'
_cell_length_a   7.52067165
_cell_length_b   9.01181722
_cell_length_c   13.80390439
_cell_angle_alpha   90.52343731
_cell_angle_beta   81.54221055
_cell_angle_gamma   87.42519593
_symmetry_Int_Tables_number   1
_chemical_formula_structural   AgH17C16SN2O3
_chemical_formula_sum   'Ag2 H34 C32 S2 N4 O6'
_cell_volume   924.33223194
_cell_formula_units_Z   2
loop_
 _symmetry_equiv_pos_site_id
 _symmetry_equiv_pos_as_xyz
  1  'x, y, z'
loop_
 _atom_site_type_symbol
 _atom_site_label
 _atom_site_symmetry_multiplicity
 _atom_site_fract_x
 _atom_site_fract_y
 _atom_site_fract_z
 _atom_site_occupancy
 _atom_site_hle17_bader_spin_density
 _atom_site_hle17_ddec_charge
 _atom_site_hle17_ddec_spin_density
 _atom_site_hle17_ddec_sum_bond_order
 _atom_site_hle17_magmom
 _atom_site_hse06_10hf_bader_spin_density
 _atom_site_hse06_10hf_ddec_charge
 _atom_site_hse06_10hf_ddec_spin_density
 _atom_site_hse06_10hf_ddec_sum_bond_order
 _atom_site_hse06_10hf_magmom
 _atom_site_hse06_bader_spin_density
 _atom_site_hse06_ddec_charge
 _atom_site_hse06_ddec_spin_density
 _atom_site_hse06_ddec_sum_bond_order
 _atom_site_hse06_magmom
 _atom_site_pbe_bader_spin_density
 _atom_site_pbe_cm5_charge
 _atom_site_pbe_ddec_charge
 _atom_site_pbe_ddec_spin_density
 _atom_site_pbe_ddec_sum_bond_order
 _atom_site_pbe_magmom
Ag  Ag0  1  0.23232328  0.37147374  0.98828378  1  0  0.565068  0  1.412753  0  0  0.435457  0  1.838507  0  0  0.459032  0  1.796541  0  0  0.507357  0.419674  0  1.867395  0
Ag  Ag1  1  0.76767214  0.62852472  0.01171606  1  0  0.565063  0  1.412649  0  0  0.435428  0  1.838375  0  0  0.459013  0  1.796408  0  0  0.507326  0.419651  0  1.86725  0
H  H2  1  0.55224998  0.35048782  0.01828256  1  0  0.08205  0  0.989945  0  0  0.084197  0  1.073092  0  0  0.088441  0  1.066856  0  0  0.109045  0.080949  0  1.077723  0
H  H3  1  0.44774535  0.64951066  0.98171945  1  0  0.082084  0  0.989902  0  0  0.084168  0  1.07313  0  0  0.08841  0  1.066894  0  0  0.109041  0.080923  0  1.077759  0
H  H4  1  0.48136508  0.17848192  0.31113652  1  0  0.097495  0  0.924898  0  0  0.113012  0  0.975305  0  0  0.115287  0  0.974124  0  0  0.113464  0.111342  0  0.97609  0
H  H5  1  0.51862054  0.82151972  0.68886690  1  0  0.0975  0  0.92484  0  0  0.113004  0  0.975265  0  0  0.115282  0  0.97408  0  0  0.113443  0.111316  0  0.976069  0
H  H6  1  0.67238278  0.38250321  0.35763228  1  0  0.09423  0  0.966145  0  0  0.106183  0  1.024837  0  0  0.108448  0  1.025167  0  0  0.105265  0.104504  0  1.024913  0
H  H7  1  0.32761458  0.61748861  0.64236668  1  0  0.094241  0  0.966126  0  0  0.106178  0  1.024846  0  0  0.108443  0  1.025177  0  0  0.105264  0.104499  0  1.024922  0
H  H8  1  0.77169371  0.57379292  0.23284493  1  0  0.085987  0  0.954652  0  0  0.092445  0  1.022368  0  0  0.095327  0  1.019157  0  0  0.118703  0.090177  0  1.024973  0
H  H9  1  0.22831444  0.42619693  0.76715690  1  0  0.086035  0  0.954644  0  0  0.092534  0  1.022306  0  0  0.09542  0  1.019091  0  0  0.118745  0.090266  0  1.024911  0
H  H10  1  0.35585580  0.04416802  0.17689858  1  0  0.083821  0  0.910074  0  0  0.098605  0  0.968711  0  0  0.100917  0  0.965255  0  0  0.125442  0.097515  0  0.969911  0
H  H11  1  0.64412127  0.95584228  0.82309893  1  0  0.083793  0  0.909847  0  0  0.09861  0  0.968466  0  0  0.100922  0  0.965012  0  0  0.125422  0.097516  0  0.969664  0
H  H12  1  0.15064232  0.96493402  0.10570371  1  0  0.051797  0  0.954402  0  0  0.066393  0  1.01423  0  0  0.066422  0  1.014722  0  0  0.105608  0.066356  0  1.013458  0
H  H13  1  0.84935416  0.03506998  0.89429100  1  0  0.051707  0  0.954414  0  0  0.066316  0  1.014294  0  0  0.066344  0  1.014789  0  0  0.105592  0.066278  0  1.013518  0
H  H14  1  0.32642106  0.95742999  0.94111630  1  0  0.066095  0  0.962567  0  0  0.084502  0  1.023428  0  0  0.083811  0  1.026175  0  0  0.086758  0.084952  0  1.021683  0
H  H15  1  0.67357141  0.04257284  0.05888086  1  0  0.06607  0  0.962523  0  0  0.084471  0  1.023403  0  0  0.083782  0  1.026147  0  0  0.086768  0.08492  0  1.021656  0
H  H16  1  0.18032225  0.09551728  0.89971243  1  0  0.078458  0  0.955552  0  0  0.093225  0  1.026065  0  0  0.095517  0  1.023237  0  0  0.087929  0.091329  0  1.028554  0
H  H17  1  0.81967707  0.90448565  0.10028063  1  0  0.078437  0  0.955555  0  0  0.093197  0  1.026087  0  0  0.095489  0  1.023259  0  0  0.087894  0.091293  0  1.028587  0
H  H18  1  0.92290892  0.21673521  0.02949540  1  0  0.073177  0  0.95694  0  0  0.087479  0  1.028988  0  0  0.088746  0  1.028134  0  0  0.086591  0.086317  0  1.030053  0
H  H19  1  0.07708622  0.78326767  0.97050157  1  0  0.073276  0  0.956916  0  0  0.087549  0  1.028926  0  0  0.088811  0  1.028071  0  0  0.086629  0.086387  0  1.029992  0
H  H20  1  0.90214042  0.15229861  0.15173856  1  0  0.070104  0  0.932559  0  0  0.090265  0  0.988708  0  0  0.089809  0  0.991089  0  0  0.088398  0.090599  0  0.987123  0
H  H21  1  0.09785787  0.84769986  0.84825601  1  0  0.070125  0  0.932543  0  0  0.090225  0  0.988702  0  0  0.089763  0  0.991082  0  0  0.088387  0.090559  0  0.987117  0
H  H22  1  0.32126563  0.72519142  0.33860598  1  0  0.096484  0  0.935018  0  0  0.10869  0  0.990239  0  0  0.11222  0  0.987756  0  0  0.105026  0.106732  0  0.990804  0
H  H23  1  0.67874294  0.27480955  0.66139513  1  0  0.096445  0  0.935142  0  0  0.108627  0  0.990382  0  0  0.112182  0  0.98787  0  0  0.105005  0.106668  0  0.990947  0
H  H24  1  0.34949808  0.58109863  0.48856718  1  0  0.077598  0  0.97419  0  0  0.089952  0  1.036687  0  0  0.09264  0  1.035777  0  0  0.092885  0.087912  0  1.03761  0
H  H25  1  0.65051033  0.41890347  0.51143539  1  0  0.077616  0  0.974187  0  0  0.08991  0  1.03675  0  0  0.092601  0  1.035833  0  0  0.092873  0.087871  0  1.037669  0
H  H26  1  0.06139538  0.22833721  0.38036841  1  0  0.08923  0  0.943131  0  0  0.102078  0  0.997752  0  0  0.105405  0  0.996485  0  0  0.098616  0.100143  0  0.99778  0
H  H27  1  0.93861306  0.77166489  0.61963343  1  0  0.089193  0  0.94309  0  0  0.102072  0  0.997678  0  0  0.105398  0  0.99641  0  0  0.098623  0.100137  0  0.997706  0
H  H28  1  0.03695147  0.37235741  0.22924175  1  0  0.094591  0  0.973885  0  0  0.101358  0  1.044099  0  0  0.104576  0  1.04252  0  0  0.099731  0.099043  0  1.045264  0
H  H29  1  0.96305850  0.62764249  0.77075998  1  0  0.094588  0  0.973812  0  0  0.10141  0  1.043986  0  0  0.10463  0  1.042402  0  0  0.099718  0.099094  0  1.045156  0
H  H30  1  0.36275137  0.27897724  0.54361021  1  0  0.099719  0  0.944084  0  0  0.123157  0  1.002668  0  0  0.124085  0  1.002754  0  0  0.088383  0.122416  0  1.002679  0
H  H31  1  0.63725623  0.72101927  0.45639095  1  0  0.099653  0  0.944127  0  0  0.123047  0  1.002741  0  0  0.123973  0  1.002829  0  0  0.088325  0.122307  0  1.002753  0
H  H32  1  0.14764675  0.20649965  0.54018838  1  0  0.110937  0  0.93602  0  0  0.132842  0  0.992776  0  0  0.134791  0  0.991705  0  0  0.092034  0.131558  0  0.993049  0
H  H33  1  0.85235816  0.79349789  0.45981080  1  0  0.110927  0  0.936012  0  0  0.13281  0  0.992776  0  0  0.134759  0  0.991705  0  0  0.092022  0.131527  0  0.993048  0
H  H34  1  0.16616992  0.37439535  0.60364198  1  0  0.115625  0  0.963841  0  0  0.13689  0  1.026551  0  0  0.137549  0  1.028239  0  0  0.092148  0.136317  0  1.025554  0
H  H35  1  0.83383637  0.62560003  0.39636072  1  0  0.115594  0  0.963847  0  0  0.136871  0  1.026509  0  0  0.137527  0  1.028205  0  0  0.092148  0.136299  0  1.025514  0
C  C36  1  0.56386426  0.36076650  0.09608977  1  0  0.089297  0  3.650688  0  0  0.051691  0  3.896913  0  0  0.058893  0  3.913376  0  0  0.053866  0.047022  0  3.885998  0
C  C37  1  0.43612440  0.63923075  0.90391416  1  0  0.089336  0  3.650533  0  0  0.051756  0  3.896817  0  0  0.058954  0  3.913276  0  0  0.053906  0.047089  0  3.885903  0
C  C38  1  0.48649351  0.25804934  0.16346737  1  0  -0.005395  0  3.803879  0  0  0.019028  0  4.040028  0  0  0.011974  0  4.064071  0  0  -0.003353  0.023285  0  4.024393  0
C  C39  1  0.51350299  0.74195248  0.83653168  1  0  -0.005456  0  3.803878  0  0  0.018982  0  4.040031  0  0  0.011927  0  4.064079  0  0  -0.003368  0.023234  0  4.024388  0
C  C40  1  0.53213750  0.26133094  0.25825473  1  0  -0.036846  0  3.699143  0  0  -0.063733  0  3.942806  0  0  -0.060277  0  3.962493  0  0  -0.057975  -0.066048  0  3.93014  0
C  C41  1  0.46784393  0.73867283  0.74174826  1  0  -0.03688  0  3.699282  0  0  -0.063745  0  3.942916  0  0  -0.06029  0  3.962606  0  0  -0.057924  -0.06604  0  3.93024  0
C  C42  1  0.63673329  0.37433498  0.28428413  1  0  -0.11634  0  3.760585  0  0  -0.128205  0  4.014195  0  0  -0.136317  0  4.037982  0  0  -0.08194  -0.123173  0  3.998731  0
C  C43  1  0.36326061  0.62566349  0.71572016  1  0  -0.1164  0  3.760609  0  0  -0.128261  0  4.014255  0  0  -0.136375  0  4.038048  0  0  -0.082016  -0.123228  0  3.99878  0
C  C44  1  0.69510128  0.47990378  0.21520208  1  0  0.136704  0  3.66425  0  0  0.103102  0  3.914247  0  0  0.110908  0  3.931685  0  0  0.055851  0.09786  0  3.902861  0
C  C45  1  0.30490283  0.52008708  0.78479786  1  0  0.136716  0  3.664176  0  0  0.103066  0  3.914225  0  0  0.110867  0  3.931652  0  0  0.055837  0.097825  0  3.902839  0
C  C46  1  0.36083937  0.15011794  0.13767468  1  0  0.139774  0  3.664105  0  0  0.095004  0  3.915017  0  0  0.106507  0  3.929817  0  0  0.090144  0.087112  0  3.904883  0
C  C47  1  0.63914437  0.84988815  0.86233323  1  0  0.139878  0  3.664217  0  0  0.095056  0  3.915105  0  0  0.106551  0  3.929912  0  0  0.090166  0.087173  0  3.90496  0
C  C48  1  0.13378865  0.05758906  0.05604607  1  0  0.130927  0  3.634881  0  0  0.117419  0  3.869658  0  0  0.120336  0  3.88759  0  0  -0.002431  0.115654  0  3.857275  0
C  C49  1  0.86620814  0.94241159  0.94394789  1  0  0.131065  0  3.634794  0  0  0.11732  0  3.869844  0  0  0.120229  0  3.887775  0  0  -0.002463  0.115554  0  3.857455  0
C  C50  1  0.18660153  0.00188966  0.95017308  1  0  -0.147495  0  3.656209  0  0  -0.189414  0  3.905863  0  0  -0.191846  0  3.921348  0  0  -0.164785  -0.187641  0  3.8956  0
C  C51  1  0.81339416  0.99810873  0.04981949  1  0  -0.147368  0  3.655972  0  0  -0.189184  0  3.905697  0  0  -0.191614  0  3.921201  0  0  -0.164678  -0.187402  0  3.89542  0
C  C52  1  0.93806032  0.11756356  0.07442326  1  0  -0.14342  0  3.651284  0  0  -0.184545  0  3.903028  0  0  -0.186719  0  3.918612  0  0  -0.164896  -0.182738  0  3.892223  0
C  C53  1  0.06193369  0.88243815  0.92557089  1  0  -0.143603  0  3.651506  0  0  -0.184501  0  3.903111  0  0  -0.18665  0  3.918665  0  0  -0.164901  -0.1827  0  3.892325  0
C  C54  1  0.17399167  0.55822876  0.27589945  1  0  -0.122348  0  3.745164  0  0  -0.09426  0  3.986141  0  0  -0.101675  0  4.009301  0  0  -0.023469  -0.089555  0  3.97092  0
C  C55  1  0.82601584  0.44176886  0.72410173  1  0  -0.12243  0  3.745419  0  0  -0.094354  0  3.986409  0  0  -0.101763  0  4.00958  0  0  -0.023449  -0.089649  0  3.971186  0
C  C56  1  0.26347336  0.61652928  0.34868468  1  0  -0.05777  0  3.777542  0  0  -0.080682  0  4.023706  0  0  -0.079641  0  4.04421  0  0  -0.085514  -0.081355  0  4.009657  0
C  C57  1  0.73653396  0.38347055  0.65131652  1  0  -0.057657  0  3.777705  0  0  -0.080538  0  4.023802  0  0  -0.079525  0  4.044306  0  0  -0.085471  -0.081211  0  4.009752  0
C  C58  1  0.27834150  0.53514858  0.43251178  1  0  -0.139544  0  3.753379  0  0  -0.158265  0  4.002952  0  0  -0.163458  0  4.025856  0  0  -0.097226  -0.154839  0  3.987858  0
C  C59  1  0.72166555  0.46485458  0.56748871  1  0  -0.139763  0  3.75328  0  0  -0.1583  0  4.002925  0  0  -0.163495  0  4.025843  0  0  -0.09731  -0.154874  0  3.987831  0
C  C60  1  0.20494038  0.39487050  0.44628704  1  0  0.143567  0  3.765873  0  0  0.170326  0  4.001534  0  0  0.172477  0  4.026828  0  0  -0.010762  0.168782  0  3.984575  0
C  C61  1  0.79506671  0.60513157  0.55371490  1  0  0.143956  0  3.765545  0  0  0.1703  0  4.001675  0  0  0.17245  0  4.02697  0  0  -0.010697  0.168757  0  3.984717  0
C  C62  1  0.11786041  0.33788492  0.37201259  1  0  -0.14314  0  3.756154  0  0  -0.161537  0  4.004126  0  0  -0.166762  0  4.026035  0  0  -0.098835  -0.15813  0  3.989109  0
C  C63  1  0.88214829  0.66211385  0.62798995  1  0  -0.143192  0  3.756001  0  0  -0.161473  0  4.004083  0  0  -0.166696  0  4.025992  0  0  -0.098806  -0.158067  0  3.989067  0
C  C64  1  0.10285365  0.41811702  0.28720735  1  0  -0.076525  0  3.797661  0  0  -0.102983  0  4.053485  0  0  -0.102196  0  4.074917  0  0  -0.094141  -0.10336  0  4.039323  0
C  C65  1  0.89715517  0.58188063  0.71279446  1  0  -0.076437  0  3.797635  0  0  -0.102941  0  4.053411  0  0  -0.102158  0  4.074841  0  0  -0.094108  -0.103322  0  4.039252  0
C  C66  1  0.22122553  0.30905127  0.53765286  1  0  -0.333881  0  3.733432  0  0  -0.414884  0  3.96587  0  0  -0.417018  0  3.975372  0  0  -0.239212  -0.413145  0  3.959437  0
C  C67  1  0.77878056  0.69094742  0.46234769  1  0  -0.333908  0  3.73342  0  0  -0.414714  0  3.965959  0  0  -0.416848  0  3.975459  0  0  -0.239176  -0.412983  0  3.95953  0
S  S68  1  0.13712680  0.67245061  0.17468036  1  0  1.277346  0  5.708157  0  0  1.186366  0  6.226964  0  0  1.233858  0  6.204634  0  0  0.487967  1.153689  0  6.240809  0
S  S69  1  0.86288304  0.32755150  0.82531994  1  0  1.277358  0  5.708224  0  0  1.186376  0  6.227017  0  0  1.233864  0  6.204688  0  0  0.488015  1.153699  0  6.240858  0
N  N70  1  0.66435447  0.46973832  0.12174883  1  0  -0.271846  0  3.316659  0  0  -0.188415  0  3.593701  0  0  -0.206308  0  3.609741  0  0  -0.338896  -0.176522  0  3.582973  0
N  N71  1  0.33564504  0.53025912  0.87825145  1  0  -0.271884  0  3.316699  0  0  -0.188441  0  3.593752  0  0  -0.20632  0  3.609779  0  0  -0.338894  -0.176548  0  3.583021  0
N  N72  1  0.25332601  0.17511133  0.07461489  1  0  -0.309112  0  3.258468  0  0  -0.222224  0  3.544972  0  0  -0.241713  0  3.561696  0  0  -0.340771  -0.209606  0  3.533816  0
N  N73  1  0.74666250  0.82489466  0.92537313  1  0  -0.309215  0  3.258699  0  0  -0.222197  0  3.545176  0  0  -0.241679  0  3.561901  0  0  -0.340758  -0.209579  0  3.534017  0
O  O74  1  0.07501900  0.57197213  0.10197565  1  0  -0.711083  0  2.058152  0  0  -0.651158  0  2.359474  0  0  -0.672764  0  2.338899  0  0  -0.363901  -0.636148  0  2.37324  0
O  O75  1  0.92498540  0.42803097  0.89802430  1  0  -0.711084  0  2.058227  0  0  -0.651142  0  2.359517  0  0  -0.672763  0  2.33899  0  0  -0.363928  -0.636132  0  2.373283  0
O  O76  1  0.30969863  0.73736001  0.13930678  1  0  -0.667198  0  1.898477  0  0  -0.627334  0  2.147108  0  0  -0.647655  0  2.132856  0  0  -0.359188  -0.612665  0  2.155285  0
O  O77  1  0.69031278  0.26263881  0.86069486  1  0  -0.667204  0  1.898578  0  0  -0.627341  0  2.147197  0  0  -0.647663  0  2.132952  0  0  -0.359186  -0.612674  0  2.15537  0
O  O78  1  0.99411983  0.78095874  0.21644780  1  0  -0.668132  0  1.87481  0  0  -0.622062  0  2.104929  0  0  -0.643665  0  2.092085  0  0  -0.36393  -0.606346  0  2.112079  0
O  O79  1  0.00589124  0.21904342  0.78355531  1  0  -0.66818  0  1.87475  0  0  -0.622114  0  2.104866  0  0  -0.643714  0  2.092019  0  0  -0.364001  -0.606401  0  2.112015  0
