# generated using pymatgen
data_Zn2H23C35N5O9
_symmetry_space_group_name_H-M   'P 1'
_cell_length_a   13.63063470
_cell_length_b   15.89986077
_cell_length_c   15.67933813
_cell_angle_alpha   89.99972828
_cell_angle_beta   109.34922639
_cell_angle_gamma   90.00003093
_symmetry_Int_Tables_number   1
_chemical_formula_structural   Zn2H23C35N5O9
_chemical_formula_sum   'Zn8 H92 C140 N20 O36'
_cell_volume   3206.17105679
_cell_formula_units_Z   4
loop_
 _symmetry_equiv_pos_site_id
 _symmetry_equiv_pos_as_xyz
  1  'x, y, z'
loop_
 _atom_site_type_symbol
 _atom_site_label
 _atom_site_symmetry_multiplicity
 _atom_site_fract_x
 _atom_site_fract_y
 _atom_site_fract_z
 _atom_site_occupancy
 _atom_site_pbe_bader_charge
 _atom_site_pbe_bader_spin_density
 _atom_site_pbe_cm5_charge
 _atom_site_pbe_ddec_charge
 _atom_site_pbe_ddec_spin_density
 _atom_site_pbe_ddec_sum_bond_order
 _atom_site_pbe_magmom
Zn  Zn0  1  0.94889593  0.30107315  0.32698123  1  1.34254  0  0.665504  0.933738  0  2.254533  0
Zn  Zn1  1  0.05109808  0.30107394  0.17302310  1  1.342697  0  0.665542  0.933732  0  2.254502  0
Zn  Zn2  1  0.05110647  0.69892718  0.67302372  1  1.342751  0  0.665533  0.933796  0  2.254496  0
Zn  Zn3  1  0.94890117  0.69892702  0.82697842  1  1.342633  0  0.665493  0.93367  0  2.254476  0
Zn  Zn4  1  0.82915630  0.21156030  0.09639674  1  1.265007  0  0.680986  0.865228  0  2.378021  0
Zn  Zn5  1  0.17083623  0.21156257  0.40360506  1  1.264834  0  0.680988  0.865178  0  2.377839  0
Zn  Zn6  1  0.17084291  0.78844129  0.90360286  1  1.265012  0  0.68099  0.865277  0  2.377896  0
Zn  Zn7  1  0.82916537  0.78843839  0.59639839  1  1.264883  0  0.680948  0.865138  0  2.377951  0
H  H8  1  0.87120971  0.35207583  0.17091138  1  0.643445  0  0.270635  0.356857  0  1.009346  0
H  H9  1  0.12878656  0.35207718  0.32909333  1  0.643473  0  0.270641  0.356834  0  1.009388  0
H  H10  1  0.12879110  0.64792324  0.82909122  1  0.643424  0  0.270636  0.356862  0  1.009341  0
H  H11  1  0.87121582  0.64792441  0.67091097  1  0.64351  0  0.270628  0.356833  0  1.009387  0
H  H12  1  0.90705194  0.54868392  0.40993410  1  0.109495  0  0.111571  0.123861  0  0.990961  0
H  H13  1  0.09295954  0.54868386  0.09006878  1  0.109591  0  0.111591  0.123846  0  0.990935  0
H  H14  1  0.09295049  0.45131893  0.59007277  1  0.10963  0  0.111636  0.123923  0  0.990903  0
H  H15  1  0.90704743  0.45131899  0.90993169  1  0.10952  0  0.111581  0.123808  0  0.990966  0
H  H16  1  0.84812733  0.75656996  0.16163471  1  0.074218  0  0.097439  0.096155  0  1.045647  0
H  H17  1  0.15187379  0.75656875  0.33836558  1  0.074228  0  0.097458  0.096196  0  1.045584  0
H  H18  1  0.15187273  0.24342786  0.83836959  1  0.07411  0  0.09745  0.096182  0  1.04565  0
H  H19  1  0.84813325  0.24343284  0.66163937  1  0.074303  0  0.09743  0.096156  0  1.045694  0
H  H20  1  0.82827547  0.60233598  0.12686537  1  0.08538  0  0.105381  0.109606  0  0.996256  0
H  H21  1  0.17172898  0.60233777  0.37313722  1  0.085332  0  0.105372  0.109629  0  0.996276  0
H  H22  1  0.17173086  0.39766058  0.87314321  1  0.085236  0  0.105358  0.109527  0  0.996272  0
H  H23  1  0.82827569  0.39766382  0.62686453  1  0.085374  0  0.105377  0.10957  0  0.996294  0
H  H24  1  0.05987034  0.79460847  0.43096945  1  0.11768  0  0.115439  0.12728  0  1.003515  0
H  H25  1  0.94012921  0.79460890  0.06903278  1  0.117702  0  0.115407  0.127216  0  1.003668  0
H  H26  1  0.94012813  0.20539312  0.56903250  1  0.117683  0  0.115422  0.127192  0  1.003582  0
H  H27  1  0.05987245  0.20538829  0.93097451  1  0.117691  0  0.115409  0.127225  0  1.003624  0
H  H28  1  0.84898284  0.03013318  0.25752530  1  0.125457  0  0.105967  0.108589  0  1.020326  0
H  H29  1  0.15101225  0.03013243  0.24247743  1  0.125422  0  0.105965  0.108617  0  1.020312  0
H  H30  1  0.15101866  0.96986904  0.74247238  1  0.125484  0  0.105959  0.108647  0  1.020382  0
H  H31  1  0.84898310  0.96987168  0.75752238  1  0.125449  0  0.105947  0.108621  0  1.020335  0
H  H32  1  0.78135989  0.88432311  0.22799299  1  0.071719  0  0.101681  0.099058  0  1.033175  0
H  H33  1  0.21863948  0.88432476  0.27200494  1  0.071754  0  0.101679  0.099083  0  1.033166  0
H  H34  1  0.21864397  0.11567723  0.77200726  1  0.071908  0  0.101676  0.099117  0  1.033091  0
H  H35  1  0.78136132  0.11568060  0.72799702  1  0.071985  0  0.101704  0.099083  0  1.03316  0
H  H36  1  0.79066888  0.15228447  0.29073002  1  0.114343  0  0.116828  0.088612  0  1.027459  0
H  H37  1  0.20932684  0.15228831  0.20927358  1  0.11425  0  0.116825  0.088632  0  1.027532  0
H  H38  1  0.20933027  0.84772089  0.70926637  1  0.114331  0  0.116807  0.088587  0  1.027445  0
H  H39  1  0.79067000  0.84771139  0.79072345  1  0.114398  0  0.116817  0.088612  0  1.027505  0
H  H40  1  0.61948927  0.12502188  0.31170533  1  0.110298  0  0.113754  0.126597  0  0.98954  0
H  H41  1  0.38050249  0.12502464  0.18829093  1  0.110514  0  0.113729  0.12661  0  0.989629  0
H  H42  1  0.38051062  0.87497908  0.68828872  1  0.110651  0  0.113749  0.126629  0  0.989514  0
H  H43  1  0.61948800  0.87497570  0.81169669  1  0.110346  0  0.113743  0.126599  0  0.989641  0
H  H44  1  0.64635253  0.37046085  0.43631673  1  0.131004  0  0.111903  0.118311  0  1.027003  0
H  H45  1  0.35363895  0.37046229  0.06368019  1  0.131047  0  0.11192  0.118361  0  1.027005  0
H  H46  1  0.35364902  0.62953885  0.56368416  1  0.130996  0  0.111874  0.118304  0  1.027009  0
H  H47  1  0.64634690  0.62953426  0.93630678  1  0.131042  0  0.111897  0.118334  0  1.027042  0
H  H48  1  0.81708209  0.38625354  0.40982840  1  0.106675  0  0.122977  0.099526  0  1.001983  0
H  H49  1  0.18291099  0.38625667  0.09017271  1  0.106516  0  0.122964  0.099542  0  1.001971  0
H  H50  1  0.18291558  0.61374679  0.59017141  1  0.106609  0  0.122987  0.099561  0  1.002018  0
H  H51  1  0.81708119  0.61374492  0.90982303  1  0.106617  0  0.122962  0.099471  0  1.002063  0
H  H52  1  0.51944388  0.09850507  0.40033642  1  0.163875  0  0.104927  0.106618  0  1.077155  0
H  H53  1  0.48054558  0.09850828  0.09965869  1  0.163742  0  0.104919  0.106547  0  1.07736  0
H  H54  1  0.48055762  0.90149527  0.59966127  1  0.163877  0  0.104942  0.106589  0  1.077203  0
H  H55  1  0.51944887  0.90149205  0.90033385  1  0.163734  0  0.104916  0.106606  0  1.077313  0
H  H56  1  0.34597751  0.09181373  0.41764643  1  0.125368  0  0.122533  0.097151  0  0.983715  0
H  H57  1  0.65400893  0.09180768  0.08235234  1  0.125118  0  0.122543  0.097195  0  0.983585  0
H  H58  1  0.65402402  0.90818660  0.58235253  1  0.125338  0  0.122529  0.097107  0  0.983723  0
H  H59  1  0.34598715  0.90819014  0.91764512  1  0.125549  0  0.122539  0.097176  0  0.983673  0
H  H60  1  0.30392908  0.35010662  0.38660434  1  0.147183  0  0.120678  0.099666  0  1.023195  0
H  H61  1  0.69606865  0.35010421  0.11339505  1  0.146896  0  0.120668  0.099647  0  1.023335  0
H  H62  1  0.69607321  0.64989434  0.61339420  1  0.147192  0  0.120677  0.099654  0  1.023196  0
H  H63  1  0.30392827  0.64989297  0.88660647  1  0.1468  0  0.120657  0.099644  0  1.023232  0
H  H64  1  0.47956955  0.37022574  0.37400375  1  0.15556  0  0.10648  0.110052  0  1.074594  0
H  H65  1  0.52042730  0.37022885  0.12599083  1  0.155357  0  0.106494  0.110104  0  1.074543  0
H  H66  1  0.52043192  0.62977397  0.62599201  1  0.15555  0  0.106485  0.110057  0  1.074621  0
H  H67  1  0.47956794  0.62977400  0.87400257  1  0.155561  0  0.106518  0.110121  0  1.074561  0
H  H68  1  0.64694637  0.66463637  0.17330105  1  0.065101  0  0.098578  0.101955  0  1.049974  0
H  H69  1  0.35305650  0.66463720  0.32670464  1  0.065176  0  0.098577  0.102008  0  1.04993  0
H  H70  1  0.35305116  0.33535893  0.82669044  1  0.064725  0  0.098573  0.101982  0  1.049986  0
H  H71  1  0.64694590  0.33535432  0.67330031  1  0.064724  0  0.098571  0.101921  0  1.049952  0
H  H72  1  0.63275327  0.51019857  0.16099175  1  0.093204  0  0.109171  0.079174  0  1.004844  0
H  H73  1  0.36724742  0.51020061  0.33901088  1  0.093257  0  0.109187  0.079215  0  1.004831  0
H  H74  1  0.36723967  0.48979673  0.83900293  1  0.093132  0  0.109185  0.079284  0  1.004866  0
H  H75  1  0.63275722  0.48979155  0.66098959  1  0.093255  0  0.109172  0.07923  0  1.004835  0
H  H76  1  0.31096822  0.51940883  0.08108881  1  0.068568  0  0.109225  0.074488  0  0.992559  0
H  H77  1  0.68903313  0.51940749  0.41890758  1  0.068566  0  0.10923  0.074442  0  0.992575  0
H  H78  1  0.68902557  0.48059276  0.91891057  1  0.068695  0  0.109241  0.074502  0  0.992474  0
H  H79  1  0.31097446  0.48059096  0.58108413  1  0.068708  0  0.109242  0.074458  0  0.992502  0
H  H80  1  0.31052720  0.67469823  0.08551929  1  0.118033  0  0.102543  0.112756  0  1.053601  0
H  H81  1  0.68947715  0.67469691  0.41448293  1  0.117987  0  0.102539  0.112785  0  1.053607  0
H  H82  1  0.68947123  0.32530336  0.91448010  1  0.118095  0  0.102565  0.112811  0  1.053567  0
H  H83  1  0.31052443  0.32530216  0.58551924  1  0.118018  0  0.102549  0.112748  0  1.053581  0
H  H84  1  0.32943911  0.79663565  0.14221269  1  0.113009  0  0.106188  0.120112  0  1.019689  0
H  H85  1  0.67056819  0.79663458  0.35778977  1  0.112948  0  0.106198  0.120152  0  1.019674  0
H  H86  1  0.67056398  0.20336532  0.85778735  1  0.11297  0  0.106198  0.120088  0  1.01965  0
H  H87  1  0.32943331  0.20336197  0.64220792  1  0.112968  0  0.106186  0.120097  0  1.019692  0
H  H88  1  0.33870331  0.95151941  0.13601893  1  0.114376  0  0.107091  0.077105  0  1.013569  0
H  H89  1  0.66130142  0.95151769  0.36398016  1  0.114298  0  0.107163  0.07715  0  1.013589  0
H  H90  1  0.66129981  0.04848092  0.86398303  1  0.114322  0  0.107163  0.077115  0  1.013633  0
H  H91  1  0.33870009  0.04847950  0.63601752  1  0.114272  0  0.107142  0.077072  0  1.013589  0
H  H92  1  0.63181497  0.94380626  0.11113305  1  0.069066  0  0.106566  0.073807  0  1.007399  0
H  H93  1  0.36818739  0.94380806  0.38886223  1  0.068911  0  0.10656  0.073823  0  1.007369  0
H  H94  1  0.36818258  0.05619156  0.88885971  1  0.068833  0  0.10654  0.073771  0  1.007424  0
H  H95  1  0.63181490  0.05618787  0.61113631  1  0.068804  0  0.106573  0.073792  0  1.007426  0
H  H96  1  0.63534857  0.78876842  0.11479806  1  0.052321  0  0.104622  0.112735  0  1.01583  0
H  H97  1  0.36465482  0.78876960  0.38520144  1  0.052406  0  0.104587  0.112725  0  1.01575  0
H  H98  1  0.36465050  0.21123066  0.88519322  1  0.052395  0  0.104561  0.11265  0  1.015857  0
H  H99  1  0.63534981  0.21122884  0.61479839  1  0.052268  0  0.104562  0.112642  0  1.015802  0
C  C100  1  0.86885505  0.47317231  0.24864887  1  1.6  0  0.206963  0.573006  0  4.208965  0
C  C101  1  0.13114883  0.47317087  0.25135674  1  1.600101  0  0.20702  0.573066  0  4.208875  0
C  C102  1  0.13114892  0.52682803  0.75135779  1  1.599752  0  0.206989  0.573083  0  4.208913  0
C  C103  1  0.86885897  0.52683071  0.74864715  1  1.599559  0  0.207025  0.573135  0  4.208787  0
C  C104  1  0.86749263  0.56609572  0.26625742  1  -0.084513  0  -0.015959  -0.030375  0  3.975705  0
C  C105  1  0.13251809  0.56609437  0.23374772  1  -0.084272  0  -0.015938  -0.030481  0  3.975929  0
C  C106  1  0.13251139  0.43390587  0.73375181  1  -0.08433  0  -0.015985  -0.030394  0  3.975739  0
C  C107  1  0.86749122  0.43390910  0.76625468  1  -0.084696  0  -0.015999  -0.030582  0  3.975887  0
C  C108  1  0.89142721  0.59439451  0.35527083  1  0.046852  0  -0.07664  -0.109158  0  3.945541  0
C  C109  1  0.10858578  0.59439482  0.14473353  1  0.046905  0  -0.076593  -0.109002  0  3.945463  0
C  C110  1  0.10857210  0.40560457  0.64473518  1  0.047103  0  -0.076636  -0.109297  0  3.945453  0
C  C111  1  0.89141965  0.40560865  0.85526780  1  0.047027  0  -0.076535  -0.108865  0  3.945401  0
C  C112  1  0.89681114  0.68008892  0.37451897  1  -0.050527  0  -0.01416  -0.07278  0  3.96285  0
C  C113  1  0.10319467  0.68008807  0.12547853  1  -0.050805  0  -0.014264  -0.072909  0  3.962917  0
C  C114  1  0.10319127  0.31991015  0.62548662  1  -0.051107  0  -0.014159  -0.072594  0  3.962937  0
C  C115  1  0.89680920  0.31991289  0.87452236  1  -0.050674  0  -0.014223  -0.072888  0  3.962926  0
C  C116  1  0.91173745  0.70736252  0.46948534  1  1.602606  0  0.219947  0.598683  0  4.188545  0
C  C117  1  0.08826840  0.70736463  0.03051650  1  1.602684  0  0.21988  0.598647  0  4.188662  0
C  C118  1  0.08826262  0.29264095  0.53051960  1  1.60226  0  0.219895  0.598577  0  4.188761  0
C  C119  1  0.91173242  0.29264199  0.96948674  1  1.602754  0  0.21995  0.598695  0  4.188735  0
C  C120  1  0.88473229  0.73955438  0.30510410  1  -0.019302  0  -0.003178  0.043442  0  3.969871  0
C  C121  1  0.11527347  0.73955384  0.19489502  1  -0.019114  0  -0.003202  0.043334  0  3.969894  0
C  C122  1  0.11527163  0.26044343  0.69489936  1  -0.018728  0  -0.003186  0.043448  0  3.969874  0
C  C123  1  0.88473198  0.26044523  0.80510759  1  -0.019205  0  -0.003217  0.0434  0  3.969928  0
C  C124  1  0.85716063  0.71082855  0.21554962  1  -0.056485  0  -0.091446  -0.137438  0  3.985973  0
C  C125  1  0.14283589  0.71082823  0.28444962  1  -0.05685  0  -0.091475  -0.137463  0  3.986008  0
C  C126  1  0.14284178  0.28917178  0.78445597  1  -0.05653  0  -0.091537  -0.137706  0  3.985986  0
C  C127  1  0.85716493  0.28917273  0.71555362  1  -0.056828  0  -0.091441  -0.137502  0  3.986007  0
C  C128  1  0.84724842  0.62496558  0.19610631  1  -0.052886  0  -0.081692  -0.087667  0  3.974471  0
C  C129  1  0.15275446  0.62496831  0.30389702  1  -0.053005  0  -0.081665  -0.087651  0  3.974621  0
C  C130  1  0.15275478  0.37503224  0.80390077  1  -0.052989  0  -0.081628  -0.087395  0  3.974365  0
C  C131  1  0.84725180  0.37503579  0.69610709  1  -0.052969  0  -0.081694  -0.087568  0  3.974391  0
C  C132  1  0.91527320  0.82833688  0.32679361  1  0.102072  0  0.006015  0.100619  0  3.975462  0
C  C133  1  0.08472553  0.82833768  0.17320824  1  0.102336  0  0.006028  0.100718  0  3.975348  0
C  C134  1  0.08472615  0.17166408  0.67321432  1  0.102429  0  0.005988  0.100538  0  3.975551  0
C  C135  1  0.91527606  0.17166391  0.82679457  1  0.102316  0  0.006052  0.100706  0  3.975502  0
C  C136  1  0.01201194  0.84545805  0.39227683  1  -0.056262  0  -0.077049  -0.17324  0  3.925027  0
C  C137  1  0.98798598  0.84545895  0.10772407  1  -0.056616  0  -0.077032  -0.173206  0  3.925086  0
C  C138  1  0.98798740  0.15454605  0.60773046  1  -0.056616  0  -0.076962  -0.172935  0  3.924742  0
C  C139  1  0.01201095  0.15454202  0.89227809  1  -0.056482  0  -0.076946  -0.173085  0  3.925041  0
C  C140  1  0.04910569  0.92743359  0.40644208  1  0.179686  0  0.084164  0.062289  0  3.928027  0
C  C141  1  0.95089365  0.92743453  0.09355691  1  0.179064  0  0.084171  0.062312  0  3.928033  0
C  C142  1  0.95089357  0.07256863  0.59356009  1  0.179448  0  0.084168  0.062136  0  3.928206  0
C  C143  1  0.04910637  0.07256391  0.90644483  1  0.179429  0  0.084115  0.06229  0  3.927945  0
C  C144  1  0.99169557  0.99597728  0.35925271  1  0.041796  0  -0.007286  -0.076665  0  3.944269  0
C  C145  1  0.00830065  0.99597694  0.14074956  1  0.041662  0  -0.007345  -0.076675  0  3.944357  0
C  C146  1  0.00830207  0.00402368  0.64074519  1  0.042079  0  -0.00731  -0.076593  0  3.944308  0
C  C147  1  0.99169702  0.00402339  0.85925026  1  0.041452  0  -0.007299  -0.076708  0  3.944347  0
C  C148  1  0.03216088  0.08445837  0.36584991  1  1.587572  0  0.208533  0.587793  0  4.197582  0
C  C149  1  0.96783260  0.08445662  0.13415339  1  1.587417  0  0.208392  0.587526  0  4.197748  0
C  C150  1  0.96783678  0.91554385  0.63414990  1  1.587434  0  0.208431  0.58761  0  4.197659  0
C  C151  1  0.03216271  0.91554434  0.86584449  1  1.587544  0  0.208449  0.587611  0  4.19779  0
C  C152  1  0.89367736  0.97807159  0.29652430  1  0.035703  0  -0.074992  -0.063339  0  3.960135  0
C  C153  1  0.10631891  0.97807163  0.20347998  1  0.035997  0  -0.074995  -0.063442  0  3.960148  0
C  C154  1  0.10632263  0.02192749  0.70347552  1  0.035818  0  -0.075015  -0.063473  0  3.960059  0
C  C155  1  0.89367883  0.02192807  0.79652432  1  0.035757  0  -0.075041  -0.063394  0  3.960098  0
C  C156  1  0.85652550  0.89619732  0.27933236  1  -0.104474  0  -0.080108  -0.111735  0  3.926616  0
C  C157  1  0.14347388  0.89619730  0.22066679  1  -0.104601  0  -0.080068  -0.111712  0  3.926693  0
C  C158  1  0.14347910  0.10380490  0.72066555  1  -0.104894  0  -0.080058  -0.111731  0  3.926515  0
C  C159  1  0.85652457  0.10380555  0.77933324  1  -0.104789  0  -0.080104  -0.111796  0  3.926452  0
C  C160  1  0.75463348  0.19890430  0.32156630  1  0.488642  0  0.047752  0.100338  0  3.945797  0
C  C161  1  0.24535988  0.19890704  0.17843770  1  0.48849  0  0.047796  0.100407  0  3.945537  0
C  C162  1  0.24536023  0.80109729  0.67842795  1  0.48867  0  0.047803  0.100445  0  3.945742  0
C  C163  1  0.75463702  0.80109392  0.82156254  1  0.488501  0  0.047757  0.100262  0  3.946026  0
C  C164  1  0.66024509  0.18404122  0.33465569  1  -0.022576  0  -0.07809  -0.165525  0  3.936824  0
C  C165  1  0.33974816  0.18404218  0.16534070  1  -0.022538  0  -0.078075  -0.165605  0  3.936885  0
C  C166  1  0.33975250  0.81596163  0.66533900  1  -0.022927  0  -0.078073  -0.165523  0  3.936854  0
C  C167  1  0.66024463  0.81595627  0.83464501  1  -0.022564  0  -0.078081  -0.165527  0  3.937117  0
C  C168  1  0.61786640  0.24626996  0.37528498  1  0.009303  0  0.014891  0.110325  0  3.96876  0
C  C169  1  0.38212128  0.24627176  0.12470701  1  0.009818  0  0.014958  0.110473  0  3.968912  0
C  C170  1  0.38213042  0.75373225  0.62471077  1  0.009794  0  0.01487  0.110287  0  3.968911  0
C  C171  1  0.61786834  0.75372606  0.87527399  1  0.010036  0  0.014926  0.110552  0  3.968779  0
C  C172  1  0.67541240  0.32034163  0.40374046  1  -0.032351  0  -0.078118  -0.165874  0  3.921013  0
C  C173  1  0.32457524  0.32034290  0.09625436  1  -0.033284  0  -0.078275  -0.166183  0  3.920851  0
C  C174  1  0.32458675  0.67965933  0.59625530  1  -0.033009  0  -0.078125  -0.165936  0  3.920917  0
C  C175  1  0.67541610  0.67965554  0.90373732  1  -0.032973  0  -0.078161  -0.166103  0  3.920878  0
C  C176  1  0.76965646  0.32992164  0.38899995  1  0.458076  0  0.049512  0.096491  0  3.93396  0
C  C177  1  0.23032887  0.32992218  0.11099610  1  0.458809  0  0.049588  0.09663  0  3.933589  0
C  C178  1  0.23033727  0.67007617  0.61099558  1  0.458386  0  0.049501  0.096451  0  3.933984  0
C  C179  1  0.76966169  0.67007564  0.88899473  1  0.458158  0  0.049523  0.096579  0  3.933726  0
C  C180  1  0.51520298  0.23610442  0.38602401  1  -0.07391  0  0.016319  0.107764  0  3.95479  0
C  C181  1  0.48478779  0.23610380  0.11396698  1  -0.072912  0  0.016268  0.107545  0  3.954972  0
C  C182  1  0.48479694  0.76389466  0.61397132  1  -0.073514  0  0.016253  0.107592  0  3.954911  0
C  C183  1  0.51520426  0.76389591  0.88602107  1  -0.073789  0  0.016366  0.107691  0  3.95489  0
C  C184  1  0.47626673  0.15684142  0.39781987  1  -0.002011  0  -0.07869  -0.166136  0  3.937259  0
C  C185  1  0.52372330  0.15684087  0.10216747  1  -0.00197  0  -0.07873  -0.165932  0  3.937432  0
C  C186  1  0.52373324  0.84315828  0.60217867  1  -0.002119  0  -0.078694  -0.166017  0  3.937485  0
C  C187  1  0.47627275  0.84316009  0.89782871  1  -0.00186  0  -0.078755  -0.166141  0  3.937452  0
C  C188  1  0.37860151  0.15189228  0.40690362  1  0.431083  0  0.049879  0.093934  0  3.945085  0
C  C189  1  0.62138938  0.15189182  0.09308844  1  0.431563  0  0.049834  0.093877  0  3.945117  0
C  C190  1  0.62139853  0.84810931  0.59309940  1  0.431391  0  0.049881  0.09399  0  3.945209  0
C  C191  1  0.37860432  0.84810726  0.90690581  1  0.43116  0  0.049848  0.093863  0  3.94523  0
C  C192  1  0.35551734  0.29652628  0.39132456  1  0.382769  0  0.048698  0.098549  0  3.921025  0
C  C193  1  0.64447668  0.29652576  0.10868043  1  0.38271  0  0.0488  0.098657  0  3.921186  0
C  C194  1  0.64448420  0.70347657  0.60867569  1  0.382763  0  0.048745  0.098636  0  3.920945  0
C  C195  1  0.35552024  0.70347080  0.89132109  1  0.382652  0  0.048756  0.098642  0  3.920956  0
C  C196  1  0.45299257  0.30701824  0.38324065  1  0.030719  0  -0.07654  -0.154587  0  3.897125  0
C  C197  1  0.54700055  0.30701826  0.11675703  1  0.030523  0  -0.076545  -0.154561  0  3.89727  0
C  C198  1  0.54701052  0.69298146  0.61675939  1  0.030429  0  -0.076543  -0.154546  0  3.897144  0
C  C199  1  0.45299473  0.69298333  0.88323893  1  0.031078  0  -0.07657  -0.154658  0  3.897524  0
C  C200  1  0.57008047  0.63583427  0.15093390  1  -0.002647  0  -0.088059  -0.174959  0  3.939805  0
C  C201  1  0.42992318  0.63583314  0.34907023  1  -0.002521  0  -0.088024  -0.174981  0  3.9398  0
C  C202  1  0.42991632  0.36416417  0.84905994  1  -0.002003  0  -0.088079  -0.175039  0  3.939674  0
C  C203  1  0.57008153  0.36416153  0.65093408  1  -0.00239  0  -0.088056  -0.174927  0  3.939688  0
C  C204  1  0.56226977  0.54847377  0.14513781  1  0.466005  0  0.040964  0.096174  0  3.982811  0
C  C205  1  0.43773318  0.54847136  0.35486463  1  0.465988  0  0.040965  0.096175  0  3.982946  0
C  C206  1  0.43772552  0.45152656  0.85485880  1  0.465999  0  0.040918  0.096026  0  3.9828  0
C  C207  1  0.56227068  0.45152268  0.64513562  1  0.465987  0  0.040973  0.096108  0  3.982934  0
C  C208  1  0.38468741  0.55365627  0.10094510  1  0.507557  0  0.03957  0.090801  0  4.008354  0
C  C209  1  0.61531476  0.55365247  0.39905710  1  0.507466  0  0.039571  0.090943  0  4.008156  0
C  C210  1  0.61530721  0.44634595  0.89905770  1  0.507554  0  0.039557  0.090769  0  4.008169  0
C  C211  1  0.38469223  0.44634346  0.60094466  1  0.507589  0  0.039625  0.0909  0  4.008263  0
C  C212  1  0.38435530  0.64114822  0.10415061  1  -0.014784  0  -0.088901  -0.179003  0  3.943091  0
C  C213  1  0.61564833  0.64114759  0.39585221  1  -0.014622  0  -0.088983  -0.179222  0  3.943224  0
C  C214  1  0.61564159  0.35885148  0.89584899  1  -0.014532  0  -0.088947  -0.179041  0  3.942923  0
C  C215  1  0.38435630  0.35884771  0.60414762  1  -0.014658  0  -0.088933  -0.178998  0  3.943141  0
C  C216  1  0.47933186  0.68465045  0.12924444  1  -0.070873  0  0.005099  0.096682  0  3.979527  0
C  C217  1  0.52067491  0.68464863  0.37076479  1  -0.070885  0  0.005132  0.096736  0  3.979637  0
C  C218  1  0.52066653  0.31534862  0.87075239  1  -0.071385  0  0.005095  0.096654  0  3.979379  0
C  C219  1  0.47932983  0.31534855  0.62924145  1  -0.0709  0  0.005069  0.09664  0  3.979718  0
C  C220  1  0.48287756  0.77763303  0.13048330  1  0.00807  0  0.006123  0.097948  0  3.974681  0
C  C221  1  0.51712745  0.77763498  0.36951989  1  0.008465  0  0.006116  0.097857  0  3.974613  0
C  C222  1  0.51712705  0.22236290  0.86951525  1  0.008122  0  0.006166  0.097877  0  3.974493  0
C  C223  1  0.48287336  0.22236346  0.63048270  1  0.007906  0  0.006135  0.097852  0  3.974471  0
C  C224  1  0.39923079  0.82603090  0.13658637  1  -0.036856  0  -0.083919  -0.169039  0  3.92524  0
C  C225  1  0.60077330  0.82603104  0.36341123  1  -0.036959  0  -0.083873  -0.169029  0  3.92525  0
C  C226  1  0.60077150  0.17396692  0.86341217  1  -0.036664  0  -0.083865  -0.168916  0  3.925289  0
C  C227  1  0.39922905  0.17396678  0.63659116  1  -0.036576  0  -0.083867  -0.168976  0  3.925171  0
C  C228  1  0.40437959  0.91342476  0.13342710  1  0.463223  0  0.038511  0.08952  0  3.99509  0
C  C229  1  0.59562599  0.91342425  0.36657369  1  0.463353  0  0.038375  0.08948  0  3.99518  0
C  C230  1  0.59562427  0.08657306  0.86657252  1  0.463266  0  0.038385  0.089536  0  3.995165  0
C  C231  1  0.40437553  0.08657105  0.63342528  1  0.463409  0  0.038425  0.089631  0  3.995008  0
C  C232  1  0.56636832  0.90930592  0.11980091  1  0.457018  0  0.03586  0.083034  0  4.018842  0
C  C233  1  0.43363488  0.90930779  0.38019604  1  0.457191  0  0.035807  0.082857  0  4.018939  0
C  C234  1  0.43363082  0.09069064  0.88019421  1  0.457207  0  0.035848  0.082939  0  4.018832  0
C  C235  1  0.56637055  0.09069128  0.61980528  1  0.457188  0  0.035854  0.083016  0  4.018789  0
C  C236  1  0.56853202  0.82173345  0.12225420  1  -0.018872  0  -0.089455  -0.183201  0  3.957772  0
C  C237  1  0.43147133  0.82173659  0.37774576  1  -0.01882  0  -0.089368  -0.183031  0  3.957627  0
C  C238  1  0.43146713  0.17826437  0.87774155  1  -0.018815  0  -0.089387  -0.182983  0  3.957448  0
C  C239  1  0.56853494  0.17826248  0.62225962  1  -0.018726  0  -0.089382  -0.18301  0  3.957441  0
N  N240  1  0.15394899  0.93830084  0.47289146  1  0.388774  0  0.062601  0.529323  0  4.189915  0
N  N241  1  0.84605108  0.93830080  0.02710577  1  0.389074  0  0.06249  0.529306  0  4.190117  0
N  N242  1  0.84605103  0.06170200  0.52711028  1  0.388662  0  0.062512  0.529244  0  4.190335  0
N  N243  1  0.15394817  0.06169325  0.97289576  1  0.39015  0  0.062376  0.528985  0  4.190077  0
N  N244  1  0.80834750  0.27070551  0.34748838  1  -1.231709  0  -0.31927  -0.227084  0  3.527807  0
N  N245  1  0.19164345  0.27071023  0.15251589  1  -1.231891  0  -0.319271  -0.227108  0  3.527655  0
N  N246  1  0.19164935  0.72929483  0.65250865  1  -1.23165  0  -0.319223  -0.227031  0  3.528018  0
N  N247  1  0.80835189  0.72929262  0.84748392  1  -1.231842  0  -0.319247  -0.22698  0  3.527753  0
N  N248  1  0.31886747  0.22020482  0.40346111  1  -1.259525  0  -0.336915  -0.255855  0  3.614536  0
N  N249  1  0.68112338  0.22020311  0.09653316  1  -1.259858  0  -0.336935  -0.256009  0  3.614583  0
N  N250  1  0.68113249  0.77979803  0.59653678  1  -1.259803  0  -0.336912  -0.255907  0  3.614506  0
N  N251  1  0.31887427  0.77979596  0.90346537  1  -1.259833  0  -0.336909  -0.255895  0  3.614501  0
N  N252  1  0.47134035  0.50682816  0.12034580  1  -1.226228  0  -0.320794  -0.275265  0  3.352395  0
N  N253  1  0.52865952  0.50682567  0.37965343  1  -1.226226  0  -0.320829  -0.275343  0  3.352363  0
N  N254  1  0.52865423  0.49317343  0.87965443  1  -1.226264  0  -0.320757  -0.275193  0  3.352413  0
N  N255  1  0.47134430  0.49316837  0.62034362  1  -1.226077  0  -0.320853  -0.275309  0  3.352631  0
N  N256  1  0.48618905  0.95562076  0.12504526  1  -1.19837  0  -0.322798  -0.272852  0  3.341497  0
N  N257  1  0.51381409  0.95562206  0.37495210  1  -1.198384  0  -0.322735  -0.272749  0  3.341388  0
N  N258  1  0.51381169  0.04437643  0.87495350  1  -1.198421  0  -0.322771  -0.272834  0  3.341416  0
N  N259  1  0.48618821  0.04437449  0.62504708  1  -1.198477  0  -0.322793  -0.272915  0  3.341351  0
O  O260  1  0.91803862  0.42901328  0.31786415  1  -1.182384  0  -0.323372  -0.560046  0  2.324126  0
O  O261  1  0.08196452  0.42901467  0.18214019  1  -1.182367  0  -0.32335  -0.560021  0  2.32415  0
O  O262  1  0.08196847  0.57098517  0.68214337  1  -1.18217  0  -0.323338  -0.560055  0  2.324256  0
O  O263  1  0.91804090  0.57098755  0.81786050  1  -1.182489  0  -0.323407  -0.560096  0  2.324192  0
O  O264  1  0.82385555  0.44600935  0.16912599  1  -1.190787  0  -0.328258  -0.555596  0  2.15552  0
O  O265  1  0.17614683  0.44600882  0.33088061  1  -1.191  0  -0.328304  -0.555587  0  2.155209  0
O  O266  1  0.17614686  0.55399224  0.83087960  1  -1.190757  0  -0.328315  -0.555664  0  2.15528  0
O  O267  1  0.82385862  0.55399339  0.66912200  1  -1.190386  0  -0.328265  -0.555604  0  2.155296  0
O  O268  1  0.83849122  0.75428177  0.47791476  1  -1.172614  0  -0.318765  -0.553693  0  2.350761  0
O  O269  1  0.16151295  0.75428395  0.02208257  1  -1.172728  0  -0.31872  -0.553671  0  2.350838  0
O  O270  1  0.16151354  0.24572800  0.52209276  1  -1.172472  0  -0.318711  -0.553678  0  2.350684  0
O  O271  1  0.83848549  0.24572204  0.97791682  1  -1.172641  0  -0.318775  -0.553726  0  2.350833  0
O  O272  1  0.99056983  0.68097097  0.53128742  1  -1.182291  0  -0.299227  -0.534161  0  2.334763  0
O  O273  1  0.00943241  0.68097349  0.96871523  1  -1.182146  0  -0.299186  -0.53412  0  2.334647  0
O  O274  1  0.00942872  0.31902747  0.46871902  1  -1.182102  0  -0.299236  -0.534137  0  2.334706  0
O  O275  1  0.99056608  0.31902936  0.03128736  1  -1.182278  0  -0.299246  -0.534156  0  2.334807  0
O  O276  1  0.13133462  0.09223264  0.38249453  1  -1.151145  0  -0.33254  -0.563273  0  2.323141  0
O  O277  1  0.86865975  0.09222714  0.11751600  1  -1.151256  0  -0.332499  -0.563182  0  2.323117  0
O  O278  1  0.86866475  0.90777273  0.61751404  1  -1.151094  0  -0.332468  -0.56319  0  2.323083  0
O  O279  1  0.13133080  0.90777193  0.88247483  1  -1.15116  0  -0.3325  -0.563218  0  2.323311  0
O  O280  1  0.96899992  0.14430505  0.35233447  1  -1.187469  0  -0.30087  -0.545658  0  2.227908  0
O  O281  1  0.03099746  0.14430407  0.14767473  1  -1.187413  0  -0.300707  -0.545437  0  2.227809  0
O  O282  1  0.03100163  0.85569654  0.64766578  1  -1.18741  0  -0.300829  -0.545576  0  2.227877  0
O  O283  1  0.96899724  0.85569941  0.85233255  1  -1.187522  0  -0.300785  -0.54552  0  2.227824  0
O  O284  1  0.16563662  0.98886089  0.53521788  1  -0.43963  0  -0.104342  -0.305967  0  1.986049  0
O  O285  1  0.83436677  0.98886129  0.96478362  1  -0.439656  0  -0.104284  -0.305966  0  1.986368  0
O  O286  1  0.83436267  0.01114196  0.46478685  1  -0.439511  0  -0.104253  -0.305861  0  1.986305  0
O  O287  1  0.16563713  0.01113527  0.03521856  1  -0.439883  0  -0.104277  -0.305849  0  1.986204  0
O  O288  1  0.22423939  0.89359986  0.46249197  1  -0.482457  0  -0.134984  -0.352454  0  1.925757  0
O  O289  1  0.77575527  0.89360037  0.03750270  1  -0.482503  0  -0.134947  -0.352455  0  1.925603  0
O  O290  1  0.77575989  0.10640361  0.53751211  1  -0.482487  0  -0.134995  -0.352456  0  1.925708  0
O  O291  1  0.22424157  0.10639494  0.96249434  1  -0.483421  0  -0.134863  -0.3523  0  1.925659  0
O  O292  1  0.90491989  0.29443883  0.18474320  1  -1.266095  0  -0.573659  -0.853129  0  2.348534  0
O  O293  1  0.09507255  0.29444274  0.31525945  1  -1.266913  0  -0.573703  -0.853096  0  2.348565  0
O  O294  1  0.09508165  0.70556025  0.81525705  1  -1.266103  0  -0.573643  -0.853118  0  2.348494  0
O  O295  1  0.90492984  0.70555885  0.68474485  1  -1.267028  0  -0.573676  -0.853105  0  2.348592  0
