# generated using pymatgen
data_CuH10C4IN2
_symmetry_space_group_name_H-M   'P 1'
_cell_length_a   6.64667796
_cell_length_b   7.87490927
_cell_length_c   7.87492299
_cell_angle_alpha   101.09135761
_cell_angle_beta   108.77496954
_cell_angle_gamma   108.77496083
_symmetry_Int_Tables_number   1
_chemical_formula_structural   CuH10C4IN2
_chemical_formula_sum   'Cu2 H20 C8 I2 N4'
_cell_volume   348.77123947
_cell_formula_units_Z   2
loop_
 _symmetry_equiv_pos_site_id
 _symmetry_equiv_pos_as_xyz
  1  'x, y, z'
loop_
 _atom_site_type_symbol
 _atom_site_label
 _atom_site_symmetry_multiplicity
 _atom_site_fract_x
 _atom_site_fract_y
 _atom_site_fract_z
 _atom_site_occupancy
 _atom_site_pbe_bader_spin_density
 _atom_site_pbe_cm5_charge
 _atom_site_pbe_ddec_charge
 _atom_site_pbe_ddec_spin_density
 _atom_site_pbe_ddec_sum_bond_order
 _atom_site_pbe_magmom
Cu  Cu0  1  0.27625916  0.91373864  0.91373929  1  0  0.293767  0.17452  0  2.498608  0
Cu  Cu1  1  0.72374749  0.08627391  0.08626456  1  0  0.293882  0.174662  0  2.499061  0
H  H2  1  0.92973333  0.72146023  0.97618450  1  0  0.265363  0.21733  0  1.000962  0
H  H3  1  0.07027041  0.02378956  0.27852843  1  0  0.265277  0.217211  0  1.001022  0
H  H4  1  0.07029228  0.27857080  0.02383040  1  0  0.26528  0.217163  0  1.001037  0
H  H5  1  0.92971929  0.97617721  0.72144355  1  0  0.265242  0.217162  0  1.000999  0
H  H6  1  0.26259401  0.79687466  0.26228218  1  0  0.091496  0.069524  0  1.024792  0
H  H7  1  0.73736327  0.73771712  0.20311279  1  0  0.091467  0.069584  0  1.024491  0
H  H8  1  0.73741414  0.20314095  0.73773659  1  0  0.091453  0.069497  0  1.024559  0
H  H9  1  0.26260690  0.26224247  0.79684493  1  0  0.091493  0.069507  0  1.024672  0
H  H10  1  0.33975023  0.63815302  0.13231369  1  0  0.097207  0.075546  0  1.015249  0
H  H11  1  0.66024528  0.86772548  0.36186094  1  0  0.09715  0.075492  0  1.015178  0
H  H12  1  0.66024991  0.36188115  0.86770875  1  0  0.097132  0.075563  0  1.015078  0
H  H13  1  0.33975973  0.13225259  0.63811472  1  0  0.097177  0.075545  0  1.01498  0
H  H14  1  0.09764566  0.47915192  0.78384042  1  0  0.091535  0.075018  0  1.029088  0
H  H15  1  0.90238778  0.21618634  0.52085405  1  0  0.091493  0.074924  0  1.029319  0
H  H16  1  0.90236202  0.52087543  0.21620319  1  0  0.091496  0.074887  0  1.029134  0
H  H17  1  0.09757878  0.78375085  0.47912153  1  0  0.091544  0.074979  0  1.029115  0
H  H18  1  0.84274868  0.51646056  0.68089942  1  0  0.093531  0.079075  0  1.021077  0
H  H19  1  0.15730467  0.31909018  0.48353555  1  0  0.093425  0.079003  0  1.02114  0
H  H20  1  0.15727735  0.48356195  0.31911534  1  0  0.093477  0.079119  0  1.02122  0
H  H21  1  0.84266012  0.68088388  0.51643724  1  0  0.09346  0.079003  0  1.021241  0
C  C22  1  0.19072656  0.66221440  0.14592956  1  0  -0.084928  -0.059415  0  3.900894  0
C  C23  1  0.80925297  0.85406227  0.33780843  1  0  -0.084947  -0.059571  0  3.900112  0
C  C24  1  0.80929551  0.33785607  0.85406473  1  0  -0.085055  -0.059827  0  3.899743  0
C  C25  1  0.19073764  0.14590335  0.66218137  1  0  -0.084974  -0.059644  0  3.900626  0
C  C26  1  0.95457810  0.50294440  0.81012958  1  0  -0.087463  -0.066343  0  3.90109  0
C  C27  1  0.04547306  0.18987864  0.49710397  1  0  -0.087345  -0.066174  0  3.900088  0
C  C28  1  0.04549374  0.49716796  0.18993539  1  0  -0.087372  -0.06633  0  3.89966  0
C  C29  1  0.95449227  0.81006870  0.50288452  1  0  -0.087447  -0.066305  0  3.900064  0
I  I30  1  0.53835756  0.78303268  0.78303319  1  0  -0.203477  -0.393665  0  1.794684  0
I  I31  1  0.46164952  0.21698686  0.21696441  1  0  -0.203441  -0.393597  0  1.794651  0
N  N32  1  0.06240828  0.68530102  0.96658745  1  0  -0.511816  -0.280995  0  3.541091  0
N  N33  1  0.93757179  0.03340645  0.31465695  1  0  -0.511691  -0.280973  0  3.540103  0
N  N34  1  0.93758396  0.31466827  0.03345679  1  0  -0.511698  -0.280754  0  3.538811  0
N  N35  1  0.06243288  0.96657691  0.68529415  1  0  -0.511692  -0.280722  0  3.540168  0
