# generated using pymatgen
data_TbH21(C9O2)3
_symmetry_space_group_name_H-M   'P 1'
_cell_length_a   7.56516782
_cell_length_b   13.28224417
_cell_length_c   13.28225153
_cell_angle_alpha   116.47954476
_cell_angle_beta   100.94115285
_cell_angle_gamma   100.94116449
_symmetry_Int_Tables_number   1
_chemical_formula_structural   TbH21(C9O2)3
_chemical_formula_sum   'Tb2 H42 C54 O12'
_cell_volume   1114.25352192
_cell_formula_units_Z   2
loop_
 _symmetry_equiv_pos_site_id
 _symmetry_equiv_pos_as_xyz
  1  'x, y, z'
loop_
 _atom_site_type_symbol
 _atom_site_label
 _atom_site_symmetry_multiplicity
 _atom_site_fract_x
 _atom_site_fract_y
 _atom_site_fract_z
 _atom_site_occupancy
 _atom_site_hle17_bader_spin_density
 _atom_site_hle17_ddec_charge
 _atom_site_hle17_ddec_spin_density
 _atom_site_hle17_ddec_sum_bond_order
 _atom_site_hle17_magmom
 _atom_site_hse06_10hf_bader_spin_density
 _atom_site_hse06_10hf_ddec_charge
 _atom_site_hse06_10hf_ddec_spin_density
 _atom_site_hse06_10hf_ddec_sum_bond_order
 _atom_site_hse06_10hf_magmom
 _atom_site_hse06_bader_spin_density
 _atom_site_hse06_ddec_charge
 _atom_site_hse06_ddec_spin_density
 _atom_site_hse06_ddec_sum_bond_order
 _atom_site_hse06_magmom
 _atom_site_pbe_bader_spin_density
 _atom_site_pbe_cm5_charge
 _atom_site_pbe_ddec_charge
 _atom_site_pbe_ddec_spin_density
 _atom_site_pbe_ddec_sum_bond_order
 _atom_site_pbe_magmom
Tb  Tb0  1  0.83255511  0.00004713  0.00005064  1  0  2.209897  0  1.661665  0  0  2.066846  0  2.11893  0  0  2.120304  0  2.07302  0  0  1.511538  2.024672  0  2.157595  0
Tb  Tb1  1  0.33255433  0.00004968  0.00004665  1  0  2.209873  0  1.66172  0  0  2.066801  0  2.119011  0  0  2.120272  0  2.073081  0  0  1.511533  2.024621  0  2.157683  0
H  H2  1  0.26141164  0.65233832  0.82495475  1  0  0.116529  0  0.976379  0  0  0.125378  0  1.039328  0  0  0.128771  0  1.039298  0  0  0.105839  0.122969  0  1.039571  0
H  H3  1  0.60872127  0.17260988  0.34760095  1  0  0.116797  0  0.975828  0  0  0.124854  0  1.039694  0  0  0.128283  0  1.03958  0  0  0.105037  0.122412  0  1.040018  0
H  H4  1  0.43627861  0.17514378  0.82745505  1  0  0.117651  0  0.975526  0  0  0.125876  0  1.039139  0  0  0.129255  0  1.039104  0  0  0.106156  0.12347  0  1.03938  0
H  H5  1  0.93627824  0.82745629  0.17514435  1  0  0.117624  0  0.975556  0  0  0.125867  0  1.039145  0  0  0.129246  0  1.03911  0  0  0.106153  0.123463  0  1.039385  0
H  H6  1  0.76140985  0.82495581  0.65233787  1  0  0.116528  0  0.976386  0  0  0.125377  0  1.03933  0  0  0.128773  0  1.039293  0  0  0.105844  0.122967  0  1.039577  0
H  H7  1  0.10872034  0.34760113  0.17260951  1  0  0.116797  0  0.975782  0  0  0.124852  0  1.039656  0  0  0.128281  0  1.03954  0  0  0.105041  0.12241  0  1.039982  0
H  H8  1  0.59926632  0.62200931  0.96702689  1  0  0.098551  0  0.939737  0  0  0.109611  0  1.00025  0  0  0.112045  0  0.999106  0  0  0.107634  0.107845  0  1.001076  0
H  H9  1  0.97684861  0.34497071  0.37783938  1  0  0.098134  0  0.939613  0  0  0.109541  0  1.000016  0  0  0.111925  0  0.998906  0  0  0.107533  0.107757  0  1.00091  0
H  H10  1  0.63193320  0.03294617  0.65504088  1  0  0.098451  0  0.941292  0  0  0.109423  0  1.001911  0  0  0.111892  0  1.000676  0  0  0.107716  0.107617  0  1.002852  0
H  H11  1  0.13193203  0.65504144  0.03294688  1  0  0.098455  0  0.941265  0  0  0.109431  0  1.001885  0  0  0.111901  0  1.000647  0  0  0.1077  0.107624  0  1.002826  0
H  H12  1  0.09926791  0.96702525  0.62200782  1  0  0.09855  0  0.939688  0  0  0.109592  0  1.000226  0  0  0.112026  0  0.999081  0  0  0.107632  0.107822  0  1.001064  0
H  H13  1  0.47684833  0.37783787  0.34496977  1  0  0.098129  0  0.939636  0  0  0.109533  0  1.000044  0  0  0.111918  0  0.998931  0  0  0.107523  0.10775  0  1.000937  0
H  H14  1  0.52880095  0.47467247  0.01922832  1  0  0.085877  0  1.00241  0  0  0.095173  0  1.067902  0  0  0.096551  0  1.070236  0  0  0.094656  0.094154  0  1.066359  0
H  H15  1  0.05394491  0.54448827  0.52524895  1  0  0.087811  0  1.001235  0  0  0.096817  0  1.066985  0  0  0.09815  0  1.069365  0  0  0.095819  0.095781  0  1.065454  0
H  H16  1  0.50960881  0.98084145  0.45551981  1  0  0.087399  0  1.000865  0  0  0.095961  0  1.06697  0  0  0.097346  0  1.069309  0  0  0.095918  0.094931  0  1.065438  0
H  H17  1  0.00960824  0.45551927  0.98084176  1  0  0.087386  0  1.000897  0  0  0.095953  0  1.066997  0  0  0.097339  0  1.069335  0  0  0.095914  0.094922  0  1.065464  0
H  H18  1  0.02880043  0.01922711  0.47467205  1  0  0.085894  0  1.002415  0  0  0.095174  0  1.067918  0  0  0.096551  0  1.070253  0  0  0.094655  0.094155  0  1.066375  0
H  H19  1  0.55394096  0.52524954  0.54448629  1  0  0.087819  0  1.001303  0  0  0.096817  0  1.067061  0  0  0.098156  0  1.069435  0  0  0.095817  0.095781  0  1.065529  0
H  H20  1  0.32676015  0.28539819  0.98498264  1  0  0.095717  0  0.960686  0  0  0.106094  0  1.020783  0  0  0.108376  0  1.020203  0  0  0.104633  0.104434  0  1.021281  0
H  H21  1  0.04147659  0.69946402  0.71462092  1  0  0.09637  0  0.960895  0  0  0.106223  0  1.021529  0  0  0.108526  0  1.020924  0  0  0.104648  0.10456  0  1.022037  0
H  H22  1  0.34179106  0.01510962  0.30051172  1  0  0.095061  0  0.9616  0  0  0.105266  0  1.021909  0  0  0.107538  0  1.021349  0  0  0.104399  0.103619  0  1.022389  0
H  H23  1  0.84178999  0.30051080  0.01510889  1  0  0.095052  0  0.961595  0  0  0.105257  0  1.021906  0  0  0.107529  0  1.021348  0  0  0.10439  0.10361  0  1.022387  0
H  H24  1  0.82676235  0.98498297  0.28539903  1  0  0.095716  0  0.960712  0  0  0.106087  0  1.020816  0  0  0.108366  0  1.020245  0  0  0.104621  0.104429  0  1.021313  0
H  H25  1  0.54147592  0.71461825  0.69946348  1  0  0.096375  0  0.960903  0  0  0.106228  0  1.021528  0  0  0.108528  0  1.020931  0  0  0.104662  0.104565  0  1.022036  0
H  H26  1  0.01303738  0.18008993  0.82752237  1  0  0.107162  0  0.947345  0  0  0.116452  0  1.007873  0  0  0.119219  0  1.007382  0  0  0.10637  0.114417  0  1.008359  0
H  H27  1  0.83304232  0.64732484  0.81999575  1  0  0.107139  0  0.946856  0  0  0.116384  0  1.007511  0  0  0.119094  0  1.00708  0  0  0.106439  0.114337  0  1.008027  0
H  H28  1  0.18534538  0.17246276  0.35255473  1  0  0.107497  0  0.946767  0  0  0.116699  0  1.007424  0  0  0.119379  0  1.007047  0  0  0.106871  0.114711  0  1.007839  0
H  H29  1  0.68534438  0.35255283  0.17246229  1  0  0.107453  0  0.946838  0  0  0.116655  0  1.007497  0  0  0.119334  0  1.007121  0  0  0.106855  0.114668  0  1.00791  0
H  H30  1  0.51303926  0.82752256  0.18009068  1  0  0.107172  0  0.947338  0  0  0.116464  0  1.007863  0  0  0.119232  0  1.007371  0  0  0.106381  0.114429  0  1.008348  0
H  H31  1  0.33304438  0.81999525  0.64732650  1  0  0.107156  0  0.946833  0  0  0.116401  0  1.007483  0  0  0.119111  0  1.007051  0  0  0.106431  0.114355  0  1.007998  0
H  H32  1  0.90465057  0.26745429  0.70398046  1  0  0.088225  0  0.957956  0  0  0.099773  0  1.016535  0  0  0.102014  0  1.016729  0  0  0.098236  0.098168  0  1.016448  0
H  H33  1  0.63716062  0.43649546  0.73257368  1  0  0.08796  0  0.958989  0  0  0.099634  0  1.017416  0  0  0.101859  0  1.017652  0  0  0.098807  0.098044  0  1.01731  0
H  H34  1  0.20032024  0.29598234  0.56339413  1  0  0.087393  0  0.957803  0  0  0.099606  0  1.015728  0  0  0.101823  0  1.015933  0  0  0.098575  0.098061  0  1.015539  0
H  H35  1  0.70032105  0.56339408  0.29598391  1  0  0.087397  0  0.957799  0  0  0.099629  0  1.015708  0  0  0.101843  0  1.015916  0  0  0.098572  0.098085  0  1.015514  0
H  H36  1  0.40464993  0.70398113  0.26745456  1  0  0.088236  0  0.957941  0  0  0.099815  0  1.016487  0  0  0.10208  0  1.016656  0  0  0.098245  0.098211  0  1.016401  0
H  H37  1  0.13716393  0.73257354  0.43649664  1  0  0.087994  0  0.958992  0  0  0.099676  0  1.01741  0  0  0.101899  0  1.017652  0  0  0.098839  0.098072  0  1.017321  0
H  H38  1  0.10468717  0.45716921  0.73904414  1  0  0.084932  0  0.998507  0  0  0.094453  0  1.064207  0  0  0.095787  0  1.066215  0  0  0.096923  0.093456  0  1.062914  0
H  H39  1  0.64713713  0.28186690  0.54276056  1  0  0.084555  0  1.000099  0  0  0.094536  0  1.065362  0  0  0.095926  0  1.067228  0  0  0.09687  0.093533  0  1.064074  0
H  H40  1  0.36510268  0.26085468  0.71806576  1  0  0.084282  0  1.000448  0  0  0.094034  0  1.065662  0  0  0.09542  0  1.067547  0  0  0.096475  0.09303  0  1.064399  0
H  H41  1  0.86510254  0.71806568  0.26085556  1  0  0.084288  0  1.00046  0  0  0.094038  0  1.065675  0  0  0.095419  0  1.067574  0  0  0.096467  0.093034  0  1.064412  0
H  H42  1  0.60468562  0.73904351  0.45716851  1  0  0.084929  0  0.998512  0  0  0.094453  0  1.06421  0  0  0.095792  0  1.066203  0  0  0.096913  0.093454  0  1.062921  0
H  H43  1  0.14713758  0.54275952  0.28186622  1  0  0.084538  0  1.00011  0  0  0.094517  0  1.065375  0  0  0.095907  0  1.067242  0  0  0.096867  0.093519  0  1.064083  0
C  C44  1  0.54214139  0.78378287  0.91539490  1  0  0.710028  0  3.896967  0  0  0.669759  0  4.180986  0  0  0.706827  0  4.168509  0  0  0.20479  0.644745  0  4.188094  0
C  C45  1  0.75821160  0.13163204  0.21619527  1  0  0.71225  0  3.892001  0  0  0.672013  0  4.175908  0  0  0.709066  0  4.163435  0  0  0.204966  0.647007  0  4.183028  0
C  C46  1  0.62666061  0.08466006  0.86844623  1  0  0.712671  0  3.891697  0  0  0.673063  0  4.174902  0  0  0.710113  0  4.162421  0  0  0.206214  0.648059  0  4.182014  0
C  C47  1  0.12666108  0.86844499  0.08465929  1  0  0.71273  0  3.891703  0  0  0.673128  0  4.17489  0  0  0.710172  0  4.162418  0  0  0.206255  0.648124  0  4.182001  0
C  C48  1  0.04213995  0.91539531  0.78378249  1  0  0.709974  0  3.897014  0  0  0.669697  0  4.181042  0  0  0.706764  0  4.168569  0  0  0.204753  0.644683  0  4.188152  0
C  C49  1  0.25820999  0.21619446  0.13163047  1  0  0.712217  0  3.892144  0  0  0.671968  0  4.176064  0  0  0.709027  0  4.163582  0  0  0.204944  0.646965  0  4.183186  0
C  C50  1  0.40485634  0.66960779  0.87655342  1  0  -0.224008  0  3.6601  0  0  -0.239212  0  3.914055  0  0  -0.25167  0  3.929842  0  0  -0.095306  -0.231171  0  3.903577  0
C  C51  1  0.73483934  0.20695636  0.33028727  1  0  -0.225865  0  3.657892  0  0  -0.24048  0  3.912271  0  0  -0.252926  0  3.928054  0  0  -0.094511  -0.232446  0  3.901781  0
C  C52  1  0.52810127  0.12350575  0.79313230  1  0  -0.225495  0  3.660643  0  0  -0.240796  0  3.915481  0  0  -0.253227  0  3.931223  0  0  -0.09563  -0.232746  0  3.904977  0
C  C53  1  0.02810104  0.79313274  0.12350649  1  0  -0.225498  0  3.660641  0  0  -0.240818  0  3.915481  0  0  -0.253248  0  3.931226  0  0  -0.095651  -0.232767  0  3.904978  0
C  C54  1  0.90485508  0.87655449  0.66960795  1  0  -0.223987  0  3.660098  0  0  -0.239179  0  3.914032  0  0  -0.251636  0  3.929818  0  0  -0.095281  -0.231138  0  3.903556  0
C  C55  1  0.23483797  0.33028601  0.20695461  1  0  -0.22577  0  3.657893  0  0  -0.240379  0  3.912258  0  0  -0.252826  0  3.928041  0  0  -0.094469  -0.232347  0  3.901771  0
C  C56  1  0.45395897  0.59392899  0.90996698  1  0  -0.020468  0  3.691989  0  0  -0.043307  0  3.936136  0  0  -0.037343  0  3.952279  0  0  -0.063173  -0.04711  0  3.9252  0
C  C57  1  0.85962894  0.31602721  0.40595487  1  0  -0.017454  0  3.689851  0  0  -0.040871  0  3.933641  0  0  -0.034839  0  3.94982  0  0  -0.062702  -0.044726  0  3.922724  0
C  C58  1  0.54374414  0.09006255  0.68402141  1  0  -0.018813  0  3.695329  0  0  -0.041911  0  3.93893  0  0  -0.03591  0  3.955064  0  0  -0.062728  -0.045749  0  3.927981  0
C  C59  1  0.04374239  0.68402078  0.09006329  1  0  -0.018841  0  3.69524  0  0  -0.04194  0  3.93886  0  0  -0.03594  0  3.954994  0  0  -0.062727  -0.045779  0  3.927911  0
C  C60  1  0.95395873  0.90996692  0.59392856  1  0  -0.020376  0  3.691944  0  0  -0.043217  0  3.936092  0  0  -0.037251  0  3.952233  0  0  -0.06316  -0.04702  0  3.925154  0
C  C61  1  0.35962988  0.40595387  0.31602623  1  0  -0.017508  0  3.689925  0  0  -0.040921  0  3.933721  0  0  -0.03489  0  3.949901  0  0  -0.062716  -0.044777  0  3.922807  0
C  C62  1  0.33097729  0.48053825  0.88288070  1  0  0.060634  0  3.829517  0  0  0.082493  0  4.058734  0  0  0.08018  0  4.082317  0  0  -0.015239  0.08394  0  4.042695  0
C  C63  1  0.85017468  0.40230573  0.51938932  1  0  0.057311  0  3.831085  0  0  0.079903  0  4.059558  0  0  0.077569  0  4.083155  0  0  -0.016087  0.081363  0  4.043518  0
C  C64  1  0.44791841  0.11717137  0.59771362  1  0  0.058931  0  3.828374  0  0  0.082532  0  4.055323  0  0  0.080219  0  4.078886  0  0  -0.015138  0.083979  0  4.039303  0
C  C65  1  0.94791981  0.59771390  0.11717260  1  0  0.058991  0  3.828178  0  0  0.082572  0  4.05515  0  0  0.080261  0  4.078712  0  0  -0.015089  0.08402  0  4.039131  0
C  C66  1  0.83097736  0.88287866  0.48053656  1  0  0.060412  0  3.829736  0  0  0.082305  0  4.058918  0  0  0.079992  0  4.082499  0  0  -0.015309  0.083753  0  4.042879  0
C  C67  1  0.35017422  0.51938920  0.40230522  1  0  0.057336  0  3.831036  0  0  0.079918  0  4.059518  0  0  0.077587  0  4.083112  0  0  -0.016063  0.081378  0  4.043482  0
C  C68  1  0.39165240  0.42923076  0.95027945  1  0  -0.114743  0  3.728545  0  0  -0.132297  0  3.96755  0  0  -0.134379  0  3.989512  0  0  -0.087072  -0.130705  0  3.952564  0
C  C69  1  0.96224520  0.52099139  0.57072832  1  0  -0.116916  0  3.72994  0  0  -0.134551  0  3.968886  0  0  -0.136583  0  3.990865  0  0  -0.088816  -0.132958  0  3.953926  0
C  C70  1  0.44138452  0.04980210  0.47903197  1  0  -0.115583  0  3.727374  0  0  -0.133155  0  3.966163  0  0  -0.135244  0  3.988124  0  0  -0.088298  -0.131565  0  3.951186  0
C  C71  1  0.94138301  0.47903103  0.04980218  1  0  -0.11558  0  3.727301  0  0  -0.133147  0  3.966095  0  0  -0.135238  0  3.988057  0  0  -0.088302  -0.131557  0  3.951118  0
C  C72  1  0.89165248  0.95027784  0.42922978  1  0  -0.114691  0  3.728588  0  0  -0.132237  0  3.967579  0  0  -0.134317  0  3.98954  0  0  -0.087066  -0.130644  0  3.952594  0
C  C73  1  0.46224361  0.57072962  0.52099312  1  0  -0.117027  0  3.730051  0  0  -0.134661  0  3.969  0  0  -0.1367  0  3.990975  0  0  -0.088892  -0.133067  0  3.954042  0
C  C74  1  0.27753484  0.32277938  0.93104989  1  0  -0.072415  0  3.769067  0  0  -0.084692  0  4.020644  0  0  -0.086803  0  4.041147  0  0  -0.091031  -0.083267  0  4.006715  0
C  C75  1  0.95474974  0.60820080  0.67724286  1  0  -0.072622  0  3.771045  0  0  -0.084492  0  4.022686  0  0  -0.086577  0  4.043093  0  0  -0.09082  -0.083101  0  4.008824  0
C  C76  1  0.34640204  0.06899603  0.39180167  1  0  -0.07003  0  3.769777  0  0  -0.082012  0  4.021032  0  0  -0.084109  0  4.041508  0  0  -0.089479  -0.080602  0  4.007119  0
C  C77  1  0.84640123  0.39180080  0.06899509  1  0  -0.070063  0  3.769736  0  0  -0.082051  0  4.020994  0  0  -0.084148  0  4.041472  0  0  -0.089495  -0.080641  0  4.007083  0
C  C78  1  0.77753712  0.93105074  0.32277993  1  0  -0.072436  0  3.769123  0  0  -0.084712  0  4.020704  0  0  -0.086823  0  4.041202  0  0  -0.091011  -0.083287  0  4.006775  0
C  C79  1  0.45474979  0.67724339  0.60820268  1  0  -0.072527  0  3.770986  0  0  -0.084385  0  4.022594  0  0  -0.086471  0  4.042999  0  0  -0.0908  -0.082995  0  4.008733  0
C  C80  1  0.10174587  0.26361663  0.84245722  1  0  -0.056336  0  3.708403  0  0  -0.073039  0  3.960109  0  0  -0.073967  0  3.979757  0  0  -0.081751  -0.072218  0  3.946652  0
C  C81  1  0.83815677  0.57876872  0.73643266  1  0  -0.056236  0  3.708999  0  0  -0.073009  0  3.960666  0  0  -0.073855  0  3.980278  0  0  -0.081837  -0.072204  0  3.947285  0
C  C82  1  0.25909216  0.15754887  0.42116920  1  0  -0.057502  0  3.708552  0  0  -0.074309  0  3.960666  0  0  -0.07517  0  3.98031  0  0  -0.08266  -0.073522  0  3.947206  0
C  C83  1  0.75909099  0.42116811  0.15754873  1  0  -0.057383  0  3.708589  0  0  -0.074185  0  3.9607  0  0  -0.075045  0  3.980343  0  0  -0.082612  -0.073401  0  3.947241  0
C  C84  1  0.60174628  0.84245903  0.26361814  1  0  -0.056276  0  3.708441  0  0  -0.072979  0  3.960147  0  0  -0.073907  0  3.9798  0  0  -0.081712  -0.072157  0  3.94669  0
C  C85  1  0.33815681  0.73643199  0.57877046  1  0  -0.056298  0  3.708982  0  0  -0.073076  0  3.960656  0  0  -0.073922  0  3.980267  0  0  -0.08185  -0.07227  0  3.947272  0
C  C86  1  0.04103572  0.31297977  0.77368928  1  0  -0.0774  0  3.775834  0  0  -0.087523  0  4.022649  0  0  -0.090374  0  4.044096  0  0  -0.089552  -0.085569  0  4.007998  0
C  C87  1  0.72802898  0.46064781  0.68702935  1  0  -0.076227  0  3.777096  0  0  -0.0863  0  4.02394  0  0  -0.08914  0  4.045378  0  0  -0.089525  -0.084373  0  4.009316  0
C  C88  1  0.26706944  0.22631534  0.53926464  1  0  -0.076732  0  3.775504  0  0  -0.087466  0  4.022751  0  0  -0.090284  0  4.044168  0  0  -0.090435  -0.085543  0  4.008128  0
C  C89  1  0.76706992  0.53926382  0.22631582  1  0  -0.076816  0  3.775595  0  0  -0.087567  0  4.022845  0  0  -0.090383  0  4.044262  0  0  -0.090472  -0.085643  0  4.008225  0
C  C90  1  0.54103650  0.77368930  0.31297847  1  0  -0.077442  0  3.77589  0  0  -0.08759  0  4.022723  0  0  -0.090461  0  4.044165  0  0  -0.089594  -0.085636  0  4.008073  0
C  C91  1  0.22803101  0.68702970  0.46064956  1  0  -0.076249  0  3.777128  0  0  -0.086333  0  4.023964  0  0  -0.089174  0  4.045401  0  0  -0.089537  -0.084396  0  4.009345  0
C  C92  1  0.15351244  0.42026967  0.79365934  1  0  -0.1099  0  3.717589  0  0  -0.127082  0  3.956779  0  0  -0.128464  0  3.978049  0  0  -0.08595  -0.125969  0  3.942329  0
C  C93  1  0.73303669  0.37334467  0.57968964  1  0  -0.108562  0  3.719959  0  0  -0.126335  0  3.958752  0  0  -0.12771  0  3.980032  0  0  -0.085357  -0.125208  0  3.944303  0
C  C94  1  0.35948947  0.20631486  0.62658204  1  0  -0.110414  0  3.717329  0  0  -0.128295  0  3.956673  0  0  -0.129687  0  3.97796  0  0  -0.086492  -0.127203  0  3.942249  0
C  C95  1  0.85949071  0.62658183  0.20631553  1  0  -0.110383  0  3.717319  0  0  -0.128263  0  3.956675  0  0  -0.129654  0  3.977958  0  0  -0.086466  -0.127171  0  3.942252  0
C  C96  1  0.65351049  0.79365841  0.42026887  1  0  -0.109844  0  3.717653  0  0  -0.127048  0  3.956857  0  0  -0.12843  0  3.978139  0  0  -0.085915  -0.125933  0  3.942413  0
C  C97  1  0.23303751  0.57969079  0.37334411  1  0  -0.108513  0  3.719947  0  0  -0.126277  0  3.958738  0  0  -0.127653  0  3.98002  0  0  -0.085332  -0.125153  0  3.944285  0
O  O98  1  0.48737798  0.86231579  0.89589488  1  0  -0.818752  0  2.057312  0  0  -0.760652  0  2.309235  0  0  -0.787322  0  2.298209  0  0  -0.428992  -0.740954  0  2.315749  0
O  O99  1  0.62503738  0.03354544  0.13765590  1  0  -0.819273  0  2.054967  0  0  -0.761406  0  2.307215  0  0  -0.787955  0  2.296  0  0  -0.429771  -0.741766  0  2.313789  0
O  O100  1  0.59143968  0.10415174  0.96649901  1  0  -0.819451  0  2.055547  0  0  -0.761199  0  2.306501  0  0  -0.787884  0  2.295591  0  0  -0.429817  -0.741548  0  2.313045  0
O  O101  1  0.09144263  0.96649918  0.10415096  1  0  -0.819447  0  2.055539  0  0  -0.761182  0  2.306466  0  0  -0.787866  0  2.295556  0  0  -0.429802  -0.741533  0  2.313008  0
O  O102  1  0.98737702  0.89589510  0.86231478  1  0  -0.818708  0  2.057285  0  0  -0.760622  0  2.309245  0  0  -0.787293  0  2.298221  0  0  -0.428976  -0.740925  0  2.315753  0
O  O103  1  0.12503621  0.13765661  0.03354467  1  0  -0.819295  0  2.055118  0  0  -0.76143  0  2.307377  0  0  -0.787984  0  2.296162  0  0  -0.429768  -0.741774  0  2.313908  0
O  O104  1  0.71708529  0.80748139  0.96701913  1  0  -0.690439  0  2.003095  0  0  -0.640565  0  2.246839  0  0  -0.666606  0  2.238754  0  0  -0.384464  -0.62215  0  2.251787  0
O  O105  1  0.90955670  0.15957635  0.19259127  1  0  -0.691412  0  2.001939  0  0  -0.641299  0  2.24529  0  0  -0.667302  0  2.23718  0  0  -0.38491  -0.62293  0  2.250279  0
O  O106  1  0.74998051  0.03303931  0.84048997  1  0  -0.692176  0  2.001118  0  0  -0.642148  0  2.243879  0  0  -0.668139  0  2.235754  0  0  -0.385533  -0.623782  0  2.24889  0
O  O107  1  0.24997736  0.84048783  0.03303684  1  0  -0.692206  0  2.001154  0  0  -0.642181  0  2.243919  0  0  -0.66817  0  2.235798  0  0  -0.385571  -0.623814  0  2.248929  0
O  O108  1  0.21708519  0.96702011  0.80748204  1  0  -0.690432  0  2.003117  0  0  -0.640546  0  2.246849  0  0  -0.66659  0  2.238766  0  0  -0.384458  -0.622127  0  2.251793  0
O  O109  1  0.40955605  0.19259139  0.15957513  1  0  -0.691406  0  2.001959  0  0  -0.641268  0  2.245301  0  0  -0.667276  0  2.237189  0  0  -0.384897  -0.622897  0  2.25029  0
