# generated using pymatgen
data_ZnH7C6N7
_symmetry_space_group_name_H-M   'P 1'
_cell_length_a   6.05523080
_cell_length_b   7.70719489
_cell_length_c   10.09289645
_cell_angle_alpha   92.64203101
_cell_angle_beta   101.55811452
_cell_angle_gamma   94.36086595
_symmetry_Int_Tables_number   1
_chemical_formula_structural   ZnH7C6N7
_chemical_formula_sum   'Zn2 H14 C12 N14'
_cell_volume   459.22865135
_cell_formula_units_Z   2
loop_
 _symmetry_equiv_pos_site_id
 _symmetry_equiv_pos_as_xyz
  1  'x, y, z'
loop_
 _atom_site_type_symbol
 _atom_site_label
 _atom_site_symmetry_multiplicity
 _atom_site_fract_x
 _atom_site_fract_y
 _atom_site_fract_z
 _atom_site_occupancy
 _atom_site_hle17_bader_spin_density
 _atom_site_hle17_ddec_charge
 _atom_site_hle17_ddec_spin_density
 _atom_site_hle17_ddec_sum_bond_order
 _atom_site_hle17_magmom
 _atom_site_hse06_10hf_bader_spin_density
 _atom_site_hse06_10hf_ddec_charge
 _atom_site_hse06_10hf_ddec_spin_density
 _atom_site_hse06_10hf_ddec_sum_bond_order
 _atom_site_hse06_10hf_magmom
 _atom_site_hse06_bader_spin_density
 _atom_site_hse06_ddec_charge
 _atom_site_hse06_ddec_spin_density
 _atom_site_hse06_ddec_sum_bond_order
 _atom_site_hse06_magmom
 _atom_site_pbe_bader_spin_density
 _atom_site_pbe_cm5_charge
 _atom_site_pbe_ddec_charge
 _atom_site_pbe_ddec_spin_density
 _atom_site_pbe_ddec_sum_bond_order
 _atom_site_pbe_magmom
Zn  Zn0  1  0.23433539  0.05442255  0.44929208  1  0  0.949924  0  2.020493  0  0  0.781568  0  2.492937  0  0  0.817843  0  2.453019  0  0  0.722064  0.756514  0  2.519976  0
Zn  Zn1  1  0.76566321  0.94556958  0.55070748  1  0  0.950018  0  2.020516  0  0  0.78164  0  2.492978  0  0  0.817915  0  2.453067  0  0  0.722093  0.756577  0  2.520015  0
H  H2  1  0.35911379  0.42696442  0.05406887  1  0  0.112444  0  0.95224  0  0  0.122524  0  1.013327  0  0  0.125304  0  1.012789  0  0  0.108552  0.120438  0  1.014168  0
H  H3  1  0.64088820  0.57304205  0.94593755  1  0  0.112452  0  0.952169  0  0  0.122498  0  1.013292  0  0  0.125277  0  1.012757  0  0  0.108538  0.120431  0  1.014112  0
H  H4  1  0.98089215  0.32844623  0.90879721  1  0  0.093463  0  0.946182  0  0  0.100026  0  1.012608  0  0  0.102068  0  1.01177  0  0  0.106042  0.098699  0  1.012795  0
H  H5  1  0.01912141  0.67154458  0.09119713  1  0  0.093512  0  0.94614  0  0  0.100095  0  1.012556  0  0  0.102142  0  1.0117  0  0  0.106059  0.098774  0  1.012751  0
H  H6  1  0.71426761  0.12477419  0.00319230  1  0  0.106054  0  0.962905  0  0  0.113348  0  1.025975  0  0  0.116288  0  1.025741  0  0  0.104282  0.111299  0  1.026317  0
H  H7  1  0.28574731  0.87521401  0.99679913  1  0  0.106073  0  0.962851  0  0  0.113342  0  1.025948  0  0  0.116286  0  1.025707  0  0  0.104275  0.111296  0  1.026293  0
H  H8  1  0.84943407  0.01772409  0.23323654  1  0  0.067237  0  0.973119  0  0  0.072261  0  1.045633  0  0  0.074022  0  1.044439  0  0  0.111296  0.071041  0  1.046307  0
H  H9  1  0.15056493  0.98227195  0.76675726  1  0  0.067234  0  0.973071  0  0  0.07225  0  1.045598  0  0  0.074013  0  1.0444  0  0  0.111276  0.071025  0  1.046271  0
H  H10  1  0.63506766  0.41506616  0.26046144  1  0  0.126841  0  0.959447  0  0  0.142713  0  1.025282  0  0  0.143911  0  1.025914  0  0  0.093324  0.141883  0  1.02474  0
H  H11  1  0.36492301  0.58494423  0.73954677  1  0  0.126746  0  0.959468  0  0  0.142639  0  1.025302  0  0  0.143836  0  1.025935  0  0  0.093298  0.141805  0  1.024761  0
H  H12  1  0.60789970  0.23523024  0.36280695  1  0  0.113712  0  0.981901  0  0  0.130465  0  1.05398  0  0  0.132024  0  1.05387  0  0  0.089617  0.129405  0  1.0539  0
H  H13  1  0.39209249  0.76477884  0.63720039  1  0  0.113593  0  0.981968  0  0  0.130356  0  1.054076  0  0  0.131915  0  1.053966  0  0  0.089548  0.129302  0  1.053991  0
H  H14  1  0.48484011  0.43050922  0.39402562  1  0  0.126994  0  0.941726  0  0  0.145149  0  1.008911  0  0  0.146356  0  1.008653  0  0  0.096384  0.144182  0  1.009257  0
H  H15  1  0.51514856  0.56949857  0.60598027  1  0  0.12673  0  0.941931  0  0  0.144975  0  1.009057  0  0  0.146183  0  1.008797  0  0  0.096293  0.144006  0  1.009406  0
C  C16  1  0.30335151  0.27729782  0.22040777  1  0  0.325458  0  3.700778  0  0  0.330318  0  3.940894  0  0  0.339883  0  3.960968  0  0  0.127082  0.32407  0  3.927153  0
C  C17  1  0.69664388  0.72270996  0.77959693  1  0  0.325384  0  3.700724  0  0  0.330262  0  3.940835  0  0  0.339832  0  3.960911  0  0  0.12714  0.324016  0  3.92709  0
C  C18  1  0.24121741  0.33618067  0.09019817  1  0  -0.169638  0  3.690658  0  0  -0.188573  0  3.93763  0  0  -0.198023  0  3.960141  0  0  -0.08028  -0.182494  0  3.922515  0
C  C19  1  0.75878411  0.66382188  0.90980508  1  0  -0.16961  0  3.690463  0  0  -0.188503  0  3.937452  0  0  -0.197952  0  3.959961  0  0  -0.080287  -0.18244  0  3.922328  0
C  C20  1  0.02989323  0.28200160  0.01012102  1  0  0.013587  0  3.724142  0  0  -0.005917  0  3.977376  0  0  -0.001262  0  3.996641  0  0  -0.061761  -0.008526  0  3.96387  0
C  C21  1  0.97011774  0.71799573  0.98987721  1  0  0.013522  0  3.724056  0  0  -0.006044  0  3.977321  0  0  -0.001388  0  3.996596  0  0  -0.061808  -0.008662  0  3.963839  0
C  C22  1  0.88208901  0.16876040  0.06180725  1  0  -0.126002  0  3.744568  0  0  -0.13824  0  3.992538  0  0  -0.147001  0  4.015938  0  0  -0.087998  -0.13281  0  3.977016  0
C  C23  1  0.11791796  0.83123172  0.93818735  1  0  -0.12605  0  3.744497  0  0  -0.138238  0  3.992452  0  0  -0.147002  0  4.015852  0  0  -0.087963  -0.132813  0  3.976937  0
C  C24  1  0.95511831  0.11079998  0.18994241  1  0  0.139041  0  3.707336  0  0  0.10827  0  3.956357  0  0  0.116067  0  3.974962  0  0  0.043501  0.10331  0  3.94338  0
C  C25  1  0.04488085  0.88919737  0.81005245  1  0  0.139072  0  3.707244  0  0  0.108303  0  3.956252  0  0  0.116107  0  3.974857  0  0  0.043533  0.103347  0  3.943265  0
C  C26  1  0.52089425  0.34227993  0.31354446  1  0  -0.388456  0  3.707047  0  0  -0.472064  0  3.94647  0  0  -0.475381  0  3.954447  0  0  -0.247042  -0.46956  0  3.940785  0
C  C27  1  0.47909471  0.65773047  0.68646057  1  0  -0.387933  0  3.707073  0  0  -0.471638  0  3.946419  0  0  -0.474953  0  3.954394  0  0  -0.246861  -0.469144  0  3.940737  0
N  N28  1  0.49904184  0.11324513  0.60557983  1  0  -0.621239  0  2.864518  0  0  -0.57432  0  3.196372  0  0  -0.598883  0  3.199619  0  0  -0.328656  -0.557711  0  3.194102  0
N  N29  1  0.50095616  0.88675612  0.39442295  1  0  -0.62131  0  2.864549  0  0  -0.574395  0  3.196434  0  0  -0.598959  0  3.199682  0  0  -0.328682  -0.557784  0  3.194179  0
N  N30  1  0.48408269  0.18213465  0.71320083  1  0  0.412568  0  4.194721  0  0  0.445356  0  4.471539  0  0  0.460575  0  4.500285  0  0  0.093703  0.435102  0  4.452465  0
N  N31  1  0.51591728  0.81786921  0.28680129  1  0  0.412609  0  4.194636  0  0  0.445421  0  4.471434  0  0  0.46064  0  4.50018  0  0  0.093777  0.435167  0  4.452365  0
N  N32  1  0.47121291  0.24733030  0.81724723  1  0  -0.349686  0  2.389588  0  0  -0.347011  0  2.611476  0  0  -0.352422  0  2.622103  0  0  -0.161905  -0.343469  0  2.604632  0
N  N33  1  0.52879087  0.75267748  0.18275251  1  0  -0.349672  0  2.389545  0  0  -0.347007  0  2.611427  0  0  -0.352411  0  2.62204  0  0  -0.161924  -0.343455  0  2.604585  0
N  N34  1  0.01487546  0.83887577  0.44967792  1  0  -0.64166  0  2.889602  0  0  -0.591495  0  3.228487  0  0  -0.617011  0  3.231107  0  0  -0.338874  -0.574105  0  3.226277  0
N  N35  1  0.98512437  0.16111245  0.55032165  1  0  -0.641896  0  2.889402  0  0  -0.591737  0  3.228361  0  0  -0.617257  0  3.230974  0  0  -0.338977  -0.574348  0  3.226156  0
N  N36  1  0.03736590  0.69531429  0.40256075  1  0  0.417463  0  4.196438  0  0  0.448421  0  4.479011  0  0  0.463418  0  4.507647  0  0  0.096988  0.438411  0  4.459514  0
N  N37  1  0.96262994  0.30468306  0.59743966  1  0  0.417624  0  4.19645  0  0  0.448581  0  4.479049  0  0  0.463578  0  4.507678  0  0  0.097004  0.438569  0  4.459557  0
N  N38  1  0.05999476  0.55839375  0.35729428  1  0  -0.32489  0  2.390252  0  0  -0.324813  0  2.61101  0  0  -0.329305  0  2.623093  0  0  -0.155121  -0.321693  0  2.602929  0
N  N39  1  0.93999968  0.44159187  0.64270059  1  0  -0.32483  0  2.390574  0  0  -0.32477  0  2.611359  0  0  -0.329253  0  2.623437  0  0  -0.155036  -0.321661  0  2.603282  0
N  N40  1  0.16056842  0.16235930  0.26716180  1  0  -0.383212  0  3.28233  0  0  -0.297974  0  3.544531  0  0  -0.318466  0  3.560098  0  0  -0.331211  -0.283964  0  3.533577  0
N  N41  1  0.83942971  0.83764327  0.73283907  1  0  -0.383269  0  3.282418  0  0  -0.298042  0  3.54463  0  0  -0.318553  0  3.560222  0  0  -0.331281  -0.284032  0  3.533664  0
