# generated using pymatgen
data_ZnH20C14S2(NO)4
_symmetry_space_group_name_H-M   'P 1'
_cell_length_a   8.53931522
_cell_length_b   9.47800866
_cell_length_c   12.88306752
_cell_angle_alpha   98.25354830
_cell_angle_beta   107.06790159
_cell_angle_gamma   98.97036866
_symmetry_Int_Tables_number   1
_chemical_formula_structural   ZnH20C14S2(NO)4
_chemical_formula_sum   'Zn2 H40 C28 S4 N8 O8'
_cell_volume   964.59383495
_cell_formula_units_Z   2
loop_
 _symmetry_equiv_pos_site_id
 _symmetry_equiv_pos_as_xyz
  1  'x, y, z'
loop_
 _atom_site_type_symbol
 _atom_site_label
 _atom_site_symmetry_multiplicity
 _atom_site_fract_x
 _atom_site_fract_y
 _atom_site_fract_z
 _atom_site_occupancy
 _atom_site_hle17_bader_spin_density
 _atom_site_hle17_ddec_charge
 _atom_site_hle17_ddec_spin_density
 _atom_site_hle17_ddec_sum_bond_order
 _atom_site_hle17_magmom
 _atom_site_hse06_10hf_bader_spin_density
 _atom_site_hse06_10hf_ddec_charge
 _atom_site_hse06_10hf_ddec_spin_density
 _atom_site_hse06_10hf_ddec_sum_bond_order
 _atom_site_hse06_10hf_magmom
 _atom_site_hse06_bader_spin_density
 _atom_site_hse06_ddec_charge
 _atom_site_hse06_ddec_spin_density
 _atom_site_hse06_ddec_sum_bond_order
 _atom_site_hse06_magmom
 _atom_site_pbe_bader_spin_density
 _atom_site_pbe_cm5_charge
 _atom_site_pbe_ddec_charge
 _atom_site_pbe_ddec_spin_density
 _atom_site_pbe_ddec_sum_bond_order
 _atom_site_pbe_magmom
Zn  Zn0  1  0.83422089  0.75465040  0.23778713  1  0  0.852282  0  2.065763  0  0  0.693948  0  2.550611  0  0  0.736982  0  2.498768  0  0  0.539403  0.663743  0  2.586601  0
Zn  Zn1  1  0.16578092  0.24535634  0.76221438  1  0  0.852237  0  2.065849  0  0  0.693922  0  2.550727  0  0  0.736944  0  2.498881  0  0  0.539374  0.663714  0  2.586701  0
H  H2  1  0.74039062  0.29929345  0.27460750  1  0  0.298108  0  0.958682  0  0  0.277303  0  1.027323  0  0  0.286048  0  1.020408  0  0  0.300728  0.270958  0  1.032831  0
H  H3  1  0.25961403  0.70070999  0.72539498  1  0  0.298094  0  0.958666  0  0  0.277251  0  1.02735  0  0  0.286031  0  1.020378  0  0  0.300726  0.27091  0  1.032856  0
H  H4  1  0.97303344  0.02484021  0.33898805  1  0  0.279622  0  0.962905  0  0  0.263542  0  1.023315  0  0  0.27048  0  1.018695  0  0  0.299966  0.258641  0  1.02664  0
H  H5  1  0.02696493  0.97515782  0.66101032  1  0  0.279658  0  0.962875  0  0  0.263578  0  1.02328  0  0  0.270515  0  1.018662  0  0  0.299965  0.258675  0  1.026606  0
H  H6  1  0.82538645  0.55502331  0.83770722  1  0  0.278298  0  0.889166  0  0  0.272884  0  0.934999  0  0  0.278897  0  0.931532  0  0  0.321893  0.268629  0  0.937568  0
H  H7  1  0.17461452  0.44498016  0.16229223  1  0  0.278288  0  0.88916  0  0  0.272878  0  0.935001  0  0  0.278891  0  0.931531  0  0  0.321901  0.268623  0  0.937571  0
H  H8  1  0.03370393  0.78800180  0.09587199  1  0  0.291043  0  0.963737  0  0  0.267904  0  1.037759  0  0  0.277232  0  1.029628  0  0  0.29227  0.261313  0  1.043459  0
H  H9  1  0.96629526  0.21199950  0.90412533  1  0  0.291044  0  0.963713  0  0  0.267894  0  1.037765  0  0  0.277223  0  1.029633  0  0  0.292237  0.261299  0  1.043473  0
H  H10  1  0.54795254  0.14527667  0.05402512  1  0  0.088909  0  0.969267  0  0  0.10813  0  1.035451  0  0  0.108741  0  1.035968  0  0  0.089988  0.107599  0  1.035139  0
H  H11  1  0.45204641  0.85472355  0.94597903  1  0  0.088897  0  0.969268  0  0  0.108129  0  1.035441  0  0  0.10874  0  1.035958  0  0  0.089991  0.107598  0  1.035129  0
H  H12  1  0.50295187  0.28817074  0.13950496  1  0  0.102646  0  0.930959  0  0  0.124515  0  0.98914  0  0  0.125338  0  0.989483  0  0  0.104147  0.123809  0  0.989229  0
H  H13  1  0.49704584  0.71182949  0.86049585  1  0  0.102675  0  0.930984  0  0  0.124541  0  0.989163  0  0  0.125364  0  0.989507  0  0  0.10415  0.123834  0  0.989252  0
H  H14  1  0.43616928  0.10132086  0.14578005  1  0  0.091138  0  0.936455  0  0  0.110012  0  1.003136  0  0  0.111165  0  1.002025  0  0  0.096736  0.10899  0  1.004218  0
H  H15  1  0.56383278  0.89867714  0.85422447  1  0  0.091182  0  0.936478  0  0  0.110052  0  1.003155  0  0  0.111208  0  1.002044  0  0  0.096758  0.109032  0  1.004238  0
H  H16  1  0.03394372  0.33595238  0.36705386  1  0  0.093826  0  0.921466  0  0  0.115974  0  0.980037  0  0  0.116906  0  0.979565  0  0  0.101768  0.11532  0  0.980136  0
H  H17  1  0.96605711  0.66404563  0.63294887  1  0  0.093842  0  0.921422  0  0  0.116004  0  0.97998  0  0  0.116937  0  0.979506  0  0  0.101785  0.115327  0  0.980101  0
H  H18  1  0.09712294  0.23050385  0.47084191  1  0  0.111291  0  0.951665  0  0  0.131926  0  1.010766  0  0  0.132898  0  1.010929  0  0  0.109873  0.131054  0  1.010864  0
H  H19  1  0.90287856  0.76949197  0.52915994  1  0  0.111325  0  0.951684  0  0  0.131935  0  1.01081  0  0  0.132907  0  1.010976  0  0  0.10988  0.131062  0  1.010906  0
H  H20  1  0.90209568  0.28511581  0.44549954  1  0  0.097601  0  0.932829  0  0  0.116767  0  0.998598  0  0  0.11781  0  0.997865  0  0  0.105202  0.115956  0  0.999237  0
H  H21  1  0.09790187  0.71487895  0.55449989  1  0  0.097621  0  0.932761  0  0  0.116795  0  0.998533  0  0  0.117838  0  0.997801  0  0  0.105203  0.115984  0  0.99917  0
H  H22  1  0.70607366  0.30837950  0.90352039  1  0  0.099314  0  0.944203  0  0  0.119153  0  1.005995  0  0  0.119851  0  1.006218  0  0  0.097091  0.118507  0  1.00598  0
H  H23  1  0.29393399  0.69162609  0.09648290  1  0  0.099299  0  0.944227  0  0  0.119138  0  1.006012  0  0  0.119836  0  1.006235  0  0  0.097094  0.118491  0  1.005999  0
H  H24  1  0.59873870  0.36317514  0.78068456  1  0  0.106064  0  0.940379  0  0  0.126706  0  0.999048  0  0  0.127517  0  0.999475  0  0  0.106074  0.126015  0  0.998925  0
H  H25  1  0.40126484  0.63682394  0.21931725  1  0  0.106109  0  0.940363  0  0  0.126724  0  0.999062  0  0  0.127535  0  0.999489  0  0  0.106089  0.126032  0  0.998938  0
H  H26  1  0.55048120  0.41424088  0.90469637  1  0  0.084581  0  0.967776  0  0  0.100424  0  1.041637  0  0  0.100818  0  1.042061  0  0  0.090342  0.10001  0  1.041472  0
H  H27  1  0.44952017  0.58575931  0.09530514  1  0  0.0846  0  0.967768  0  0  0.100423  0  1.041646  0  0  0.100817  0  1.04207  0  0  0.090343  0.10001  0  1.041481  0
H  H28  1  0.05522527  0.72348245  0.87843635  1  0  0.085117  0  0.956331  0  0  0.099128  0  1.032409  0  0  0.100091  0  1.032271  0  0  0.092608  0.098608  0  1.032431  0
H  H29  1  0.94477839  0.27651226  0.12156502  1  0  0.085088  0  0.956345  0  0  0.099124  0  1.032394  0  0  0.100088  0  1.032254  0  0  0.09263  0.098605  0  1.032416  0
H  H30  1  0.08950458  0.89950456  0.96059014  1  0  0.110159  0  0.927388  0  0  0.133013  0  0.984464  0  0  0.133946  0  0.984482  0  0  0.109365  0.132395  0  0.984177  0
H  H31  1  0.91049839  0.10049233  0.03940589  1  0  0.110081  0  0.927494  0  0  0.13295  0  0.984554  0  0  0.133881  0  0.984576  0  0  0.109364  0.132332  0  0.984266  0
H  H32  1  0.88493978  0.81688089  0.86803418  1  0  0.094686  0  0.919995  0  0  0.115546  0  0.981195  0  0  0.116701  0  0.980522  0  0  0.103172  0.114662  0  0.981616  0
H  H33  1  0.11506374  0.18311819  0.13196374  1  0  0.094709  0  0.919906  0  0  0.115547  0  0.981136  0  0  0.116702  0  0.980463  0  0  0.103184  0.114666  0  0.981557  0
H  H34  1  0.55912617  0.75309522  0.47020049  1  0  0.092114  0  1.008194  0  0  0.099188  0  1.07647  0  0  0.10096  0  1.077816  0  0  0.095994  0.096503  0  1.078624  0
H  H35  1  0.44087166  0.24691047  0.52979471  1  0  0.092026  0  1.008222  0  0  0.099158  0  1.076457  0  0  0.100928  0  1.077807  0  0  0.096003  0.096478  0  1.078608  0
H  H36  1  0.61190848  0.30797514  0.40943412  1  0  0.089082  0  0.980212  0  0  0.095686  0  1.049762  0  0  0.098503  0  1.048959  0  0  0.096989  0.092491  0  1.052792  0
H  H37  1  0.38808825  0.69202619  0.59056119  1  0  0.089074  0  0.980161  0  0  0.095702  0  1.049689  0  0  0.098502  0  1.048905  0  0  0.097004  0.092505  0  1.052722  0
H  H38  1  0.22997268  0.94975955  0.53737151  1  0  0.100079  0  0.973933  0  0  0.107389  0  1.039616  0  0  0.110717  0  1.037949  0  0  0.102248  0.105167  0  1.04089  0
H  H39  1  0.77002505  0.05024068  0.46263241  1  0  0.100138  0  0.973947  0  0  0.107411  0  1.039659  0  0  0.110733  0  1.037988  0  0  0.102276  0.105189  0  1.040928  0
H  H40  1  0.50225893  0.95825121  0.30529251  1  0  0.097025  0  0.974378  0  0  0.101338  0  1.047158  0  0  0.104764  0  1.045221  0  0  0.098303  0.099203  0  1.048189  0
H  H41  1  0.49774136  0.04174462  0.69471066  1  0  0.096983  0  0.974422  0  0  0.10132  0  1.047184  0  0  0.104726  0  1.045268  0  0  0.098275  0.099184  0  1.048219  0
C  C42  1  0.77471995  0.08779196  0.24104322  1  0  0.439979  0  3.831691  0  0  0.390469  0  4.129979  0  0  0.416837  0  4.138511  0  0  0.247786  0.37267  0  4.123432  0
C  C43  1  0.22528331  0.91220603  0.75895687  1  0  0.440008  0  3.831646  0  0  0.390488  0  4.129942  0  0  0.416863  0  4.138465  0  0  0.247796  0.372693  0  4.123395  0
C  C44  1  0.53654367  0.18101794  0.13586078  1  0  -0.120006  0  3.693741  0  0  -0.219105  0  3.947062  0  0  -0.2153  0  3.956215  0  0  -0.145087  -0.221738  0  3.941559  0
C  C45  1  0.46345471  0.81898010  0.86413993  1  0  -0.120129  0  3.693846  0  0  -0.219233  0  3.947156  0  0  -0.215432  0  3.956315  0  0  -0.145123  -0.221863  0  3.941657  0
C  C46  1  0.99077288  0.24848249  0.40609585  1  0  -0.112822  0  3.655008  0  0  -0.211541  0  3.91315  0  0  -0.207104  0  3.92078  0  0  -0.136187  -0.21423  0  3.907641  0
C  C47  1  0.00922617  0.75151335  0.59390397  1  0  -0.112847  0  3.654918  0  0  -0.211579  0  3.913065  0  0  -0.207144  0  3.920696  0  0  -0.136207  -0.214251  0  3.907565  0
C  C48  1  0.85438192  0.61108310  0.00069964  1  0  0.436825  0  3.825819  0  0  0.387039  0  4.125055  0  0  0.413564  0  4.133166  0  0  0.2423  0.36922  0  4.119195  0
C  C49  1  0.14561662  0.38892040  0.99930167  1  0  0.436797  0  3.825916  0  0  0.387033  0  4.125137  0  0  0.413556  0  4.133249  0  0  0.242284  0.369213  0  4.119276  0
C  C50  1  0.65144425  0.39675349  0.87091280  1  0  -0.117143  0  3.673421  0  0  -0.216914  0  3.93182  0  0  -0.213146  0  3.940542  0  0  -0.144086  -0.219175  0  3.925817  0
C  C51  1  0.34855796  0.60324997  0.12908922  1  0  -0.11722  0  3.673428  0  0  -0.216941  0  3.931832  0  0  -0.213179  0  3.940559  0  0  -0.144092  -0.219205  0  3.925832  0
C  C52  1  0.99902694  0.79573452  0.92521878  1  0  -0.11384  0  3.668534  0  0  -0.212025  0  3.927689  0  0  -0.208022  0  3.936343  0  0  -0.135821  -0.214544  0  3.921255  0
C  C53  1  0.00097209  0.20426132  0.07477794  1  0  -0.113733  0  3.668426  0  0  -0.211922  0  3.927585  0  0  -0.20792  0  3.936241  0  0  -0.135806  -0.21444  0  3.921152  0
C  C54  1  0.70178831  0.57350721  0.36116747  1  0  0.630578  0  3.910185  0  0  0.58149  0  4.201025  0  0  0.615459  0  4.193588  0  0  0.204929  0.558628  0  4.204352  0
C  C55  1  0.29820721  0.42649413  0.63882916  1  0  0.630722  0  3.910347  0  0  0.581666  0  4.201133  0  0  0.615633  0  4.1937  0  0  0.205018  0.558801  0  4.20446  0
C  C56  1  0.59642572  0.53499854  0.43214883  1  0  -0.068946  0  3.771784  0  0  -0.046279  0  4.002606  0  0  -0.052972  0  4.024827  0  0  -0.021085  -0.041908  0  3.986718  0
C  C57  1  0.40357468  0.46500275  0.56784717  1  0  -0.069066  0  3.771836  0  0  -0.046394  0  4.002664  0  0  -0.053084  0  4.024881  0  0  -0.021038  -0.042018  0  3.986767  0
C  C58  1  0.53254966  0.64250035  0.48367870  1  0  -0.081492  0  3.74699  0  0  -0.104007  0  3.991729  0  0  -0.104948  0  4.013263  0  0  -0.091425  -0.103051  0  3.979104  0
C  C59  1  0.46744516  0.35750318  0.51631258  1  0  -0.081338  0  3.747018  0  0  -0.103911  0  3.991731  0  0  -0.104854  0  4.013271  0  0  -0.091486  -0.102958  0  3.979111  0
C  C60  1  0.56294595  0.39213894  0.44910921  1  0  -0.075959  0  3.746373  0  0  -0.096003  0  3.989029  0  0  -0.097138  0  4.009558  0  0  -0.089879  -0.094649  0  3.976515  0
C  C61  1  0.43705350  0.60786345  0.55088673  1  0  -0.075932  0  3.746326  0  0  -0.096006  0  3.988977  0  0  -0.097127  0  4.009515  0  0  -0.089935  -0.094651  0  3.976454  0
C  C62  1  0.18907873  0.89174389  0.31729913  1  0  0.63861  0  3.902031  0  0  0.587948  0  4.194138  0  0  0.621678  0  4.186455  0  0  0.210993  0.565039  0  4.198329  0
C  C63  1  0.81092116  0.10825522  0.68270354  1  0  0.638692  0  3.902006  0  0  0.588046  0  4.194106  0  0  0.621765  0  4.186423  0  0  0.211047  0.565139  0  4.198298  0
C  C64  1  0.34960489  0.94883503  0.41176973  1  0  -0.064083  0  3.741424  0  0  -0.040793  0  3.969993  0  0  -0.047627  0  3.992271  0  0  -0.01603  -0.035573  0  3.955971  0
C  C65  1  0.65039351  0.05116301  0.58823331  1  0  -0.064009  0  3.741283  0  0  -0.040748  0  3.969866  0  0  -0.047553  0  3.9921  0  0  -0.016016  -0.035527  0  3.955844  0
C  C66  1  0.34892643  0.97083863  0.52169640  1  0  -0.069217  0  3.711946  0  0  -0.093357  0  3.965201  0  0  -0.093688  0  3.983807  0  0  -0.084101  -0.093743  0  3.954673  0
C  C67  1  0.65107209  0.02915503  0.47830698  1  0  -0.069398  0  3.711977  0  0  -0.093483  0  3.965228  0  0  -0.093812  0  3.983823  0  0  -0.084152  -0.093871  0  3.954705  0
C  C68  1  0.50203640  0.97859522  0.39063269  1  0  -0.065627  0  3.716093  0  0  -0.087419  0  3.965238  0  0  -0.087782  0  3.98401  0  0  -0.082562  -0.087387  0  3.95422  0
C  C69  1  0.49796049  0.02140173  0.60936917  1  0  -0.065659  0  3.716141  0  0  -0.087462  0  3.965314  0  0  -0.087816  0  3.984089  0  0  -0.082555  -0.087428  0  3.954293  0
S  S70  1  0.69616714  0.92116424  0.15065424  1  0  -0.434159  0  2.075426  0  0  -0.39912  0  2.439842  0  0  -0.41677  0  2.426629  0  0  -0.164026  -0.386161  0  2.448693  0
S  S71  1  0.30383477  0.07883813  0.84934372  1  0  -0.434127  0  2.075394  0  0  -0.399086  0  2.439818  0  0  -0.416732  0  2.426587  0  0  -0.164001  -0.386123  0  2.448662  0
S  S72  1  0.81277513  0.54799327  0.11127995  1  0  -0.423566  0  2.120407  0  0  -0.396017  0  2.497004  0  0  -0.411276  0  2.480841  0  0  -0.173104  -0.385366  0  2.508161  0
S  S73  1  0.18721769  0.45200701  0.88871914  1  0  -0.42363  0  2.120481  0  0  -0.396085  0  2.497084  0  0  -0.411341  0  2.480917  0  0  -0.17314  -0.385427  0  2.508228  0
N  N74  1  0.69351033  0.19620869  0.22408456  1  0  -0.367291  0  3.361636  0  0  -0.291546  0  3.607949  0  0  -0.312099  0  3.619638  0  0  -0.418537  -0.277773  0  3.600998  0
N  N75  1  0.30649283  0.80379367  0.77591908  1  0  -0.367218  0  3.361668  0  0  -0.291439  0  3.608021  0  0  -0.312015  0  3.61967  0  0  -0.418526  -0.277683  0  3.601082  0
N  N76  1  0.91665735  0.11160229  0.32694648  1  0  -0.377054  0  3.388017  0  0  -0.308112  0  3.639086  0  0  -0.328145  0  3.650626  0  0  -0.43152  -0.294439  0  3.630728  0
N  N77  1  0.08334225  0.88839574  0.67305213  1  0  -0.377168  0  3.387942  0  0  -0.308208  0  3.639006  0  0  -0.328245  0  3.650545  0  0  -0.431539  -0.294531  0  3.630637  0
N  N78  1  0.77626732  0.53171724  0.89766580  1  0  -0.3501  0  3.350306  0  0  -0.283079  0  3.599132  0  0  -0.301962  0  3.6097  0  0  -0.419168  -0.270342  0  3.591669  0
N  N79  1  0.22373270  0.46828733  0.10233281  1  0  -0.34999  0  3.350256  0  0  -0.283001  0  3.599098  0  0  -0.301874  0  3.609655  0  0  -0.419156  -0.270264  0  3.591635  0
N  N80  1  0.96392022  0.73501847  0.01521986  1  0  -0.386692  0  3.411736  0  0  -0.314973  0  3.664329  0  0  -0.336174  0  3.676441  0  0  -0.423705  -0.30086  0  3.655786  0
N  N81  1  0.03608047  0.26498391  0.98477865  1  0  -0.386696  0  3.411718  0  0  -0.314985  0  3.664308  0  0  -0.336188  0  3.676423  0  0  -0.423692  -0.300876  0  3.655775  0
O  O82  1  0.71256515  0.70450888  0.34240370  1  0  -0.617447  0  2.078923  0  0  -0.544016  0  2.347098  0  0  -0.573178  0  2.335249  0  0  -0.32664  -0.523609  0  2.354789  0
O  O83  1  0.28743021  0.29548699  0.65759232  1  0  -0.61749  0  2.078739  0  0  -0.544093  0  2.346906  0  0  -0.573251  0  2.335055  0  0  -0.326665  -0.5237  0  2.354642  0
O  O84  1  0.77472759  0.48203147  0.32491277  1  0  -0.609193  0  2.000744  0  0  -0.555591  0  2.229846  0  0  -0.579191  0  2.221163  0  0  -0.315565  -0.538561  0  2.234682  0
O  O85  1  0.22528109  0.51796865  0.67508393  1  0  -0.609165  0  2.00107  0  0  -0.555563  0  2.23016  0  0  -0.57917  0  2.221466  0  0  -0.315575  -0.538533  0  2.234997  0
O  O86  1  0.05684884  0.85687180  0.34678351  1  0  -0.635608  0  2.101531  0  0  -0.555947  0  2.360948  0  0  -0.583497  0  2.345895  0  0  -0.330189  -0.536378  0  2.370235  0
O  O87  1  0.94315160  0.14312950  0.65321872  1  0  -0.635635  0  2.101453  0  0  -0.556006  0  2.360894  0  0  -0.58355  0  2.345842  0  0  -0.330219  -0.536434  0  2.370179  0
O  O88  1  0.18877243  0.88187001  0.21920499  1  0  -0.598717  0  1.963701  0  0  -0.551558  0  2.188235  0  0  -0.573869  0  2.179084  0  0  -0.31145  -0.535617  0  2.193564  0
O  O89  1  0.81122867  0.11812909  0.78079635  1  0  -0.598752  0  1.963847  0  0  -0.551584  0  2.188378  0  0  -0.573895  0  2.179228  0  0  -0.311457  -0.53564  0  2.193709  0
