# generated using pymatgen
data_K2ZnH10C4(N9O2)2
_symmetry_space_group_name_H-M   'P 1'
_cell_length_a   8.50555756
_cell_length_b   9.39209121
_cell_length_c   10.73871271
_cell_angle_alpha   89.99999483
_cell_angle_beta   98.54920497
_cell_angle_gamma   90.00000059
_symmetry_Int_Tables_number   1
_chemical_formula_structural   K2ZnH10C4(N9O2)2
_chemical_formula_sum   'K4 Zn2 H20 C8 N36 O8'
_cell_volume   848.32969075
_cell_formula_units_Z   2
loop_
 _symmetry_equiv_pos_site_id
 _symmetry_equiv_pos_as_xyz
  1  'x, y, z'
loop_
 _atom_site_type_symbol
 _atom_site_label
 _atom_site_symmetry_multiplicity
 _atom_site_fract_x
 _atom_site_fract_y
 _atom_site_fract_z
 _atom_site_occupancy
 _atom_site_hle17_bader_spin_density
 _atom_site_hle17_ddec_charge
 _atom_site_hle17_ddec_spin_density
 _atom_site_hle17_ddec_sum_bond_order
 _atom_site_hle17_magmom
 _atom_site_hse06_10hf_bader_spin_density
 _atom_site_hse06_10hf_ddec_charge
 _atom_site_hse06_10hf_ddec_spin_density
 _atom_site_hse06_10hf_ddec_sum_bond_order
 _atom_site_hse06_10hf_magmom
 _atom_site_hse06_bader_spin_density
 _atom_site_hse06_ddec_charge
 _atom_site_hse06_ddec_spin_density
 _atom_site_hse06_ddec_sum_bond_order
 _atom_site_hse06_magmom
 _atom_site_pbe_bader_spin_density
 _atom_site_pbe_cm5_charge
 _atom_site_pbe_ddec_charge
 _atom_site_pbe_ddec_spin_density
 _atom_site_pbe_ddec_sum_bond_order
 _atom_site_pbe_magmom
K  K0  1  0.50985726  0.29616939  0.12205957  1  0  0.883295  0  0.461533  0  0  0.806542  0  0.668674  0  0  0.821162  0  0.64569  0  0  0.778665  0.795812  0  0.685128  0
K  K1  1  0.99014257  0.79617302  0.87793316  1  0  0.883292  0  0.461542  0  0  0.806545  0  0.668676  0  0  0.821167  0  0.645687  0  0  0.77868  0.795816  0  0.685129  0
K  K2  1  0.49014363  0.70382724  0.87793578  1  0  0.883297  0  0.461541  0  0  0.806548  0  0.668675  0  0  0.82116  0  0.6457  0  0  0.77868  0.795818  0  0.68513  0
K  K3  1  0.00985716  0.20382680  0.12206485  1  0  0.883293  0  0.461533  0  0  0.80653  0  0.668689  0  0  0.821158  0  0.645687  0  0  0.778679  0.7958  0  0.685144  0
Zn  Zn4  1  0.50000225  0.50000151  0.49999974  1  0  0.849115  0  2.059674  0  0  0.645337  0  2.517601  0  0  0.685763  0  2.477693  0  0  0.715246  0.616326  0  2.545839  0
Zn  Zn5  1  0.00000092  0.99999878  0.50000113  1  0  0.849127  0  2.059698  0  0  0.645322  0  2.517634  0  0  0.685749  0  2.477725  0  0  0.71526  0.616313  0  2.545875  0
H  H6  1  0.57302013  0.96317101  0.18794961  1  0  0.392703  0  0.92454  0  0  0.354833  0  1.000656  0  0  0.365405  0  0.985361  0  0  0.289545  0.347325  0  1.011502  0
H  H7  1  0.92697979  0.46317157  0.81205150  1  0  0.392694  0  0.924555  0  0  0.354813  0  1.000688  0  0  0.365387  0  0.985392  0  0  0.289526  0.347304  0  1.011535  0
H  H8  1  0.42697964  0.03682882  0.81205213  1  0  0.392721  0  0.924517  0  0  0.354851  0  1.000632  0  0  0.365425  0  0.985336  0  0  0.289555  0.347343  0  1.011479  0
H  H9  1  0.07301996  0.53682932  0.18794838  1  0  0.392704  0  0.924542  0  0  0.354824  0  1.000673  0  0  0.365398  0  0.985376  0  0  0.289536  0.347315  0  1.01152  0
H  H10  1  0.74434501  0.01354330  0.24227101  1  0  0.405298  0  0.880449  0  0  0.371851  0  0.964283  0  0  0.38022  0  0.952283  0  0  0.30001  0.365706  0  0.97316  0
H  H11  1  0.75565491  0.51354374  0.75773013  1  0  0.405262  0  0.880505  0  0  0.371811  0  0.964341  0  0  0.380179  0  0.952343  0  0  0.299971  0.365667  0  0.973218  0
H  H12  1  0.25565475  0.98645652  0.75772980  1  0  0.405297  0  0.88045  0  0  0.37185  0  0.964284  0  0  0.380219  0  0.952284  0  0  0.300008  0.365706  0  0.973161  0
H  H13  1  0.24434485  0.48645608  0.24227068  1  0  0.40527  0  0.880496  0  0  0.371818  0  0.964332  0  0  0.380187  0  0.952334  0  0  0.299968  0.365674  0  0.973208  0
H  H14  1  0.31325638  0.98794717  0.11242754  1  0  0.399863  0  0.896622  0  0  0.365987  0  0.972077  0  0  0.375576  0  0.957885  0  0  0.295726  0.359071  0  0.982337  0
H  H15  1  0.18674323  0.48794666  0.88757293  1  0  0.399834  0  0.896666  0  0  0.365958  0  0.972116  0  0  0.375547  0  0.957924  0  0  0.295701  0.359042  0  0.982376  0
H  H16  1  0.68674339  0.01205265  0.88757327  1  0  0.399858  0  0.896634  0  0  0.365986  0  0.972076  0  0  0.375574  0  0.957885  0  0  0.295715  0.35907  0  0.982336  0
H  H17  1  0.81325653  0.51205316  0.11242695  1  0  0.399841  0  0.896654  0  0  0.365965  0  0.972105  0  0  0.375554  0  0.957913  0  0  0.295704  0.359049  0  0.982365  0
H  H18  1  0.29804223  0.03576302  0.97235105  1  0  0.414386  0  0.889593  0  0  0.387693  0  0.946586  0  0  0.39809  0  0.931333  0  0  0.287512  0.380251  0  0.957535  0
H  H19  1  0.20195856  0.53576354  0.02764960  1  0  0.41439  0  0.889583  0  0  0.387694  0  0.946583  0  0  0.39809  0  0.931329  0  0  0.287522  0.380251  0  0.957532  0
H  H20  1  0.70195871  0.96423681  0.02764896  1  0  0.414389  0  0.88959  0  0  0.387696  0  0.94658  0  0  0.398091  0  0.931329  0  0  0.287515  0.380253  0  0.95753  0
H  H21  1  0.79804239  0.46423735  0.97235135  1  0  0.414375  0  0.88961  0  0  0.387677  0  0.946611  0  0  0.398073  0  0.931357  0  0  0.287508  0.380234  0  0.95756  0
H  H22  1  0.31281048  0.93286252  0.37370317  1  0  0.303825  0  0.94462  0  0  0.271502  0  1.031374  0  0  0.280472  0  1.023587  0  0  0.315406  0.264665  0  1.037707  0
H  H23  1  0.18718914  0.43286097  0.62629824  1  0  0.30383  0  0.944635  0  0  0.271509  0  1.031388  0  0  0.280478  0  1.023603  0  0  0.315393  0.264673  0  1.037718  0
H  H24  1  0.68718931  0.06713731  0.62629951  1  0  0.303868  0  0.944605  0  0  0.271542  0  1.031358  0  0  0.280512  0  1.023571  0  0  0.315419  0.264706  0  1.037688  0
H  H25  1  0.81280943  0.56713779  0.37370150  1  0  0.303825  0  0.944632  0  0  0.2715  0  1.031391  0  0  0.28047  0  1.023606  0  0  0.315396  0.264664  0  1.037722  0
C  C26  1  0.41313807  0.75257466  0.31238887  1  0  0.505387  0  3.815431  0  0  0.450615  0  4.102286  0  0  0.471184  0  4.113669  0  0  0.326039  0.436753  0  4.093984  0
C  C27  1  0.08686271  0.25257524  0.68760989  1  0  0.505372  0  3.815529  0  0  0.450584  0  4.102397  0  0  0.471154  0  4.113779  0  0  0.326009  0.436722  0  4.094096  0
C  C28  1  0.58686405  0.24742516  0.68761034  1  0  0.505449  0  3.815492  0  0  0.45067  0  4.102361  0  0  0.471241  0  4.113742  0  0  0.326039  0.436809  0  4.094058  0
C  C29  1  0.91313466  0.74742672  0.31238879  1  0  0.505487  0  3.815537  0  0  0.450694  0  4.102389  0  0  0.471265  0  4.11377  0  0  0.326038  0.436831  0  4.094088  0
C  C30  1  0.28003445  0.76707728  0.49575927  1  0  0.513251  0  3.788491  0  0  0.457885  0  4.075248  0  0  0.478786  0  4.085952  0  0  0.333538  0.443707  0  4.067594  0
C  C31  1  0.21996752  0.26707575  0.50424055  1  0  0.513298  0  3.788468  0  0  0.457916  0  4.075211  0  0  0.478817  0  4.085911  0  0  0.333557  0.443738  0  4.067557  0
C  C32  1  0.71996768  0.23292361  0.50424087  1  0  0.513305  0  3.788488  0  0  0.457937  0  4.075228  0  0  0.47884  0  4.085928  0  0  0.333548  0.443759  0  4.067574  0
C  C33  1  0.78003342  0.73292301  0.49575946  1  0  0.513289  0  3.788475  0  0  0.457929  0  4.075229  0  0  0.478831  0  4.085931  0  0  0.333534  0.443751  0  4.067576  0
N  N34  1  0.45016314  0.61281984  0.31899219  1  0  -0.420318  0  3.138637  0  0  -0.354385  0  3.430225  0  0  -0.37203  0  3.439851  0  0  -0.260137  -0.342376  0  3.423481  0
N  N35  1  0.04983645  0.11282042  0.68100738  1  0  -0.420291  0  3.138659  0  0  -0.354332  0  3.430235  0  0  -0.371977  0  3.439859  0  0  -0.260108  -0.342324  0  3.423492  0
N  N36  1  0.54983542  0.38717998  0.68100755  1  0  -0.420304  0  3.138644  0  0  -0.354375  0  3.43024  0  0  -0.372022  0  3.439867  0  0  -0.26012  -0.342366  0  3.423495  0
N  N37  1  0.95016450  0.88718153  0.31899356  1  0  -0.420418  0  3.13871  0  0  -0.354447  0  3.430271  0  0  -0.372091  0  3.439896  0  0  -0.260139  -0.342438  0  3.42353  0
N  N38  1  0.51343229  0.58590572  0.21157479  1  0  -0.128928  0  3.059277  0  0  -0.119017  0  3.364564  0  0  -0.119013  0  3.375622  0  0  -0.169615  -0.118528  0  3.356805  0
N  N39  1  0.98656762  0.08590522  0.78842542  1  0  -0.12885  0  3.05936  0  0  -0.118946  0  3.364631  0  0  -0.11894  0  3.375689  0  0  -0.169584  -0.118456  0  3.356872  0
N  N40  1  0.48656866  0.41409517  0.78842616  1  0  -0.128886  0  3.059281  0  0  -0.118966  0  3.364558  0  0  -0.11896  0  3.375618  0  0  -0.169621  -0.118476  0  3.356799  0
N  N41  1  0.01342975  0.91409460  0.21157419  1  0  -0.128821  0  3.05921  0  0  -0.118916  0  3.364482  0  0  -0.118911  0  3.375541  0  0  -0.169583  -0.118426  0  3.356723  0
N  N42  1  0.51429307  0.70271570  0.14654788  1  0  -0.111874  0  3.044931  0  0  -0.098813  0  3.342864  0  0  -0.097657  0  3.353253  0  0  -0.168131  -0.09912  0  3.335556  0
N  N43  1  0.98570564  0.20271520  0.85345125  1  0  -0.111954  0  3.045091  0  0  -0.098893  0  3.343025  0  0  -0.097739  0  3.353416  0  0  -0.168172  -0.099202  0  3.335717  0
N  N44  1  0.48570667  0.29728412  0.85345106  1  0  -0.111882  0  3.045006  0  0  -0.098819  0  3.342941  0  0  -0.097665  0  3.353332  0  0  -0.168122  -0.099127  0  3.335633  0
N  N45  1  0.01429531  0.79728356  0.14654969  1  0  -0.111881  0  3.044938  0  0  -0.098838  0  3.342881  0  0  -0.097683  0  3.353272  0  0  -0.168145  -0.099146  0  3.335573  0
N  N46  1  0.45237319  0.81194377  0.20717414  1  0  -0.402909  0  2.992633  0  0  -0.347778  0  3.256324  0  0  -0.36385  0  3.265672  0  0  -0.229984  -0.336579  0  3.249862  0
N  N47  1  0.04762879  0.31194327  0.79282661  1  0  -0.402917  0  2.992666  0  0  -0.347779  0  3.256358  0  0  -0.363853  0  3.26571  0  0  -0.229979  -0.336579  0  3.249895  0
N  N48  1  0.54762894  0.18805606  0.79282600  1  0  -0.403013  0  2.992703  0  0  -0.347883  0  3.256405  0  0  -0.363955  0  3.265752  0  0  -0.230041  -0.336684  0  3.249944  0
N  N49  1  0.95236977  0.68805656  0.20717314  1  0  -0.403023  0  2.992758  0  0  -0.347867  0  3.25644  0  0  -0.363939  0  3.265789  0  0  -0.23001  -0.336667  0  3.249977  0
N  N50  1  0.34190698  0.82775387  0.39792999  1  0  -0.478043  0  3.3192  0  0  -0.420475  0  3.57401  0  0  -0.441635  0  3.579028  0  0  -0.390495  -0.405533  0  3.570564  0
N  N51  1  0.15809498  0.32775339  0.60206889  1  0  -0.478049  0  3.319263  0  0  -0.420486  0  3.574079  0  0  -0.441647  0  3.5791  0  0  -0.39048  -0.405544  0  3.570632  0
N  N52  1  0.65809514  0.17224596  0.60206922  1  0  -0.478114  0  3.319272  0  0  -0.420545  0  3.574078  0  0  -0.441707  0  3.579097  0  0  -0.390481  -0.405604  0  3.570632  0
N  N53  1  0.84190714  0.67224644  0.39793031  1  0  -0.478048  0  3.319234  0  0  -0.420479  0  3.57404  0  0  -0.44164  0  3.57906  0  0  -0.390477  -0.405537  0  3.570592  0
N  N54  1  0.17180777  0.82983540  0.55782892  1  0  -0.383396  0  3.133253  0  0  -0.324295  0  3.432179  0  0  -0.341947  0  3.443187  0  0  -0.240996  -0.311979  0  3.424719  0
N  N55  1  0.32819302  0.32983600  0.44217077  1  0  -0.383511  0  3.133268  0  0  -0.324411  0  3.43221  0  0  -0.34206  0  3.44321  0  0  -0.241059  -0.312095  0  3.424748  0
N  N56  1  0.82819317  0.17016443  0.44217109  1  0  -0.383489  0  3.13328  0  0  -0.324387  0  3.432199  0  0  -0.342039  0  3.443209  0  0  -0.241049  -0.31207  0  3.424738  0
N  N57  1  0.67180913  0.67016489  0.55783031  1  0  -0.383507  0  3.133297  0  0  -0.324424  0  3.432251  0  0  -0.342065  0  3.443224  0  0  -0.241033  -0.312106  0  3.424787  0
N  N58  1  0.14170180  0.73436784  0.64574488  1  0  -0.10728  0  3.01958  0  0  -0.103641  0  3.320735  0  0  -0.101416  0  3.331471  0  0  -0.142799  -0.104876  0  3.313375  0
N  N59  1  0.35829901  0.23436632  0.35425668  1  0  -0.10722  0  3.019573  0  0  -0.103584  0  3.320726  0  0  -0.101358  0  3.331463  0  0  -0.142738  -0.104817  0  3.313365  0
N  N60  1  0.85829796  0.26563305  0.35425500  1  0  -0.10721  0  3.019563  0  0  -0.103566  0  3.320707  0  0  -0.101342  0  3.331444  0  0  -0.142748  -0.1048  0  3.313346  0
N  N61  1  0.64170077  0.76563457  0.64574506  1  0  -0.107252  0  3.019556  0  0  -0.103606  0  3.32071  0  0  -0.10138  0  3.331445  0  0  -0.14278  -0.10484  0  3.313348  0
N  N62  1  0.22700384  0.62036660  0.63708339  1  0  -0.092005  0  3.08039  0  0  -0.070616  0  3.372094  0  0  -0.071394  0  3.383397  0  0  -0.111399  -0.069939  0  3.364751  0
N  N63  1  0.27299338  0.12036721  0.36291592  1  0  -0.091969  0  3.080312  0  0  -0.070603  0  3.372011  0  0  -0.071384  0  3.383314  0  0  -0.111429  -0.069925  0  3.364669  0
N  N64  1  0.77299592  0.37963322  0.36291742  1  0  -0.091985  0  3.080358  0  0  -0.070608  0  3.372059  0  0  -0.071386  0  3.383363  0  0  -0.111402  -0.069931  0  3.364717  0
N  N65  1  0.72700518  0.87963368  0.63708290  1  0  -0.09192  0  3.080283  0  0  -0.070528  0  3.371989  0  0  -0.07131  0  3.383291  0  0  -0.111386  -0.069852  0  3.364647  0
N  N66  1  0.31625463  0.63698484  0.54351662  1  0  -0.380438  0  3.149798  0  0  -0.32058  0  3.445584  0  0  -0.338174  0  3.456098  0  0  -0.251706  -0.308396  0  3.43818  0
N  N67  1  0.18374618  0.13698332  0.45648495  1  0  -0.380506  0  3.149781  0  0  -0.320579  0  3.445481  0  0  -0.338178  0  3.456011  0  0  -0.251708  -0.308396  0  3.43808  0
N  N68  1  0.68374514  0.36301605  0.45648419  1  0  -0.380489  0  3.149798  0  0  -0.320605  0  3.445548  0  0  -0.338199  0  3.456058  0  0  -0.251716  -0.308422  0  3.438148  0
N  N69  1  0.81625477  0.86301545  0.54351599  1  0  -0.38049  0  3.149766  0  0  -0.320628  0  3.445532  0  0  -0.338232  0  3.456071  0  0  -0.251698  -0.308445  0  3.438133  0
O  O70  1  0.65689822  0.03382100  0.17450504  1  0  -0.846449  0  1.858962  0  0  -0.785393  0  2.036521  0  0  -0.804529  0  2.008115  0  0  -0.632659  -0.7719  0  2.056868  0
O  O71  1  0.84310169  0.53382250  0.82549517  1  0  -0.846406  0  1.85902  0  0  -0.785333  0  2.036583  0  0  -0.804473  0  2.008173  0  0  -0.632604  -0.771841  0  2.056928  0
O  O72  1  0.34310153  0.96617776  0.82549484  1  0  -0.846475  0  1.858964  0  0  -0.785417  0  2.036519  0  0  -0.804554  0  2.00811  0  0  -0.63267  -0.771923  0  2.056865  0
O  O73  1  0.15689806  0.46617732  0.17450470  1  0  -0.846418  0  1.858994  0  0  -0.785345  0  2.036554  0  0  -0.804485  0  2.008144  0  0  -0.632608  -0.771853  0  2.056899  0
O  O74  1  0.28345989  0.06980022  0.05733995  1  0  -0.890895  0  1.800765  0  0  -0.844564  0  1.97176  0  0  -0.862111  0  1.942091  0  0  -0.686141  -0.83221  0  1.992962  0
O  O75  1  0.21653971  0.56979957  0.94265963  1  0  -0.890886  0  1.800798  0  0  -0.844553  0  1.971806  0  0  -0.862097  0  1.942135  0  0  -0.686135  -0.832199  0  1.993007  0
O  O76  1  0.71653986  0.93019961  0.94265993  1  0  -0.890891  0  1.800777  0  0  -0.844561  0  1.971776  0  0  -0.862105  0  1.942109  0  0  -0.686133  -0.832207  0  1.992977  0
O  O77  1  0.78346005  0.43020025  0.05734025  1  0  -0.890878  0  1.800822  0  0  -0.844545  0  1.971838  0  0  -0.862091  0  1.942167  0  0  -0.686127  -0.83219  0  1.993039  0
