# generated using pymatgen
data_ZnC9IN(O2F)2
_symmetry_space_group_name_H-M   'P 1'
_cell_length_a   10.89392939
_cell_length_b   10.65386799
_cell_length_c   11.87503634
_cell_angle_alpha   91.81632662
_cell_angle_beta   92.56236186
_cell_angle_gamma   87.73545883
_symmetry_Int_Tables_number   1
_chemical_formula_structural   ZnC9IN(O2F)2
_chemical_formula_sum   'Zn2 C18 I2 N2 O8 F4'
_cell_volume   1375.17440099
_cell_formula_units_Z   2
loop_
 _symmetry_equiv_pos_site_id
 _symmetry_equiv_pos_as_xyz
  1  'x, y, z'
loop_
 _atom_site_type_symbol
 _atom_site_label
 _atom_site_symmetry_multiplicity
 _atom_site_fract_x
 _atom_site_fract_y
 _atom_site_fract_z
 _atom_site_occupancy
 _atom_site_pbe_bader_charge
 _atom_site_pbe_bader_spin_density
 _atom_site_pbe_cm5_charge
 _atom_site_pbe_ddec_charge
 _atom_site_pbe_ddec_spin_density
 _atom_site_pbe_ddec_sum_bond_order
 _atom_site_pbe_magmom
Zn  Zn0  1  0.50102172  0.37007049  0.49641301  1  1.307845  0  0.687916  0.876754  0  2.415731  0
Zn  Zn1  1  0.49897035  0.62994429  0.50358964  1  1.313373  0  0.68806  0.877187  0  2.415194  0
C  C2  1  0.50024180  0.49973741  0.71873925  1  1.709678  0  0.220316  0.656098  0  4.25469  0
C  C3  1  0.95868353  0.56777142  0.58986153  1  0.625698  0  0.103078  0.208071  0  3.750394  0
C  C4  1  0.05559589  0.45496910  0.59596404  1  -0.173543  0  -0.050932  -0.085993  0  3.613302  0
C  C5  1  0.94439851  0.54496935  0.40402492  1  -0.174078  0  -0.050806  -0.086063  0  3.613613  0
C  C6  1  0.12484572  0.51134534  0.49491173  1  -0.009913  0  -0.015513  -0.151523  0  3.658444  0
C  C7  1  0.87514789  0.48858749  0.50507713  1  -0.010431  0  -0.015587  -0.151988  0  3.659471  0
C  C8  1  0.49981432  0.49993928  0.84015568  1  0.104564  0  -0.013915  -0.13954  0  3.866895  0
C  C9  1  0.50019724  0.50018787  0.15984733  1  0.104485  0  -0.014038  -0.139997  0  3.86738  0
C  C10  1  0.49990345  0.50003629  0.94317883  1  -0.306173  0  -0.012692  0.026869  0  4.231883  0
C  C11  1  0.50011096  0.50014654  0.05684358  1  -0.180187  0  -0.012672  0.027294  0  4.232698  0
C  C12  1  0.49975034  0.50036391  0.28127224  1  1.706772  0  0.220808  0.656818  0  4.25393  0
C  C13  1  0.73803288  0.48795554  0.50668786  1  1.610006  0  0.217732  0.632566  0  4.16297  0
C  C14  1  0.26196394  0.51200745  0.49331078  1  1.61123  0  0.217922  0.632619  0  4.16239  0
C  C15  1  0.50092203  0.93586570  0.50218256  1  0.946148  0  0.311166  0.303251  0  3.892989  0
C  C16  1  0.49910011  0.06415796  0.49781918  1  1.046947  0  0.31128  0.303498  0  3.892903  0
C  C17  1  0.97295195  0.37678854  0.50991087  1  0.630548  0  0.100661  0.20779  0  3.748583  0
C  C18  1  0.02704300  0.62313789  0.49008972  1  0.630418  0  0.100621  0.207563  0  3.749915  0
C  C19  1  0.04131187  0.43216707  0.41013082  1  0.625695  0  0.103094  0.20855  0  3.749161  0
I  I20  1  0.14157098  0.38780070  0.74489020  1  0.166567  0  0.082545  0.021368  0  1.301553  0
I  I21  1  0.85844404  0.61211575  0.25509467  1  0.166687  0  0.082601  0.021496  0  1.301879  0
N  N22  1  0.50245260  0.82701262  0.50582643  1  -0.934468  0  -0.168476  -0.133735  0  2.939117  0
N  N23  1  0.49756964  0.17301398  0.49418209  1  -0.934467  0  -0.168445  -0.133708  0  2.939221  0
O  O24  1  0.50285607  0.39228023  0.66834769  1  -1.13462  0  -0.312109  -0.546404  0  2.27754  0
O  O25  1  0.49711758  0.60779811  0.33167571  1  -1.133275  0  -0.312462  -0.54683  0  2.277943  0
O  O26  1  0.50197179  0.39314194  0.32614135  1  -1.128658  0  -0.310046  -0.533812  0  2.255536  0
O  O27  1  0.49804339  0.60693709  0.67385177  1  -1.1301  0  -0.309872  -0.533635  0  2.25588  0
O  O28  1  0.68832468  0.38215806  0.50345089  1  -1.142427  0  -0.310544  -0.528873  0  2.282558  0
O  O29  1  0.31165275  0.61780707  0.49654483  1  -1.143283  0  -0.310502  -0.528938  0  2.282547  0
O  O30  1  0.31489529  0.40351282  0.49065021  1  -1.138564  0  -0.314365  -0.548196  0  2.325877  0
O  O31  1  0.68511317  0.59645357  0.50933861  1  -1.13809  0  -0.314163  -0.548029  0  2.325815  0
F  F32  1  0.94799624  0.25439376  0.52105252  1  -0.623333  0  -0.109169  -0.134357  0  1.32272  0
F  F33  1  0.05199110  0.74552497  0.47892926  1  -0.623143  0  -0.109287  -0.134286  0  1.323077  0
F  F34  1  0.08343290  0.36676695  0.31910442  1  -0.623741  0  -0.106147  -0.131057  0  1.320565  0
F  F35  1  0.91656167  0.63314079  0.68090095  1  -0.624168  0  -0.106056  -0.13083  0  1.320636  0
