# generated using pymatgen
data_CoH16C20(NO2)2
_symmetry_space_group_name_H-M   'P 1'
_cell_length_a   9.41915742
_cell_length_b   10.26652151
_cell_length_c   10.43150955
_cell_angle_alpha   113.54446065
_cell_angle_beta   104.32667359
_cell_angle_gamma   97.32618935
_symmetry_Int_Tables_number   1
_chemical_formula_structural   CoH16C20(NO2)2
_chemical_formula_sum   'Co2 H32 C40 N4 O8'
_cell_volume   866.42523343
_cell_formula_units_Z   2
loop_
 _symmetry_equiv_pos_site_id
 _symmetry_equiv_pos_as_xyz
  1  'x, y, z'
loop_
 _atom_site_type_symbol
 _atom_site_label
 _atom_site_symmetry_multiplicity
 _atom_site_fract_x
 _atom_site_fract_y
 _atom_site_fract_z
 _atom_site_occupancy
 _atom_site_pbe_cm5_charge
 _atom_site_pbe_ddec_charge
 _atom_site_pbe_ddec_spin_density
 _atom_site_pbe_ddec_sum_bond_order
 _atom_site_pbe_magmom
Co  Co0  1  0.86880336  0.04394290  0.33208845  1  0.663196  0.864398  -2.831962  2.498053  -2.577
Co  Co1  1  0.13119781  0.95605995  0.66791235  1  0.663171  0.864341  -2.831824  2.498252  -2.578
H  H2  1  0.62081902  0.83732300  0.60110612  1  0.104323  0.135516  -0.000612  0.975889  -0.001
H  H3  1  0.37918171  0.16267435  0.39889532  1  0.104324  0.135505  -0.000612  0.975925  -0.001
H  H4  1  0.56747241  0.86359435  0.43732132  1  0.103512  0.128714  -0.000321  0.979718  0.0
H  H5  1  0.43252722  0.13640300  0.56267986  1  0.103523  0.128738  -0.000321  0.979704  0.0
H  H6  1  0.67652510  0.60181970  0.58447822  1  0.098648  0.100841  3e-05  1.02313  0.0
H  H7  1  0.32347488  0.39817436  0.41551793  1  0.098667  0.10088  3e-05  1.023121  0.0
H  H8  1  0.64184855  0.33799465  0.42911904  1  0.097941  0.102121  0.000191  1.037087  0.0
H  H9  1  0.35815097  0.66200161  0.57087593  1  0.09793  0.102112  0.00019  1.03706  0.0
H  H10  1  0.51422735  0.40280642  0.03815530  1  0.095592  0.094532  5.8e-05  1.04215  0.0
H  H11  1  0.48576921  0.59719533  0.96184202  1  0.09557  0.094477  5.8e-05  1.042137  0.0
H  H12  1  0.54815717  0.66874354  0.19532214  1  0.099982  0.09967  6e-05  1.017445  0.0
H  H13  1  0.45184149  0.33125821  0.80467857  1  0.099996  0.099692  5.9e-05  1.01744  0.0
H  H14  1  0.55343884  0.16814448  0.01658470  1  0.104069  0.133955  -0.000293  0.97364  0.0
H  H15  1  0.44656360  0.83185837  0.98341066  1  0.104085  0.133975  -0.000293  0.973564  0.0
H  H16  1  0.43559966  0.12979306  0.11266698  1  0.101392  0.126841  -0.00068  0.978766  -0.001
H  H17  1  0.56440296  0.87020209  0.88732449  1  0.101402  0.126848  -0.000679  0.978724  -0.001
H  H18  1  0.06367032  0.36882878  0.51403689  1  0.113744  0.080856  -0.000274  1.030771  -0.001
H  H19  1  0.93633113  0.63117517  0.48596440  1  0.113739  0.080853  -0.000274  1.030783  -0.001
H  H20  1  0.06317307  0.59788751  0.72370079  1  0.108127  0.127542  -0.000485  1.02957  0.0
H  H21  1  0.93682757  0.40211753  0.27630074  1  0.108119  0.127551  -0.000485  1.029618  0.0
H  H22  1  0.69854426  0.33685698  0.76982938  1  0.106447  0.112246  -0.000399  1.02553  0.0
H  H23  1  0.30146403  0.66314038  0.23017776  1  0.106447  0.112262  -0.000399  1.025534  0.0
H  H24  1  0.71069496  0.12110044  0.55527270  1  0.118954  0.088203  -0.000231  1.010451  -0.001
H  H25  1  0.28931417  0.87889581  0.44473326  1  0.118937  0.088158  -0.000231  1.010523  -0.001
H  H26  1  0.90575106  0.77532850  0.80567592  1  0.111325  0.130555  -0.000304  1.020048  0.0
H  H27  1  0.09424589  0.22467106  0.19432448  1  0.111334  0.130583  -0.000303  1.019976  0.0
H  H28  1  0.88161407  0.97995939  0.02365113  1  0.117718  0.088867  -0.000189  1.023915  -0.001
H  H29  1  0.11837934  0.02003907  0.97634702  1  0.117725  0.088875  -0.00019  1.02395  -0.001
H  H30  1  0.82711195  0.71605073  0.22929505  1  0.11161  0.083035  -0.00015  1.056525  -0.001
H  H31  1  0.17288339  0.28395103  0.77070581  1  0.111616  0.083082  -0.00015  1.056485  -0.001
H  H32  1  0.83686476  0.49653024  0.01741587  1  0.105685  0.112306  -0.000351  1.011761  0.0
H  H33  1  0.16313523  0.50347261  0.98258752  1  0.105686  0.112331  -0.000351  1.011728  0.0
C  C34  1  0.80557383  0.88452837  0.52422080  1  0.219167  0.63683  0.001879  4.130073  -0.001
C  C35  1  0.19442722  0.11547008  0.47578019  1  0.219207  0.636832  0.001878  4.130077  -0.001
C  C36  1  0.64048646  0.81575939  0.49597650  1  -0.16025  -0.35463  -0.004964  3.939377  -0.007
C  C37  1  0.35951346  0.18423907  0.50402517  1  -0.160258  -0.354626  -0.004963  3.939403  -0.007
C  C38  1  0.61227033  0.65325556  0.40053317  1  -0.014758  0.125189  0.000682  3.987849  0.001
C  C39  1  0.38772856  0.34674290  0.59946633  1  -0.014758  0.125132  0.000682  3.98778  0.001
C  C40  1  0.64123057  0.55876813  0.46451309  1  -0.093395  -0.134288  -0.000344  4.001215  0.0
C  C41  1  0.35876832  0.44123032  0.53548641  1  -0.093437  -0.134336  -0.000343  4.001301  0.0
C  C42  1  0.62207791  0.40990161  0.37662674  1  -0.096118  -0.138557  0.000291  3.974385  0.0
C  C43  1  0.37791968  0.59009574  0.62336913  1  -0.096085  -0.138504  0.00029  3.974342  0.0
C  C44  1  0.57523610  0.35107762  0.22207899  1  -0.01024  0.139415  -0.000233  3.963956  0.0
C  C45  1  0.42476319  0.64892193  0.77791720  1  -0.010276  0.139324  -0.000233  3.964003  0.0
C  C46  1  0.54970893  0.44631727  0.15821385  1  -0.099181  -0.146732  -3e-06  4.002923  0.0
C  C47  1  0.45028734  0.55368339  0.84178298  1  -0.099154  -0.146647  -3e-06  4.002873  0.0
C  C48  1  0.56742692  0.59516530  0.24612164  1  -0.098783  -0.151007  -0.000194  4.02149  0.0
C  C49  1  0.43257029  0.40483535  0.75388021  1  -0.098789  -0.151033  -0.000194  4.021426  0.0
C  C50  1  0.54901337  0.18839005  0.12702056  1  -0.159432  -0.337801  -0.001746  3.921352  -0.002
C  C51  1  0.45098904  0.81160840  0.87297213  1  -0.15944  -0.337763  -0.001747  3.921282  -0.002
C  C52  1  0.66551668  0.12623730  0.19700021  1  0.193976  0.607365  0.00625  4.168163  0.006
C  C53  1  0.33448549  0.87376445  0.80299370  1  0.19398  0.607383  0.006249  4.168085  0.006
C  C54  1  0.98323675  0.36637911  0.57275964  1  0.047436  0.099201  0.008653  3.929267  0.005
C  C55  1  0.01676626  0.63362264  0.42724310  1  0.0475  0.099234  0.008652  3.929181  0.005
C  C56  1  0.98238698  0.49426660  0.68977564  1  -0.079403  -0.170475  -0.001321  3.899119  -0.003
C  C57  1  0.01761603  0.50573515  0.31022711  1  -0.079431  -0.170516  -0.001321  3.899178  -0.003
C  C58  1  0.87959528  0.48673275  0.76525085  1  0.010056  0.098599  0.013562  3.987599  0.008
C  C59  1  0.12040632  0.51326790  0.23475208  1  0.010068  0.098629  0.01356  3.987655  0.008
C  C60  1  0.78261032  0.34874913  0.71736817  1  -0.082196  -0.170881  -0.000889  3.946886  -0.002
C  C61  1  0.21739779  0.65125152  0.28263828  1  -0.082259  -0.170982  -0.000889  3.947007  -0.002
C  C62  1  0.78911193  0.22776658  0.59789053  1  0.045047  0.096459  0.009223  3.956934  0.005
C  C63  1  0.21089509  0.77223407  0.40211565  1  0.045077  0.096519  0.009221  3.957003  0.005
C  C64  1  0.87246415  0.61576327  0.89163632  1  0.008404  0.096667  0.01186  3.987265  0.007
C  C65  1  0.12753748  0.38423739  0.10836566  1  0.008424  0.096647  0.011858  3.987361  0.007
C  C66  1  0.88745425  0.75559122  0.89636189  1  -0.079342  -0.166165  -0.00106  3.90353  -0.002
C  C67  1  0.11254378  0.24440833  0.10363974  1  -0.079295  -0.166057  -0.001061  3.903399  -0.002
C  C68  1  0.87523589  0.87107299  0.01822309  1  0.046957  0.096939  0.008259  3.931621  0.005
C  C69  1  0.12475894  0.12892656  0.98177487  1  0.046926  0.096855  0.008257  3.931738  0.005
C  C70  1  0.84185584  0.72352789  0.13212146  1  0.039304  0.09049  0.007797  3.955032  0.004
C  C71  1  0.15814089  0.27647496  0.86788017  1  0.039345  0.090479  0.007796  3.955117  0.004
C  C72  1  0.84782044  0.60152907  0.01312897  1  -0.086041  -0.178163  -0.000703  3.966566  -0.002
C  C73  1  0.15217922  0.39847268  0.98687488  1  -0.086089  -0.17823  -0.000703  3.966757  -0.002
N  N74  1  0.88783116  0.23446386  0.52534989  1  -0.324007  -0.253889  -0.024179  3.577447  -0.042
N  N75  1  0.11217320  0.76553898  0.47465457  1  -0.32399  -0.253852  -0.02418  3.577456  -0.042
N  N76  1  0.85409685  0.85731837  0.13599751  1  -0.322077  -0.243055  -0.024629  3.544838  -0.045
N  N77  1  0.14589933  0.14268228  0.86400217  1  -0.322131  -0.243072  -0.024629  3.544947  -0.045
O  O78  1  0.83506775  0.91469111  0.42541854  1  -0.312882  -0.573093  -0.046969  2.517033  -0.075
O  O79  1  0.16493192  0.08531064  0.57458530  1  -0.312919  -0.573136  -0.046973  2.517108  -0.075
O  O80  1  0.90519569  0.89702835  0.63915138  1  -0.308217  -0.543184  -0.043804  2.31994  -0.07
O  O81  1  0.09480639  0.10296571  0.36084816  1  -0.308234  -0.543156  -0.043804  2.3199  -0.07
O  O82  1  0.80227395  0.15740161  0.19866073  1  -0.31912  -0.563231  -0.041724  2.208668  -0.068
O  O83  1  0.19773010  0.84260344  0.80133779  1  -0.319095  -0.563206  -0.041726  2.208578  -0.068
O  O84  1  0.62879606  0.04792146  0.25832989  1  -0.32716  -0.572176  -0.039842  2.168708  -0.068
O  O85  1  0.37120579  0.95207919  0.74166448  1  -0.327166  -0.572205  -0.039844  2.168768  -0.068
