# generated using pymatgen
data_LaH16C9O8
_symmetry_space_group_name_H-M   'P 1'
_cell_length_a   8.95040007
_cell_length_b   9.83979717
_cell_length_c   10.35220480
_cell_angle_alpha   68.65885744
_cell_angle_beta   78.19138540
_cell_angle_gamma   58.70068440
_symmetry_Int_Tables_number   1
_chemical_formula_structural   LaH16C9O8
_chemical_formula_sum   'La2 H32 C18 O16'
_cell_volume   725.47552986
_cell_formula_units_Z   2
loop_
 _symmetry_equiv_pos_site_id
 _symmetry_equiv_pos_as_xyz
  1  'x, y, z'
loop_
 _atom_site_type_symbol
 _atom_site_label
 _atom_site_symmetry_multiplicity
 _atom_site_fract_x
 _atom_site_fract_y
 _atom_site_fract_z
 _atom_site_occupancy
 _atom_site_hle17_bader_spin_density
 _atom_site_hle17_ddec_charge
 _atom_site_hle17_ddec_spin_density
 _atom_site_hle17_ddec_sum_bond_order
 _atom_site_hle17_magmom
 _atom_site_hse06_10hf_bader_spin_density
 _atom_site_hse06_10hf_ddec_charge
 _atom_site_hse06_10hf_ddec_spin_density
 _atom_site_hse06_10hf_ddec_sum_bond_order
 _atom_site_hse06_10hf_magmom
 _atom_site_hse06_bader_spin_density
 _atom_site_hse06_ddec_charge
 _atom_site_hse06_ddec_spin_density
 _atom_site_hse06_ddec_sum_bond_order
 _atom_site_hse06_magmom
 _atom_site_pbe_bader_spin_density
 _atom_site_pbe_cm5_charge
 _atom_site_pbe_ddec_charge
 _atom_site_pbe_ddec_spin_density
 _atom_site_pbe_ddec_sum_bond_order
 _atom_site_pbe_magmom
La  La0  1  0.77456936  0.95960845  0.00488123  1  0  2.08841  0  1.710672  0  0  1.961372  0  2.213874  0  0  2.064984  0  2.116648  0  0  1.363696  1.883642  0  2.282141  0
La  La1  1  0.22542133  0.04037634  0.99512448  1  0  2.088438  0  1.710497  0  0  1.961382  0  2.213716  0  0  2.064987  0  2.116514  0  0  1.363599  1.883641  0  2.282006  0
H  H2  1  0.69877604  0.84943995  0.59835669  1  0  0.103849  0  0.928153  0  0  0.120026  0  0.985104  0  0  0.122349  0  0.983751  0  0  0.10037  0.118239  0  0.986518  0
H  H3  1  0.30119306  0.15054821  0.40165939  1  0  0.103884  0  0.927987  0  0  0.119996  0  0.985011  0  0  0.122357  0  0.983618  0  0  0.100399  0.118211  0  0.986419  0
H  H4  1  0.49353790  0.02679281  0.60931752  1  0  0.11056  0  0.929001  0  0  0.127263  0  0.987431  0  0  0.129104  0  0.986769  0  0  0.108033  0.126171  0  0.988075  0
H  H5  1  0.50643914  0.97322204  0.39068253  1  0  0.110507  0  0.929202  0  0  0.127226  0  0.987598  0  0  0.129066  0  0.986948  0  0  0.108013  0.126134  0  0.988243  0
H  H6  1  0.36531178  0.85013054  0.75209469  1  0  0.069736  0  0.955593  0  0  0.085529  0  1.021465  0  0  0.085898  0  1.023053  0  0  0.099234  0.085232  0  1.020363  0
H  H7  1  0.63470197  0.14986190  0.24793152  1  0  0.069742  0  0.955494  0  0  0.08555  0  1.02139  0  0  0.085913  0  1.022976  0  0  0.099276  0.085255  0  1.020286  0
H  H8  1  0.44542278  0.81128177  0.59239173  1  0  0.058295  0  0.944597  0  0  0.077709  0  1.004737  0  0  0.078208  0  1.005184  0  0  0.089799  0.077248  0  1.004502  0
H  H9  1  0.55454476  0.18872172  0.40763379  1  0  0.05819  0  0.944565  0  0  0.07772  0  1.004635  0  0  0.07822  0  1.005067  0  0  0.089751  0.077252  0  1.004423  0
H  H10  1  0.71787368  0.55418853  0.71221274  1  0  0.057343  0  0.922641  0  0  0.080901  0  0.973416  0  0  0.081335  0  0.974206  0  0  0.08909  0.080388  0  0.973152  0
H  H11  1  0.28213450  0.44582205  0.28779343  1  0  0.057211  0  0.922625  0  0  0.08075  0  0.973465  0  0  0.081182  0  0.974254  0  0  0.089036  0.080235  0  0.973207  0
H  H12  1  0.62601995  0.59521065  0.87178347  1  0  0.066664  0  0.943266  0  0  0.085442  0  1.004352  0  0  0.086722  0  1.004194  0  0  0.094206  0.084528  0  1.004417  0
H  H13  1  0.37398006  0.40477384  0.12822016  1  0  0.066582  0  0.943241  0  0  0.085359  0  1.004368  0  0  0.08664  0  1.004208  0  0  0.094151  0.084445  0  1.004433  0
H  H14  1  0.36902690  0.57548337  0.84519527  1  0  0.122892  0  0.917083  0  0  0.13908  0  0.974144  0  0  0.14208  0  0.972173  0  0  0.111668  0.136765  0  0.9759  0
H  H15  1  0.63095541  0.42450272  0.15484206  1  0  0.122976  0  0.917065  0  0  0.139125  0  0.974128  0  0  0.14212  0  0.972162  0  0  0.11169  0.136839  0  0.975845  0
H  H16  1  0.45066118  0.53900445  0.68382772  1  0  0.101713  0  0.915493  0  0  0.119037  0  0.967642  0  0  0.12126  0  0.966573  0  0  0.100907  0.117364  0  0.968444  0
H  H17  1  0.54935340  0.46099545  0.31616290  1  0  0.10171  0  0.915584  0  0  0.11904  0  0.967698  0  0  0.121242  0  0.966652  0  0  0.100912  0.117361  0  0.968502  0
H  H18  1  0.18839761  0.84244690  0.35306339  1  0  0.109317  0  0.950393  0  0  0.119865  0  1.014989  0  0  0.122371  0  1.014313  0  0  0.102871  0.118144  0  1.015432  0
H  H19  1  0.81160635  0.15758071  0.64692778  1  0  0.109314  0  0.950448  0  0  0.119711  0  1.01516  0  0  0.122211  0  1.014486  0  0  0.102769  0.117994  0  1.015606  0
H  H20  1  0.06901566  0.74394200  0.46801320  1  0  0.100978  0  0.915763  0  0  0.117325  0  0.969033  0  0  0.119723  0  0.967567  0  0  0.098445  0.115509  0  0.970467  0
H  H21  1  0.93097996  0.25606497  0.53198811  1  0  0.100943  0  0.915851  0  0  0.117282  0  0.969065  0  0  0.119676  0  0.967598  0  0  0.098448  0.115466  0  0.970499  0
H  H22  1  0.93059527  0.12339593  0.35605200  1  0  0.077412  0  0.922226  0  0  0.097203  0  0.978402  0  0  0.098602  0  0.978155  0  0  0.096904  0.096096  0  0.978807  0
H  H23  1  0.06939222  0.87662348  0.64394318  1  0  0.077428  0  0.922259  0  0  0.097256  0  0.97843  0  0  0.098651  0  0.978183  0  0  0.09697  0.096149  0  0.978835  0
H  H24  1  0.82408698  0.01984761  0.48064075  1  0  0.057939  0  0.957728  0  0  0.075715  0  1.02247  0  0  0.076073  0  1.023473  0  0  0.088515  0.075427  0  1.021807  0
H  H25  1  0.17591004  0.98017240  0.51934234  1  0  0.057928  0  0.957758  0  0  0.07575  0  1.022494  0  0  0.076098  0  1.02351  0  0  0.08859  0.075465  0  1.021826  0
H  H26  1  0.79055895  0.69935070  0.25053622  1  0  0.425751  0  0.863294  0  0  0.403778  0  0.911763  0  0  0.413813  0  0.89697  0  0  0.307616  0.396532  0  0.922482  0
H  H27  1  0.20944198  0.30064705  0.74945498  1  0  0.425945  0  0.863187  0  0  0.404034  0  0.911448  0  0  0.414079  0  0.896643  0  0  0.307719  0.396786  0  0.922165  0
H  H28  1  0.63644008  0.71161989  0.18513526  1  0  0.430377  0  0.874473  0  0  0.400631  0  0.936032  0  0  0.411962  0  0.919798  0  0  0.297076  0.392491  0  0.947689  0
H  H29  1  0.36356279  0.28837894  0.81485242  1  0  0.4303  0  0.874574  0  0  0.4006  0  0.936064  0  0  0.411934  0  0.919824  0  0  0.297023  0.392459  0  0.947721  0
H  H30  1  0.17040919  0.67899877  0.02922389  1  0  0.433355  0  0.875226  0  0  0.398101  0  0.946915  0  0  0.410006  0  0.929756  0  0  0.298931  0.389564  0  0.959205  0
H  H31  1  0.82959618  0.32098917  0.97077496  1  0  0.433341  0  0.875261  0  0  0.398095  0  0.94694  0  0  0.409998  0  0.929784  0  0  0.298934  0.389556  0  0.959233  0
H  H32  1  0.05535772  0.58527487  0.07920216  1  0  0.435864  0  0.817425  0  0  0.41963  0  0.870543  0  0  0.428248  0  0.85817  0  0  0.328847  0.413344  0  0.877412  0
H  H33  1  0.94463082  0.41472700  0.92079118  1  0  0.435893  0  0.817336  0  0  0.419668  0  0.870434  0  0  0.428287  0  0.858097  0  0  0.328863  0.413381  0  0.877305  0
C  C34  1  0.63530022  0.89721400  0.79304011  1  0  0.729266  0  3.821017  0  0  0.689591  0  4.118013  0  0  0.724766  0  4.111889  0  0  0.219664  0.665436  0  4.120295  0
C  C35  1  0.36472633  0.10278587  0.20695767  1  0  0.728774  0  3.821642  0  0  0.689248  0  4.118424  0  0  0.724424  0  4.112315  0  0  0.219616  0.665092  0  4.120703  0
C  C36  1  0.58209001  0.89502524  0.66461677  1  0  -0.272927  0  3.682295  0  0  -0.314481  0  3.937966  0  0  -0.319661  0  3.944855  0  0  -0.160664  -0.311092  0  3.933349  0
C  C37  1  0.41789203  0.10498490  0.33539489  1  0  -0.272702  0  3.682218  0  0  -0.314262  0  3.93792  0  0  -0.319489  0  3.944817  0  0  -0.160564  -0.310871  0  3.933309  0
C  C38  1  0.48624972  0.79614750  0.69231876  1  0  -0.083187  0  3.699602  0  0  -0.125071  0  3.964875  0  0  -0.125504  0  3.979713  0  0  -0.161531  -0.124483  0  3.954442  0
C  C39  1  0.51375431  0.20383616  0.30769916  1  0  -0.083025  0  3.699131  0  0  -0.125041  0  3.964591  0  0  -0.125448  0  3.979414  0  0  -0.161505  -0.124468  0  3.954177  0
C  C40  1  0.59349451  0.61056741  0.76873673  1  0  -0.080759  0  3.694895  0  0  -0.122731  0  3.956866  0  0  -0.123077  0  3.970748  0  0  -0.164618  -0.122301  0  3.947038  0
C  C41  1  0.40650304  0.38940990  0.23127357  1  0  -0.080431  0  3.694687  0  0  -0.122462  0  3.956774  0  0  -0.122814  0  3.970638  0  0  -0.164514  -0.122038  0  3.946952  0
C  C42  1  0.49059829  0.52041804  0.78521385  1  0  -0.267162  0  3.675996  0  0  -0.30367  0  3.929417  0  0  -0.30891  0  3.93635  0  0  -0.160602  -0.300306  0  3.924953  0
C  C43  1  0.50937675  0.47956989  0.21479960  1  0  -0.267419  0  3.676368  0  0  -0.303791  0  3.929708  0  0  -0.309006  0  3.93664  0  0  -0.160643  -0.300422  0  3.925203  0
C  C44  1  0.58611786  0.33527786  0.85991250  1  0  0.711429  0  3.806854  0  0  0.662548  0  4.109254  0  0  0.696036  0  4.104515  0  0  0.218203  0.639796  0  4.111438  0
C  C45  1  0.41387849  0.66471170  0.14009083  1  0  0.711562  0  3.806659  0  0  0.662628  0  4.109064  0  0  0.696113  0  4.104322  0  0  0.218243  0.639866  0  4.111256  0
C  C46  1  0.96559435  0.88653188  0.26421021  1  0  0.726646  0  3.828407  0  0  0.683921  0  4.130176  0  0  0.718809  0  4.123867  0  0  0.220832  0.6598  0  4.133644  0
C  C47  1  0.03440629  0.11347088  0.73578124  1  0  0.726978  0  3.82777  0  0  0.683957  0  4.129891  0  0  0.718842  0  4.123578  0  0  0.220824  0.659834  0  4.133362  0
C  C48  1  0.05725556  0.85788400  0.38623136  1  0  -0.272633  0  3.671623  0  0  -0.311302  0  3.925645  0  0  -0.316909  0  3.932281  0  0  -0.163712  -0.307282  0  3.921029  0
C  C49  1  0.94274918  0.14211985  0.61375822  1  0  -0.272637  0  3.671857  0  0  -0.310949  0  3.925762  0  0  -0.316549  0  3.932409  0  0  -0.16357  -0.306937  0  3.921151  0
C  C50  1  0.95256371  0.00870865  0.44180508  1  0  -0.07702  0  3.665423  0  0  -0.118851  0  3.929318  0  0  -0.119287  0  3.943027  0  0  -0.158888  -0.1183  0  3.919764  0
C  C51  1  0.04743707  0.99130283  0.55818626  1  0  -0.076986  0  3.66558  0  0  -0.119045  0  3.92958  0  0  -0.119468  0  3.943275  0  0  -0.159082  -0.118495  0  3.920032  0
O  O52  1  0.78659738  0.87608076  0.79805199  1  0  -0.651747  0  1.918782  0  0  -0.608072  0  2.154064  0  0  -0.639306  0  2.145641  0  0  -0.367277  -0.585666  0  2.158794  0
O  O53  1  0.21343554  0.12392846  0.20193207  1  0  -0.651549  0  1.919336  0  0  -0.607915  0  2.154564  0  0  -0.639152  0  2.146149  0  0  -0.36726  -0.585509  0  2.15929  0
O  O54  1  0.52407233  0.92599850  0.89368181  1  0  -0.760302  0  2.035246  0  0  -0.712106  0  2.302044  0  0  -0.750905  0  2.296387  0  0  -0.405671  -0.683503  0  2.304307  0
O  O55  1  0.47596835  0.07399745  0.10632032  1  0  -0.760289  0  2.035498  0  0  -0.712076  0  2.302081  0  0  -0.750873  0  2.296419  0  0  -0.405807  -0.683473  0  2.304345  0
O  O56  1  0.57110347  0.23509948  0.81840095  1  0  -0.69306  0  2.009645  0  0  -0.637443  0  2.241634  0  0  -0.668463  0  2.233639  0  0  -0.35262  -0.615442  0  2.246482  0
O  O57  1  0.42890460  0.76489554  0.18158833  1  0  -0.693061  0  2.009482  0  0  -0.637458  0  2.241537  0  0  -0.668488  0  2.233568  0  0  -0.352633  -0.615452  0  2.246377  0
O  O58  1  0.67949382  0.27775483  0.96495285  1  0  -0.675668  0  2.009998  0  0  -0.616755  0  2.24912  0  0  -0.648577  0  2.243108  0  0  -0.336874  -0.594114  0  2.252473  0
O  O59  1  0.32052345  0.72224240  0.03503447  1  0  -0.675773  0  2.010024  0  0  -0.61677  0  2.249067  0  0  -0.648591  0  2.243054  0  0  -0.336871  -0.594128  0  2.252422  0
O  O60  1  0.85272498  0.83984233  0.28122433  1  0  -0.694368  0  1.937657  0  0  -0.647175  0  2.169629  0  0  -0.676503  0  2.158998  0  0  -0.351055  -0.626546  0  2.176514  0
O  O61  1  0.14728012  0.16015647  0.71876403  1  0  -0.6946  0  1.937475  0  0  -0.647329  0  2.169608  0  0  -0.676659  0  2.158977  0  0  -0.35105  -0.626698  0  2.176492  0
O  O62  1  0.99635549  0.96736019  0.14186796  1  0  -0.75011  0  2.020136  0  0  -0.696375  0  2.28179  0  0  -0.735437  0  2.276708  0  0  -0.403988  -0.667721  0  2.284028  0
O  O63  1  0.00364949  0.03264891  0.85812946  1  0  -0.750189  0  2.019841  0  0  -0.696352  0  2.281598  0  0  -0.735413  0  2.276517  0  0  -0.403977  -0.667699  0  2.283836  0
O  O64  1  0.75958502  0.69119312  0.16904386  1  0  -0.871737  0  1.80024  0  0  -0.825992  0  1.956697  0  0  -0.850465  0  1.924925  0  0  -0.624749  -0.808261  0  1.978934  0
O  O65  1  0.24041717  0.30880700  0.83094443  1  0  -0.871885  0  1.800218  0  0  -0.826251  0  1.956406  0  0  -0.850733  0  1.924617  0  0  -0.624789  -0.808514  0  1.978657  0
O  O66  1  0.05848013  0.68527246  0.01684558  1  0  -0.867087  0  1.834127  0  0  -0.824641  0  2.027075  0  0  -0.849334  0  1.995046  0  0  -0.622594  -0.80669  0  2.047397  0
O  O67  1  0.94152416  0.31472281  0.98314798  1  0  -0.867132  0  1.834076  0  0  -0.824677  0  2.026994  0  0  -0.849367  0  1.994999  0  0  -0.622624  -0.806727  0  2.047332  0
