# generated using pymatgen
data_ZnH6C12SN2O9
_symmetry_space_group_name_H-M   'P 1'
_cell_length_a   9.68705133
_cell_length_b   10.88658748
_cell_length_c   10.89253339
_cell_angle_alpha   88.04649872
_cell_angle_beta   89.99933966
_cell_angle_gamma   90.00009213
_symmetry_Int_Tables_number   1
_chemical_formula_structural   ZnH6C12SN2O9
_chemical_formula_sum   'Zn2 H12 C24 S2 N4 O18'
_cell_volume   1148.04732666
_cell_formula_units_Z   2
loop_
 _symmetry_equiv_pos_site_id
 _symmetry_equiv_pos_as_xyz
  1  'x, y, z'
loop_
 _atom_site_type_symbol
 _atom_site_label
 _atom_site_symmetry_multiplicity
 _atom_site_fract_x
 _atom_site_fract_y
 _atom_site_fract_z
 _atom_site_occupancy
 _atom_site_pbe_bader_charge
 _atom_site_pbe_bader_spin_density
 _atom_site_pbe_cm5_charge
 _atom_site_pbe_ddec_charge
 _atom_site_pbe_ddec_spin_density
 _atom_site_pbe_ddec_sum_bond_order
 _atom_site_pbe_magmom
Zn  Zn0  1  0.63880381  0.49999390  0.50000232  1  1.302556  0  0.681056  0.834288  0  2.426756  0
Zn  Zn1  1  0.34760581  0.49999920  0.50000381  1  1.286199  0  0.674927  0.815534  0  2.423239  0
H  H2  1  0.27948239  0.88398931  0.48647892  1  0.140161  0  0.109151  0.115722  0  1.020983  0
H  H3  1  0.27947931  0.11599957  0.51349466  1  0.1403  0  0.109059  0.115579  0  1.021142  0
H  H4  1  0.26730346  0.51348084  0.88490401  1  0.090185  0  0.101449  0.102839  0  1.007435  0
H  H5  1  0.26730511  0.48651731  0.11511090  1  0.089847  0  0.101469  0.10282  0  1.007475  0
H  H6  1  0.71031401  0.48848217  0.11536576  1  0.099088  0  0.102117  0.107604  0  1.005402  0
H  H7  1  0.71030823  0.51154162  0.88463485  1  0.099766  0  0.102078  0.107604  0  1.005516  0
H  H8  1  0.12491859  0.38219590  0.35427435  1  0.132976  0  0.139943  0.121649  0  0.962257  0
H  H9  1  0.12490775  0.61781046  0.64573462  1  0.132622  0  0.1399  0.121579  0  0.96222  0
H  H10  1  0.86022491  0.38347837  0.35336306  1  0.130592  0  0.140344  0.120354  0  0.954537  0
H  H11  1  0.86021200  0.61652082  0.64663721  1  0.130511  0  0.14032  0.120319  0  0.954509  0
H  H12  1  0.92682679  0.85895920  0.17483853  1  0.663111  0  0.354435  0.410483  0  0.829784  0
H  H13  1  0.92680957  0.14103803  0.82517207  1  0.662715  0  0.354486  0.410628  0  0.829697  0
C  C14  1  0.48858639  0.52685163  0.73503634  1  1.531362  0  0.218896  0.596486  0  4.157226  0
C  C15  1  0.48858822  0.47314696  0.26497067  1  1.531442  0  0.21888  0.59652  0  4.156776  0
C  C16  1  0.49557394  0.73926344  0.46131064  1  1.629554  0  0.216805  0.591436  0  4.189507  0
C  C17  1  0.49556674  0.26072798  0.53868723  1  1.62878  0  0.21686  0.591526  0  4.189612  0
C  C18  1  0.75283121  0.90026954  0.41849220  1  -0.002327  0  0.015876  -0.11106  0  3.787781  0
C  C19  1  0.75282414  0.09972597  0.58150101  1  -0.002966  0  0.015974  -0.110903  0  3.787711  0
C  C20  1  0.87416621  0.95470670  0.45456457  1  0.197111  0  0.079271  0.005919  0  3.956125  0
C  C21  1  0.87415947  0.04530186  0.54542715  1  0.299816  0  0.079215  0.005703  0  3.95636  0
C  C22  1  0.62520664  0.05827212  0.52881417  1  0.000179  0  0.02039  0.072367  0  3.88544  0
C  C23  1  0.62521211  0.94172504  0.47118039  1  0.05197  0  0.020399  0.072268  0  3.885403  0
C  C24  1  0.49709568  0.87669645  0.46606858  1  -0.033622  0  0.000165  -0.050499  0  3.893501  0
C  C25  1  0.49709236  0.12329419  0.53392285  1  -0.033328  0  7.4e-05  -0.05076  0  3.893748  0
C  C26  1  0.37472091  0.93688929  0.48867411  1  0.059358  0  -0.059509  -0.047586  0  3.902249  0
C  C27  1  0.37471980  0.06310044  0.51130855  1  -0.017402  0  -0.059409  -0.047279  0  3.902333  0
C  C28  1  0.36358527  0.50779734  0.93642972  1  -0.098699  0  -0.083208  -0.093278  0  3.981308  0
C  C29  1  0.36358860  0.49220564  0.06357949  1  -0.014864  0  -0.083242  -0.093292  0  3.981222  0
C  C30  1  0.48877387  0.48470310  0.12794804  1  0.042378  0  -0.012578  -0.017351  0  3.949605  0
C  C31  1  0.48877031  0.51530374  0.87205977  1  0.042121  0  -0.012561  -0.017399  0  3.949943  0
C  C32  1  0.61406524  0.49277398  0.06364984  1  -0.09633  0  -0.082612  -0.091723  0  3.970262  0
C  C33  1  0.61406397  0.50724227  0.93635466  1  -0.010154  0  -0.082542  -0.091757  0  3.970366  0
C  C34  1  0.06438074  0.43424964  0.41893008  1  0.471758  0  0.081124  0.067378  0  3.852409  0
C  C35  1  0.06437162  0.56575580  0.58107496  1  0.472284  0  0.081018  0.067388  0  3.852457  0
C  C36  1  0.92073627  0.43466965  0.41871467  1  0.637315  0  0.082275  0.077419  0  3.848705  0
C  C37  1  0.92073231  0.56533321  0.58128950  1  0.637142  0  0.082374  0.077508  0  3.848482  0
S  S38  1  0.74586185  0.81123860  0.27725005  1  3.089933  0  0.552385  1.159955  0  5.917415  0
S  S39  1  0.74582227  0.18872993  0.72276016  1  3.09051  0  0.552669  1.160106  0  5.916492  0
N  N40  1  0.85058549  0.49999775  0.50000021  1  -1.245791  0  -0.292055  -0.13823  0  3.505471  0
N  N41  1  0.13473402  0.50000365  0.50000396  1  -1.238563  0  -0.290688  -0.140603  0  3.489296  0
N  N42  1  0.00796592  0.93211371  0.39513704  1  0.414415  0  0.047868  0.492978  0  4.275653  0
N  N43  1  0.00795540  0.06789644  0.60485844  1  0.414228  0  0.048098  0.493283  0  4.275788  0
O  O44  1  0.60542414  0.52628639  0.68132513  1  -1.169183  0  -0.314858  -0.545929  0  2.361718  0
O  O45  1  0.60542530  0.47370042  0.31868081  1  -1.169389  0  -0.314841  -0.54599  0  2.361462  0
O  O46  1  0.37161719  0.53423515  0.68115023  1  -1.16601  0  -0.319779  -0.554895  0  2.339597  0
O  O47  1  0.37161833  0.46576607  0.31885525  1  -1.165955  0  -0.319719  -0.55487  0  2.339534  0
O  O48  1  0.61338263  0.68748996  0.47157416  1  -1.161384  0  -0.304234  -0.551739  0  2.406606  0
O  O49  1  0.61337877  0.31250057  0.52842980  1  -1.161155  0  -0.304265  -0.551792  0  2.406796  0
O  O50  1  0.37971822  0.68609561  0.45708736  1  -1.148951  0  -0.303948  -0.519292  0  2.308849  0
O  O51  1  0.37971418  0.31389754  0.54290896  1  -1.148634  0  -0.303996  -0.519365  0  2.308836  0
O  O52  1  0.81648894  0.69559690  0.28701986  1  -1.275749  0  -0.295357  -0.517957  0  2.224696  0
O  O53  1  0.60836005  0.82373096  0.23082267  1  -1.258642  0  -0.279024  -0.471393  0  2.134085  0
O  O54  1  0.83961445  0.90175078  0.18965289  1  -1.202433  0  -0.363636  -0.535612  0  2.117603  0
O  O55  1  0.81645695  0.30440370  0.71299923  1  -1.275816  0  -0.295551  -0.518259  0  2.223417  0
O  O56  1  0.60835392  0.17622288  0.76917820  1  -1.259111  0  -0.279129  -0.47123  0  2.134665  0
O  O57  1  0.83960971  0.09823371  0.81034598  1  -1.202025  0  -0.363744  -0.535849  0  2.117493  0
O  O58  1  0.04458797  0.82469360  0.38130546  1  -0.443507  0  -0.109484  -0.308118  0  1.966827  0
O  O59  1  0.07494112  0.02508336  0.36315256  1  -0.4485  0  -0.120817  -0.311428  0  1.903441  0
O  O60  1  0.04457132  0.17532204  0.61869322  1  -0.443607  0  -0.109642  -0.308273  0  1.966529  0
O  O61  1  0.07493015  0.97493314  0.63685129  1  -0.448191  0  -0.120927  -0.311537  0  1.903893  0
