# generated using pymatgen
data_ZnH10C12N2(ClO)2
_symmetry_space_group_name_H-M   'P 1'
_cell_length_a   8.83012536
_cell_length_b   11.26170391
_cell_length_c   15.97112596
_cell_angle_alpha   69.44731426
_cell_angle_beta   73.93982450
_cell_angle_gamma   66.91223812
_symmetry_Int_Tables_number   1
_chemical_formula_structural   ZnH10C12N2(ClO)2
_chemical_formula_sum   'Zn4 H40 C48 N8 Cl8 O8'
_cell_volume   1350.08069776
_cell_formula_units_Z   4
loop_
 _symmetry_equiv_pos_site_id
 _symmetry_equiv_pos_as_xyz
  1  'x, y, z'
loop_
 _atom_site_type_symbol
 _atom_site_label
 _atom_site_symmetry_multiplicity
 _atom_site_fract_x
 _atom_site_fract_y
 _atom_site_fract_z
 _atom_site_occupancy
 _atom_site_hle17_bader_spin_density
 _atom_site_hle17_ddec_charge
 _atom_site_hle17_ddec_spin_density
 _atom_site_hle17_ddec_sum_bond_order
 _atom_site_hle17_magmom
 _atom_site_hse06_10hf_bader_spin_density
 _atom_site_hse06_10hf_ddec_charge
 _atom_site_hse06_10hf_ddec_spin_density
 _atom_site_hse06_10hf_ddec_sum_bond_order
 _atom_site_hse06_10hf_magmom
 _atom_site_hse06_bader_spin_density
 _atom_site_hse06_ddec_charge
 _atom_site_hse06_ddec_spin_density
 _atom_site_hse06_ddec_sum_bond_order
 _atom_site_hse06_magmom
 _atom_site_pbe_bader_spin_density
 _atom_site_pbe_cm5_charge
 _atom_site_pbe_ddec_charge
 _atom_site_pbe_ddec_spin_density
 _atom_site_pbe_ddec_sum_bond_order
 _atom_site_pbe_magmom
Zn  Zn0  1  0.11313648  0.67360580  0.95046898  1  0  0.913937  0  2.058759  0  0  0.742005  0  2.557318  0  0  0.784559  0  2.50552  0  0  0.549281  0.712538  0  2.59256  0
Zn  Zn1  1  0.73704623  0.82623318  0.54953527  1  0  0.913439  0  2.058561  0  0  0.742092  0  2.556894  0  0  0.784625  0  2.505131  0  0  0.549551  0.712586  0  2.59231  0
Zn  Zn2  1  0.88686447  0.32639709  0.04953024  1  0  0.913948  0  2.058866  0  0  0.742034  0  2.557422  0  0  0.784585  0  2.505621  0  0  0.549288  0.712555  0  2.592674  0
Zn  Zn3  1  0.26295050  0.17376567  0.45046583  1  0  0.91341  0  2.058623  0  0  0.74206  0  2.55692  0  0  0.7846  0  2.505159  0  0  0.549545  0.712551  0  2.592339  0
H  H4  1  0.19238930  0.38781308  0.23033351  1  0  0.126082  0  0.951678  0  0  0.132965  0  1.02326  0  0  0.135109  0  1.022312  0  0  0.107303  0.131398  0  1.024082  0
H  H5  1  0.81069548  0.11213180  0.26967063  1  0  0.125427  0  0.952022  0  0  0.132583  0  1.023511  0  0  0.134682  0  1.022603  0  0  0.106752  0.131066  0  1.02421  0
H  H6  1  0.80760624  0.61218779  0.76966643  1  0  0.126124  0  0.95167  0  0  0.132947  0  1.023316  0  0  0.135108  0  1.022354  0  0  0.107291  0.131383  0  1.024134  0
H  H7  1  0.18930611  0.88786405  0.73033092  1  0  0.12541  0  0.951964  0  0  0.132581  0  1.023437  0  0  0.134679  0  1.022532  0  0  0.106752  0.131068  0  1.024135  0
H  H8  1  0.39999495  0.34874207  0.16755549  1  0  0.126183  0  0.930374  0  0  0.134569  0  0.995583  0  0  0.13733  0  0.993694  0  0  0.114278  0.132566  0  0.997106  0
H  H9  1  0.91619480  0.15122091  0.33255020  1  0  0.126162  0  0.930373  0  0  0.134646  0  0.995662  0  0  0.137376  0  0.993809  0  0  0.114565  0.132669  0  0.997088  0
H  H10  1  0.60000403  0.65125680  0.83244453  1  0  0.12619  0  0.930385  0  0  0.134574  0  0.995578  0  0  0.137339  0  0.993689  0  0  0.114274  0.132572  0  0.997103  0
H  H11  1  0.08380479  0.84877494  0.66745099  1  0  0.126164  0  0.930312  0  0  0.134618  0  0.995633  0  0  0.137347  0  0.993781  0  0  0.11456  0.132644  0  0.997058  0
H  H12  1  0.10892313  0.57071118  0.30193712  1  0  0.114453  0  0.917393  0  0  0.124338  0  0.973868  0  0  0.127462  0  0.970401  0  0  0.135152  0.121903  0  0.976657  0
H  H13  1  0.98165718  0.92946703  0.19806346  1  0  0.113816  0  0.918376  0  0  0.123303  0  0.975398  0  0  0.126438  0  0.971896  0  0  0.133992  0.120839  0  0.978234  0
H  H14  1  0.89107401  0.42928667  0.69806416  1  0  0.114408  0  0.917409  0  0  0.12433  0  0.973848  0  0  0.127456  0  0.970376  0  0  0.135139  0.121895  0  0.976636  0
H  H15  1  0.01834800  0.07052981  0.80193863  1  0  0.113764  0  0.918384  0  0  0.123306  0  0.975356  0  0  0.126443  0  0.971849  0  0  0.133976  0.120842  0  0.978193  0
H  H16  1  0.60015653  0.36314882  0.21298260  1  0  0.103619  0  0.967806  0  0  0.106451  0  1.040973  0  0  0.109576  0  1.037696  0  0  0.118964  0.103933  0  1.043689  0
H  H17  1  0.17645609  0.13678991  0.28712456  1  0  0.103608  0  0.967228  0  0  0.1063  0  1.040513  0  0  0.10944  0  1.037232  0  0  0.118453  0.103812  0  1.043173  0
H  H18  1  0.39984100  0.63685205  0.78701769  1  0  0.103607  0  0.967804  0  0  0.106443  0  1.040972  0  0  0.109568  0  1.037695  0  0  0.118972  0.103926  0  1.043689  0
H  H19  1  0.82354265  0.86321197  0.71287510  1  0  0.103573  0  0.9673  0  0  0.10631  0  1.040535  0  0  0.10945  0  1.037258  0  0  0.118415  0.103822  0  1.043199  0
H  H20  1  0.19410050  0.66790686  0.39068351  1  0  0.136569  0  0.971036  0  0  0.142105  0  1.035882  0  0  0.14672  0  1.033128  0  0  0.114869  0.138676  0  1.038069  0
H  H21  1  0.25285909  0.83219115  0.10934289  1  0  0.136383  0  0.971132  0  0  0.141742  0  1.036139  0  0  0.146347  0  1.033414  0  0  0.114914  0.138291  0  1.038422  0
H  H22  1  0.80589602  0.33209099  0.60931840  1  0  0.13649  0  0.971124  0  0  0.142092  0  1.035896  0  0  0.146664  0  1.033197  0  0  0.114858  0.138662  0  1.038084  0
H  H23  1  0.74714409  0.16780569  0.89065884  1  0  0.136373  0  0.971126  0  0  0.141734  0  1.036129  0  0  0.146334  0  1.033428  0  0  0.11491  0.138284  0  1.038405  0
H  H24  1  0.70872729  0.44793252  0.29756867  1  0  0.12641  0  0.974591  0  0  0.13283  0  1.036856  0  0  0.13669  0  1.034933  0  0  0.103587  0.12993  0  1.038634  0
H  H25  1  0.45449375  0.05206309  0.20247100  1  0  0.125699  0  0.975846  0  0  0.13232  0  1.037954  0  0  0.136174  0  1.036066  0  0  0.103771  0.129437  0  1.039709  0
H  H26  1  0.29126862  0.55206834  0.70243207  1  0  0.12634  0  0.974697  0  0  0.132825  0  1.036889  0  0  0.136689  0  1.03496  0  0  0.103587  0.129923  0  1.038671  0
H  H27  1  0.54550641  0.94794081  0.79752723  1  0  0.125753  0  0.975803  0  0  0.132363  0  1.037922  0  0  0.136217  0  1.036034  0  0  0.103784  0.129479  0  1.039681  0
H  H28  1  0.28010571  0.74184273  0.46267254  1  0  0.120589  0  0.945995  0  0  0.130038  0  1.005441  0  0  0.133625  0  1.004084  0  0  0.110622  0.127388  0  1.006678  0
H  H29  1  0.48490562  0.75832601  0.03720487  1  0  0.121847  0  0.944741  0  0  0.130502  0  1.004968  0  0  0.134016  0  1.003712  0  0  0.110426  0.127802  0  1.006262  0
H  H30  1  0.71989303  0.25815915  0.53732712  1  0  0.120578  0  0.945985  0  0  0.130021  0  1.005443  0  0  0.13361  0  1.004081  0  0  0.110619  0.127373  0  1.006671  0
H  H31  1  0.51509317  0.24167791  0.96279238  1  0  0.121889  0  0.944738  0  0  0.130498  0  1.00501  0  0  0.134044  0  1.003716  0  0  0.110422  0.127785  0  1.006321  0
H  H32  1  0.78815858  0.53332176  0.35486391  1  0  0.114594  0  0.984875  0  0  0.124765  0  1.04422  0  0  0.128107  0  1.042749  0  0  0.099386  0.122255  0  1.045605  0
H  H33  1  0.67658824  0.96646337  0.14525714  1  0  0.115475  0  0.984063  0  0  0.125359  0  1.043633  0  0  0.128712  0  1.042152  0  0  0.099489  0.122923  0  1.044885  0
H  H34  1  0.21184061  0.46667813  0.64513531  1  0  0.1146  0  0.984873  0  0  0.124766  0  1.044225  0  0  0.128107  0  1.042755  0  0  0.099389  0.122257  0  1.04561  0
H  H35  1  0.32341267  0.03353748  0.85474450  1  0  0.115502  0  0.984064  0  0  0.125382  0  1.043628  0  0  0.128735  0  1.042148  0  0  0.099515  0.122948  0  1.044877  0
H  H36  1  0.39988841  0.83679402  0.53588469  1  0  0.096246  0  0.982105  0  0  0.099426  0  1.050943  0  0  0.102875  0  1.047873  0  0  0.110337  0.096728  0  1.053473  0
H  H37  1  0.77283805  0.66337434  0.96400669  1  0  0.095368  0  0.982745  0  0  0.098557  0  1.051684  0  0  0.102024  0  1.048554  0  0  0.110114  0.095853  0  1.054229  0
H  H38  1  0.60011195  0.16320786  0.46411452  1  0  0.096258  0  0.98208  0  0  0.09945  0  1.050914  0  0  0.102901  0  1.04784  0  0  0.110334  0.096751  0  1.053445  0
H  H39  1  0.22716332  0.33663058  0.03599092  1  0  0.095329  0  0.982769  0  0  0.098523  0  1.051704  0  0  0.10199  0  1.048574  0  0  0.110103  0.095819  0  1.054248  0
H  H40  1  0.88411773  0.63401806  0.43573811  1  0  0.086941  0  0.943948  0  0  0.094323  0  1.009398  0  0  0.097084  0  1.006618  0  0  0.116755  0.092238  0  1.011436  0
H  H41  1  0.95417000  0.86573981  0.06440789  1  0  0.088481  0  0.942404  0  0  0.095775  0  1.007979  0  0  0.098521  0  1.00522  0  0  0.117992  0.093675  0  1.010103  0
H  H42  1  0.11588205  0.36598283  0.56426111  1  0  0.086912  0  0.943969  0  0  0.094317  0  1.009399  0  0  0.097077  0  1.006618  0  0  0.116772  0.092234  0  1.011434  0
H  H43  1  0.04583291  0.13426103  0.93559411  1  0  0.088398  0  0.942513  0  0  0.095751  0  1.007999  0  0  0.098499  0  1.005236  0  0  0.117948  0.09365  0  1.010125  0
C  C44  1  0.22940920  0.55049177  0.11513483  1  0  0.683281  0  3.871139  0  0  0.636889  0  4.169963  0  0  0.670181  0  4.163719  0  0  0.207734  0.614202  0  4.173004  0
C  C45  1  0.89490874  0.94944358  0.38491948  1  0  0.681908  0  3.87357  0  0  0.635471  0  4.172771  0  0  0.66876  0  4.166583  0  0  0.207332  0.612801  0  4.175808  0
C  C46  1  0.77059178  0.44950710  0.88486555  1  0  0.68332  0  3.871066  0  0  0.636908  0  4.169899  0  0  0.670203  0  4.163653  0  0  0.207735  0.614224  0  4.17294  0
C  C47  1  0.10509881  0.05054628  0.61508082  1  0  0.681908  0  3.873251  0  0  0.635455  0  4.172493  0  0  0.668744  0  4.166309  0  0  0.207287  0.612785  0  4.175529  0
C  C48  1  0.29575739  0.42701442  0.19305010  1  0  -0.188206  0  3.578727  0  0  -0.245983  0  3.822024  0  0  -0.248162  0  3.829022  0  0  -0.056449  -0.244234  0  3.817292  0
C  C49  1  0.91584687  0.07293011  0.30704952  1  0  -0.188279  0  3.582613  0  0  -0.246437  0  3.825841  0  0  -0.248645  0  3.833057  0  0  -0.057867  -0.244697  0  3.820994  0
C  C50  1  0.70424017  0.57298546  0.80694956  1  0  -0.188335  0  3.578688  0  0  -0.246048  0  3.821996  0  0  -0.248253  0  3.828992  0  0  -0.056443  -0.244299  0  3.817268  0
C  C51  1  0.08415534  0.92706575  0.69295140  1  0  -0.188217  0  3.582495  0  0  -0.246385  0  3.825815  0  0  -0.248594  0  3.833031  0  0  -0.057879  -0.244655  0  3.820983  0
C  C52  1  0.23915011  0.54813182  0.30426459  1  0  0.121492  0  3.575344  0  0  0.075751  0  3.834194  0  0  0.086692  0  3.845837  0  0  0.071868  0.068288  0  3.826689  0
C  C53  1  0.09168723  0.95191519  0.19580906  1  0  0.123592  0  3.580047  0  0  0.07799  0  3.83842  0  0  0.088959  0  3.850056  0  0  0.072395  0.070532  0  3.831013  0
C  C54  1  0.76084659  0.45186803  0.69573714  1  0  0.121626  0  3.575336  0  0  0.075863  0  3.83419  0  0  0.086806  0  3.845819  0  0  0.071929  0.068402  0  3.826687  0
C  C55  1  0.90831537  0.04808368  0.80419088  1  0  0.123693  0  3.58009  0  0  0.078047  0  3.838471  0  0  0.089017  0  3.850111  0  0  0.072419  0.070588  0  3.831064  0
C  C56  1  0.51707954  0.42997164  0.25424508  1  0  0.108304  0  3.586686  0  0  0.067261  0  3.835065  0  0  0.076037  0  3.84949  0  0  0.067425  0.061335  0  3.826068  0
C  C57  1  0.20149764  0.06993733  0.24586898  1  0  0.10924  0  3.588331  0  0  0.068353  0  3.836998  0  0  0.077106  0  3.851442  0  0  0.068555  0.062604  0  3.827729  0
C  C58  1  0.48291840  0.57002822  0.74575540  1  0  0.108344  0  3.586679  0  0  0.067286  0  3.835097  0  0  0.076059  0  3.849522  0  0  0.067455  0.061359  0  3.826105  0
C  C59  1  0.79850089  0.93006354  0.75413149  1  0  0.109233  0  3.588434  0  0  0.068333  0  3.837038  0  0  0.077086  0  3.851479  0  0  0.068573  0.062584  0  3.827773  0
C  C60  1  0.29090060  0.59996483  0.35394360  1  0  -0.14388  0  3.652356  0  0  -0.165767  0  3.911088  0  0  -0.174159  0  3.929172  0  0  -0.072587  -0.160308  0  3.899233  0
C  C61  1  0.24499416  0.90006030  0.14612939  1  0  -0.145209  0  3.655907  0  0  -0.166904  0  3.913561  0  0  -0.175385  0  3.931642  0  0  -0.072763  -0.161602  0  3.901987  0
C  C62  1  0.70909631  0.40003300  0.64605911  1  0  -0.143885  0  3.652414  0  0  -0.165841  0  3.911141  0  0  -0.174201  0  3.929257  0  0  -0.072583  -0.16038  0  3.899285  0
C  C63  1  0.75501347  0.09993756  0.85387082  1  0  -0.145209  0  3.655961  0  0  -0.166896  0  3.913682  0  0  -0.175374  0  3.931744  0  0  -0.072747  -0.161591  0  3.902108  0
C  C64  1  0.57420498  0.47954970  0.30252168  1  0  -0.139472  0  3.678209  0  0  -0.158753  0  3.928875  0  0  -0.166556  0  3.94763  0  0  -0.071498  -0.15431  0  3.917225  0
C  C65  1  0.35653932  0.02041393  0.19755008  1  0  -0.139607  0  3.679977  0  0  -0.159889  0  3.930929  0  0  -0.167721  0  3.949614  0  0  -0.072941  -0.155193  0  3.919009  0
C  C66  1  0.42579196  0.52045017  0.69747861  1  0  -0.139424  0  3.678197  0  0  -0.158751  0  3.928839  0  0  -0.166557  0  3.9476  0  0  -0.071506  -0.154307  0  3.917188  0
C  C67  1  0.64345863  0.97958897  0.80244860  1  0  -0.139689  0  3.679956  0  0  -0.159932  0  3.9309  0  0  -0.167766  0  3.949589  0  0  -0.072967  -0.155236  0  3.918983  0
C  C68  1  0.46184509  0.56883710  0.35260280  1  0  0.115836  0  3.713148  0  0  0.122061  0  3.949727  0  0  0.129393  0  3.968334  0  0  0.023854  0.11725  0  3.937219  0
C  C69  1  0.38350423  0.93113267  0.14746717  1  0  0.116072  0  3.711418  0  0  0.123366  0  3.946183  0  0  0.130835  0  3.964492  0  0  0.024924  0.118518  0  3.933682  0
C  C70  1  0.53815348  0.43116277  0.64739705  1  0  0.115827  0  3.71312  0  0  0.122073  0  3.9497  0  0  0.129406  0  3.968301  0  0  0.023836  0.117263  0  3.93719  0
C  C71  1  0.61649775  0.06886922  0.85253160  1  0  0.116193  0  3.71129  0  0  0.12342  0  3.946161  0  0  0.13089  0  3.964476  0  0  0.024975  0.118573  0  3.93366  0
C  C72  1  0.52325538  0.62822699  0.40019519  1  0  0.085024  0  3.747529  0  0  0.098575  0  3.978719  0  0  0.101366  0  4.000407  0  0  0.010656  0.096903  0  3.96405  0
C  C73  1  0.55188476  0.87178356  0.09979494  1  0  0.086258  0  3.74748  0  0  0.099706  0  3.977908  0  0  0.102565  0  3.999363  0  0  0.010537  0.098016  0  3.963155  0
C  C74  1  0.47674480  0.37177289  0.59980421  1  0  0.085034  0  3.747525  0  0  0.098579  0  3.978703  0  0  0.101372  0  4.00039  0  0  0.010643  0.096905  0  3.964034  0
C  C75  1  0.44811422  0.12821834  0.90020329  1  0  0.086224  0  3.747489  0  0  0.099643  0  3.977982  0  0  0.102502  0  3.999443  0  0  0.010546  0.097953  0  3.963228  0
C  C76  1  0.41532952  0.71465392  0.45307260  1  0  -0.139339  0  3.654546  0  0  -0.159013  0  3.901434  0  0  -0.166235  0  3.92175  0  0  -0.075467  -0.154521  0  3.8882  0
C  C77  1  0.58331458  0.78546246  0.04685638  1  0  -0.14045  0  3.655368  0  0  -0.159582  0  3.902153  0  0  -0.166815  0  3.922528  0  0  -0.074989  -0.154932  0  3.888753  0
C  C78  1  0.58467167  0.28534596  0.54692698  1  0  -0.139325  0  3.65459  0  0  -0.158995  0  3.901485  0  0  -0.166217  0  3.921794  0  0  -0.075468  -0.1545  0  3.888253  0
C  C79  1  0.41668599  0.21454044  0.95314203  1  0  -0.140474  0  3.655356  0  0  -0.159557  0  3.902156  0  0  -0.166818  0  3.922517  0  0  -0.074985  -0.154901  0  3.888757  0
C  C80  1  0.69523689  0.59983328  0.39369618  1  0  -0.145048  0  3.684258  0  0  -0.164053  0  3.926552  0  0  -0.171661  0  3.947787  0  0  -0.079872  -0.159119  0  3.912441  0
C  C81  1  0.68897623  0.90008197  0.10635214  1  0  -0.149163  0  3.688132  0  0  -0.168122  0  3.93089  0  0  -0.17579  0  3.952069  0  0  -0.081862  -0.163217  0  3.916857  0
C  C82  1  0.30476167  0.40016660  0.60630366  1  0  -0.145065  0  3.684229  0  0  -0.164069  0  3.926545  0  0  -0.171678  0  3.947779  0  0  -0.07987  -0.159136  0  3.912436  0
C  C83  1  0.31102247  0.09991787  0.89364995  1  0  -0.14924  0  3.688319  0  0  -0.168162  0  3.93107  0  0  -0.175831  0  3.95225  0  0  -0.081928  -0.163258  0  3.917037  0
C  C84  1  0.48121899  0.76748983  0.49588891  1  0  0.136466  0  3.67152  0  0  0.10452  0  3.924805  0  0  0.111529  0  3.942144  0  0  0.050227  0.099967  0  3.913448  0
C  C85  1  0.74489081  0.73262217  0.00403840  1  0  0.13815  0  3.672929  0  0  0.106332  0  3.925666  0  0  0.113351  0  3.942945  0  0  0.05056  0.101699  0  3.914209  0
C  C86  1  0.51878316  0.23251103  0.50411148  1  0  0.13644  0  3.671531  0  0  0.104458  0  3.924815  0  0  0.111475  0  3.942159  0  0  0.050204  0.099898  0  3.913451  0
C  C87  1  0.25510876  0.26738073  0.99595983  1  0  0.138186  0  3.672825  0  0  0.10638  0  3.925554  0  0  0.113398  0  3.942842  0  0  0.050558  0.101747  0  3.91409  0
C  C88  1  0.75161382  0.65468243  0.43937685  1  0  0.13718  0  3.701747  0  0  0.104122  0  3.956028  0  0  0.11141  0  3.973795  0  0  0.047479  0.099372  0  3.944001  0
C  C89  1  0.84590353  0.84526091  0.06066345  1  0  0.138606  0  3.702271  0  0  0.105492  0  3.956186  0  0  0.112809  0  3.973968  0  0  0.047971  0.100673  0  3.944508  0
C  C90  1  0.24838799  0.34531745  0.56062210  1  0  0.137244  0  3.701744  0  0  0.104144  0  3.956033  0  0  0.111442  0  3.973801  0  0  0.047447  0.099384  0  3.944001  0
C  C91  1  0.15409518  0.15474196  0.93933685  1  0  0.138625  0  3.702503  0  0  0.105486  0  3.956397  0  0  0.112804  0  3.974178  0  0  0.047988  0.100667  0  3.944718  0
N  N92  1  0.87437413  0.76226499  0.01040997  1  0  -0.316843  0  3.319621  0  0  -0.234887  0  3.596777  0  0  -0.253932  0  3.612752  0  0  -0.326599  -0.2222  0  3.586077  0
N  N93  1  0.64676100  0.73773688  0.48958575  1  0  -0.315702  0  3.319325  0  0  -0.234012  0  3.597051  0  0  -0.25296  0  3.612844  0  0  -0.326322  -0.221311  0  3.586287  0
N  N94  1  0.12562561  0.23773689  0.98958988  1  0  -0.316752  0  3.31957  0  0  -0.234843  0  3.596793  0  0  -0.253886  0  3.612762  0  0  -0.326544  -0.222153  0  3.586086  0
N  N95  1  0.35324259  0.26226199  0.51041437  1  0  -0.315697  0  3.319242  0  0  -0.233955  0  3.596934  0  0  -0.25293  0  3.612753  0  0  -0.326262  -0.221237  0  3.58616  0
N  N96  1  0.35175661  0.46540337  0.25474627  1  0  0.019532  0  3.577929  0  0  0.113634  0  3.783314  0  0  0.100921  0  3.808867  0  0  -0.20986  0.121735  0  3.766394  0
N  N97  1  0.07204884  0.03457279  0.24535982  1  0  0.01881  0  3.58109  0  0  0.113333  0  3.785733  0  0  0.100637  0  3.811252  0  0  -0.208162  0.121268  0  3.768806  0
N  N98  1  0.64824113  0.53459548  0.74525501  1  0  0.019547  0  3.577971  0  0  0.113634  0  3.783362  0  0  0.100931  0  3.808907  0  0  -0.209898  0.121733  0  3.76645  0
N  N99  1  0.92795300  0.96542611  0.75463850  1  0  0.018757  0  3.581043  0  0  0.113284  0  3.785694  0  0  0.100587  0  3.811213  0  0  -0.208142  0.12122  0  3.768771  0
Cl  Cl100  1  0.26803085  0.81304151  0.89189645  1  0  -0.589156  0  0.924329  0  0  -0.530685  0  1.201776  0  0  -0.546294  0  1.177427  0  0  -0.311181  -0.518681  0  1.21833  0
Cl  Cl101  1  0.97294401  0.68700050  0.60803508  1  0  -0.588834  0  0.925024  0  0  -0.530372  0  1.202419  0  0  -0.546076  0  1.178121  0  0  -0.311041  -0.518511  0  1.219159  0
Cl  Cl102  1  0.73197303  0.18695942  0.10809981  1  0  -0.58917  0  0.924355  0  0  -0.530693  0  1.201794  0  0  -0.546307  0  1.177458  0  0  -0.311177  -0.51869  0  1.218352  0
Cl  Cl103  1  0.02705306  0.31299934  0.39196745  1  0  -0.58883  0  0.925031  0  0  -0.530368  0  1.202414  0  0  -0.54607  0  1.178111  0  0  -0.311055  -0.518509  0  1.219156  0
Cl  Cl104  1  0.07545537  0.60349036  0.84500129  1  0  -0.571868  0  0.94289  0  0  -0.510412  0  1.22188  0  0  -0.527033  0  1.200166  0  0  -0.315364  -0.497988  0  1.236824  0
Cl  Cl105  1  0.52385419  0.89636892  0.65504862  1  0  -0.57145  0  0.94311  0  0  -0.510028  0  1.221937  0  0  -0.526716  0  1.200246  0  0  -0.315536  -0.49781  0  1.23706  0
Cl  Cl106  1  0.92454161  0.39650851  0.15499838  1  0  -0.571893  0  0.942947  0  0  -0.510437  0  1.221945  0  0  -0.527056  0  1.20023  0  0  -0.315378  -0.498013  0  1.236888  0
Cl  Cl107  1  0.47614148  0.10363495  0.34495176  1  0  -0.571447  0  0.943168  0  0  -0.510033  0  1.222003  0  0  -0.526721  0  1.200311  0  0  -0.315542  -0.497818  0  1.237127  0
O  O108  1  0.23693492  0.52047503  0.04322873  1  0  -0.619575  0  2.077626  0  0  -0.541556  0  2.335631  0  0  -0.571585  0  2.323035  0  0  -0.323785  -0.520333  0  2.343451  0
O  O109  1  0.80048063  0.97943528  0.45683029  1  0  -0.617323  0  2.077023  0  0  -0.540173  0  2.335818  0  0  -0.570068  0  2.32307  0  0  -0.323474  -0.51902  0  2.343656  0
O  O110  1  0.76306565  0.47952483  0.95677148  1  0  -0.619621  0  2.077624  0  0  -0.541575  0  2.335628  0  0  -0.571604  0  2.323028  0  0  -0.323794  -0.520358  0  2.34345  0
O  O111  1  0.19951718  0.02056159  0.54316973  1  0  -0.617267  0  2.077055  0  0  -0.540103  0  2.335853  0  0  -0.569992  0  2.323103  0  0  -0.323419  -0.51896  0  2.343714  0
O  O112  1  0.17095342  0.66427774  0.12770747  1  0  -0.620631  0  1.950275  0  0  -0.576566  0  2.178481  0  0  -0.602059  0  2.172301  0  0  -0.31752  -0.557781  0  2.181752  0
O  O113  1  0.96261966  0.83570981  0.37225450  1  0  -0.621009  0  1.952286  0  0  -0.576643  0  2.18031  0  0  -0.602183  0  2.174189  0  0  -0.316915  -0.557877  0  2.18338  0
O  O114  1  0.82904973  0.33572313  0.87229310  1  0  -0.6206  0  1.950312  0  0  -0.576533  0  2.178528  0  0  -0.602028  0  2.172348  0  0  -0.317511  -0.557748  0  2.181794  0
O  O115  1  0.03738591  0.16429004  0.62774661  1  0  -0.621114  0  1.951819  0  0  -0.576756  0  2.179859  0  0  -0.602294  0  2.173733  0  0  -0.316971  -0.557987  0  2.182928  0
