# generated using pymatgen
data_CdH10C12(NO)4
_symmetry_space_group_name_H-M   'P 1'
_cell_length_a   17.56201148
_cell_length_b   17.56176868
_cell_length_c   17.56175217
_cell_angle_alpha   97.81505308
_cell_angle_beta   115.59543291
_cell_angle_gamma   115.59540595
_symmetry_Int_Tables_number   1
_chemical_formula_structural   CdH10C12(NO)4
_chemical_formula_sum   'Cd8 H80 C96 N32 O32'
_cell_volume   4044.14005730
_cell_formula_units_Z   8
loop_
 _symmetry_equiv_pos_site_id
 _symmetry_equiv_pos_as_xyz
  1  'x, y, z'
loop_
 _atom_site_type_symbol
 _atom_site_label
 _atom_site_symmetry_multiplicity
 _atom_site_fract_x
 _atom_site_fract_y
 _atom_site_fract_z
 _atom_site_occupancy
 _atom_site_pbe_bader_charge
 _atom_site_pbe_bader_spin_density
 _atom_site_pbe_cm5_charge
 _atom_site_pbe_ddec_charge
 _atom_site_pbe_ddec_spin_density
 _atom_site_pbe_ddec_sum_bond_order
 _atom_site_pbe_magmom
Cd  Cd0  1  0.45500043  0.05069961  0.16350089  1  1.23603  0  0.774845  0.852785  0  2.197399  0
Cd  Cd1  1  0.11279781  0.16350091  0.20849599  1  1.235584  0  0.774858  0.852811  0  2.197374  0
Cd  Cd2  1  0.38720123  0.59570120  0.05070025  1  1.237692  0  0.774857  0.852768  0  2.197411  0
Cd  Cd3  1  0.95500081  0.79150398  0.40429883  1  1.236468  0  0.774863  0.852773  0  2.197397  0
Cd  Cd4  1  0.61279857  0.40429849  0.94929928  1  1.23768  0  0.774867  0.852784  0  2.197414  0
Cd  Cd5  1  0.54499874  0.94929945  0.83649828  1  1.236026  0  0.774839  0.852767  0  2.197426  0
Cd  Cd6  1  0.88720199  0.83649879  0.79150411  1  1.23556  0  0.774852  0.852793  0  2.197412  0
Cd  Cd7  1  0.04499962  0.20849635  0.59570163  1  1.236518  0  0.774874  0.852817  0  2.197365  0
H  H8  1  0.55544555  0.81708755  0.11429147  1  0.561204  0  0.308652  0.293512  0  1.003894  0
H  H9  1  0.29720307  0.11429069  0.05884559  1  0.564214  0  0.308646  0.293473  0  1.003891  0
H  H10  1  0.20279689  0.26164064  0.81708801  1  0.56635  0  0.308676  0.293565  0  1.003891  0
H  H11  1  0.05544632  0.94115344  0.73835966  1  0.561845  0  0.308648  0.293454  0  1.003957  0
H  H12  1  0.79720291  0.73835906  0.18291209  1  0.566338  0  0.308656  0.293507  0  1.003912  0
H  H13  1  0.44455425  0.18291214  0.88570806  1  0.561207  0  0.308641  0.293415  0  1.003961  0
H  H14  1  0.70279673  0.88570901  0.94115394  1  0.564186  0  0.308635  0.293434  0  1.003912  0
H  H15  1  0.94455411  0.05884689  0.26164080  1  0.561841  0  0.308659  0.293481  0  1.003923  0
H  H16  1  0.70904194  0.32216752  0.12230111  1  0.558751  0  0.306886  0.292701  0  0.999208  0
H  H17  1  0.80013021  0.12230020  0.91325587  1  0.557479  0  0.30684  0.292632  0  0.99925  0
H  H18  1  0.69986693  0.61312633  0.32216724  1  0.551633  0  0.306887  0.292712  0  0.999177  0
H  H19  1  0.20904315  0.08674238  0.38687297  1  0.551054  0  0.306858  0.29267  0  0.999186  0
H  H20  1  0.30013286  0.38687336  0.67783285  1  0.551643  0  0.306885  0.292705  0  0.999187  0
H  H21  1  0.29095849  0.67783280  0.87769878  1  0.558758  0  0.306874  0.292712  0  0.999218  0
H  H22  1  0.19986959  0.87769950  0.08674366  1  0.557509  0  0.306843  0.292648  0  0.999249  0
H  H23  1  0.79095728  0.91325794  0.61312692  1  0.551081  0  0.306853  0.292669  0  0.999198  0
H  H24  1  0.64720271  0.03999509  0.33763085  1  0.103369  0  0.124928  0.121249  0  0.983367  0
H  H25  1  0.29763108  0.33762960  0.19042246  1  0.119079  0  0.124933  0.121243  0  0.983377  0
H  H26  1  0.20236653  0.39279283  0.03999470  1  0.112383  0  0.124945  0.121239  0  0.983356  0
H  H27  1  0.14720231  0.80957584  0.60720654  1  0.084326  0  0.124927  0.121223  0  0.983366  0
H  H28  1  0.79763368  0.60720659  0.96000554  1  0.113099  0  0.124946  0.121239  0  0.983371  0
H  H29  1  0.35279708  0.96000460  0.66236868  1  0.103358  0  0.124925  0.121255  0  0.983364  0
H  H30  1  0.70236830  0.66237036  0.80957692  1  0.119087  0  0.124915  0.121171  0  0.983416  0
H  H31  1  0.85279748  0.19042386  0.39279356  1  0.084329  0  0.124933  0.121239  0  0.983336  0
H  H32  1  0.44274864  0.87706919  0.05368503  1  0.176723  0  0.136431  0.101008  0  1.030074  0
H  H33  1  0.17661218  0.05368419  0.11093366  1  0.171613  0  0.136448  0.101023  0  1.030061  0
H  H34  1  0.32338588  0.43432089  0.87707037  1  0.161726  0  0.13644  0.101  0  1.030047  0
H  H35  1  0.94275018  0.88906470  0.56567981  1  0.170679  0  0.136445  0.101032  0  1.030049  0
H  H36  1  0.67661392  0.56567881  0.12292972  1  0.161691  0  0.136436  0.101005  0  1.030054  0
H  H37  1  0.55725116  0.12293050  0.94631507  1  0.176704  0  0.13643  0.100998  0  1.030087  0
H  H38  1  0.82338678  0.94631605  0.88906558  1  0.171602  0  0.136436  0.101013  0  1.03005  0
H  H39  1  0.05725088  0.11093626  0.43432043  1  0.170713  0  0.136437  0.101037  0  1.030029  0
H  H40  1  0.76144411  0.95738166  0.37858309  1  0.086436  0  0.108216  0.110734  0  1.007471  0
H  H41  1  0.42120014  0.37858316  0.11713759  1  0.120735  0  0.108223  0.11073  0  1.007471  0
H  H42  1  0.07880050  0.19593789  0.95738259  1  0.090075  0  0.108222  0.110724  0  1.007447  0
H  H43  1  0.26144319  0.88286160  0.80406248  1  0.077198  0  0.108221  0.110744  0  1.007477  0
H  H44  1  0.92119930  0.80406180  0.04261751  1  0.090085  0  0.108225  0.110724  0  1.007515  0
H  H45  1  0.23855632  0.04261867  0.62141680  1  0.08643  0  0.108217  0.110734  0  1.007474  0
H  H46  1  0.57880029  0.62141716  0.88286286  1  0.120735  0  0.108223  0.110721  0  1.007484  0
H  H47  1  0.73855660  0.11713809  0.19593762  1  0.077197  0  0.108219  0.110719  0  1.007487  0
H  H48  1  0.68970402  0.81376009  0.19917272  1  0.093292  0  0.10115  0.121112  0  1.017697  0
H  H49  1  0.38541349  0.19917357  0.00946914  1  0.054242  0  0.101157  0.121114  0  1.017714  0
H  H50  1  0.11458677  0.12405381  0.81376081  1  0.067336  0  0.101145  0.121078  0  1.017689  0
H  H51  1  0.18970512  0.99053055  0.87594549  1  0.059971  0  0.101154  0.121112  0  1.017658  0
H  H52  1  0.88541408  0.87594625  0.18623979  1  0.067319  0  0.101145  0.12109  0  1.017671  0
H  H53  1  0.31029620  0.18623933  0.80082752  1  0.093297  0  0.10115  0.121122  0  1.017684  0
H  H54  1  0.61458589  0.80082639  0.99053025  1  0.054166  0  0.101169  0.121129  0  1.01769  0
H  H55  1  0.81029467  0.00946914  0.12405404  1  0.059967  0  0.101118  0.121043  0  1.017663  0
H  H56  1  0.58634479  0.27971845  0.28734165  1  0.127068  0  0.126243  0.129743  0  0.980991  0
H  H57  1  0.00762343  0.28734368  0.20099498  1  0.147118  0  0.126221  0.129737  0  0.981027  0
H  H58  1  0.49237749  0.69337307  0.27971924  1  0.126552  0  0.126228  0.12974  0  0.981013  0
H  H59  1  0.08634336  0.79900236  0.30662491  1  0.118899  0  0.126261  0.129786  0  0.980959  0
H  H60  1  0.50762252  0.30662753  0.72028050  1  0.126563  0  0.126228  0.129747  0  0.981024  0
H  H61  1  0.41365459  0.72028152  0.71265774  1  0.127049  0  0.126214  0.129716  0  0.981016  0
H  H62  1  0.99237469  0.71265503  0.79900426  1  0.147097  0  0.126223  0.129745  0  0.980992  0
H  H63  1  0.91365665  0.20099823  0.69337540  1  0.118884  0  0.126246  0.129762  0  0.980977  0
H  H64  1  0.61859532  0.15148407  0.09233694  1  0.178483  0  0.131821  0.10273  0  1.03971  0
H  H65  1  0.94084838  0.09233723  0.97373727  1  0.182386  0  0.131827  0.102719  0  1.039756  0
H  H66  1  0.55914895  0.53289015  0.15148448  1  0.181507  0  0.131862  0.102802  0  1.039724  0
H  H67  1  0.11859741  0.02626052  0.46710868  1  0.188003  0  0.131832  0.102732  0  1.039759  0
H  H68  1  0.44085063  0.46710864  0.84851597  1  0.181502  0  0.131822  0.102729  0  1.039756  0
H  H69  1  0.38140447  0.84851562  0.90766316  1  0.178476  0  0.131794  0.102657  0  1.039796  0
H  H70  1  0.05915142  0.90766247  0.02626283  1  0.182387  0  0.131846  0.10276  0  1.039781  0
H  H71  1  0.88140302  0.97373980  0.53289121  1  0.188028  0  0.13182  0.102728  0  1.039763  0
H  H72  1  0.70364934  0.46126376  0.31379175  1  0.078103  0  0.1107  0.116017  0  0.984372  0
H  H73  1  0.85252988  0.31379242  0.11014271  1  0.096321  0  0.110686  0.115996  0  0.984448  0
H  H74  1  0.64747069  0.75761261  0.46126342  1  0.093695  0  0.110693  0.116016  0  0.984437  0
H  H75  1  0.20364937  0.88985608  0.24238650  1  0.116092  0  0.110692  0.115993  0  0.984372  0
H  H76  1  0.35252869  0.24238736  0.53873596  1  0.093705  0  0.110703  0.116039  0  0.984422  0
H  H77  1  0.29635109  0.53873657  0.68620814  1  0.078092  0  0.110693  0.115991  0  0.984415  0
H  H78  1  0.14746950  0.68620754  0.88985611  1  0.096301  0  0.110676  0.115972  0  0.98445  0
H  H79  1  0.79635105  0.11014424  0.75761396  1  0.116085  0  0.110695  0.115977  0  0.984389  0
H  H80  1  0.81987828  0.48683495  0.21832981  1  0.102043  0  0.10753  0.13705  0  0.993138  0
H  H81  1  0.73149464  0.21833061  0.89844930  1  0.081428  0  0.107533  0.137094  0  0.993055  0
H  H82  1  0.76850494  0.66695592  0.48683550  1  0.076057  0  0.107535  0.137083  0  0.99307  0
H  H83  1  0.31988122  0.10154919  0.33304627  1  0.120727  0  0.107529  0.137084  0  0.993121  0
H  H84  1  0.23149570  0.33304531  0.51316517  1  0.076036  0  0.107542  0.137098  0  0.99309  0
H  H85  1  0.18012215  0.51316538  0.78167064  1  0.102039  0  0.107551  0.137089  0  0.993108  0
H  H86  1  0.26850433  0.78166963  0.10154937  1  0.081443  0  0.10754  0.13708  0  0.993092  0
H  H87  1  0.68011920  0.89845113  0.66695361  1  0.120731  0  0.107514  0.137048  0  0.99315  0
C  C88  1  0.63478800  0.92563797  0.24903606  1  0.369728  0  0.081725  0.142763  0  4.067213  0
C  C89  1  0.32339520  0.24903542  0.11424537  1  0.356514  0  0.081688  0.142729  0  4.067222  0
C  C90  1  0.17660336  0.29084937  0.92563795  1  0.31887  0  0.081704  0.14279  0  4.067134  0
C  C91  1  0.13478789  0.88575292  0.70915046  1  0.383749  0  0.081728  0.142791  0  4.067149  0
C  C92  1  0.82339685  0.70915006  0.07436229  1  0.318866  0  0.081713  0.142777  0  4.067157  0
C  C93  1  0.36521243  0.07436235  0.75096383  1  0.369736  0  0.081746  0.142789  0  4.067253  0
C  C94  1  0.67660418  0.75096455  0.88575402  1  0.356514  0  0.081706  0.142752  0  4.067187  0
C  C95  1  0.86521254  0.11424740  0.29085000  1  0.383857  0  0.081702  0.142714  0  4.06724  0
C  C96  1  0.61081142  0.98756668  0.27104531  1  0.3935  0  0.011916  -0.07367  0  3.945966  0
C  C97  1  0.28347367  0.27104396  0.16022826  1  0.388809  0  0.011924  -0.07364  0  3.945979  0
C  C98  1  0.21652486  0.37675609  0.98756757  1  0.42949  0  0.011933  -0.073632  0  3.945943  0
C  C99  1  0.11081221  0.83976997  0.62324350  1  0.396411  0  0.011934  -0.073621  0  3.945912  0
C  C100  1  0.78347557  0.62324424  0.01243289  1  0.42878  0  0.011912  -0.073669  0  3.946068  0
C  C101  1  0.38918837  0.01243301  0.72895422  1  0.393497  0  0.011917  -0.073663  0  3.945935  0
C  C102  1  0.71652634  0.72895663  0.83977148  1  0.388817  0  0.011958  -0.073533  0  3.945962  0
C  C103  1  0.88918821  0.16023035  0.37675639  1  0.39665  0  0.011933  -0.073633  0  3.945935  0
C  C104  1  0.50455405  0.90459816  0.12430107  1  1.028684  0  0.156414  0.179912  0  3.924604  0
C  C105  1  0.21970071  0.12430063  0.11974477  1  1.014132  0  0.156397  0.179867  0  3.924654  0
C  C106  1  0.28029883  0.40004400  0.90459875  1  1.021836  0  0.156411  0.17995  0  3.924566  0
C  C107  1  0.00455528  0.88025489  0.59995648  1  1.018493  0  0.156419  0.179898  0  3.924605  0
C  C108  1  0.71970138  0.59995542  0.09540149  1  1.021857  0  0.156408  0.179882  0  3.924598  0
C  C109  1  0.49544637  0.09540217  0.87569882  1  1.028707  0  0.15642  0.179935  0  3.924597  0
C  C110  1  0.78029930  0.87569997  0.88025554  1  1.014123  0  0.156382  0.17984  0  3.924633  0
C  C111  1  0.99544578  0.11974607  0.40004376  1  1.018448  0  0.156423  0.179865  0  3.924536  0
C  C112  1  0.71424608  0.91457537  0.30504925  1  -0.042155  0  -0.073029  -0.087756  0  4.036752  0
C  C113  1  0.39047289  0.30504902  0.09080153  1  -0.071743  0  -0.072989  -0.087699  0  4.036676  0
C  C114  1  0.10952658  0.20032733  0.91457546  1  -0.043611  0  -0.073052  -0.087756  0  4.036674  0
C  C115  1  0.21424736  0.90919830  0.79967205  1  -0.017824  0  -0.073014  -0.087774  0  4.036782  0
C  C116  1  0.89047364  0.79967209  0.08542478  1  -0.043633  0  -0.073  -0.087697  0  4.036728  0
C  C117  1  0.28575372  0.08542432  0.69495028  1  -0.042163  0  -0.073019  -0.087746  0  4.036724  0
C  C118  1  0.60952691  0.69495067  0.90919857  1  -0.071759  0  -0.073035  -0.087774  0  4.036757  0
C  C119  1  0.78575370  0.09080266  0.20032820  1  -0.017881  0  -0.072999  -0.087691  0  4.036704  0
C  C120  1  0.73462606  0.85672429  0.27241299  1  -0.014361  0  -0.110601  -0.246252  0  3.936819  0
C  C121  1  0.41568949  0.27241409  0.03778724  1  0.029013  0  -0.11059  -0.246237  0  3.936846  0
C  C122  1  0.08431015  0.12209537  0.85672407  1  0.029579  0  -0.110525  -0.246202  0  3.936843  0
C  C123  1  0.23462736  0.96221295  0.87790423  1  0.011499  0  -0.11061  -0.246268  0  3.936929  0
C  C124  1  0.91569006  0.87790406  0.14327617  1  0.029608  0  -0.110577  -0.246241  0  3.936837  0
C  C125  1  0.26537311  0.14327477  0.72758675  1  -0.01436  0  -0.110615  -0.246284  0  3.93683  0
C  C126  1  0.58431030  0.72758561  0.96221285  1  0.029109  0  -0.110565  -0.246202  0  3.936888  0
C  C127  1  0.76537244  0.03778674  0.12209586  1  0.011523  0  -0.110585  -0.246197  0  3.936776  0
C  C128  1  0.81704576  0.84684697  0.33112311  1  1.526822  0  0.185648  0.606573  0  4.239202  0
C  C129  1  0.48427871  0.33112355  0.01407827  1  1.510192  0  0.185603  0.606411  0  4.239402  0
C  C130  1  0.01572107  0.02979692  0.84684354  1  1.505457  0  0.1857  0.606705  0  4.239386  0
C  C131  1  0.31704441  0.98592208  0.97020244  1  1.519401  0  0.18569  0.606709  0  4.239281  0
C  C132  1  0.98427915  0.97020250  0.15315613  1  1.505472  0  0.185656  0.606588  0  4.2394  0
C  C133  1  0.18295403  0.15315273  0.66887699  1  1.526915  0  0.185666  0.606576  0  4.239273  0
C  C134  1  0.51572172  0.66887677  0.98592162  1  1.51017  0  0.185617  0.606496  0  4.239393  0
C  C135  1  0.68295371  0.01407663  0.02979737  1  1.519543  0  0.185648  0.60658  0  4.239478  0
C  C136  1  0.67190312  0.34094133  0.22430725  1  0.363688  0  0.080466  0.147258  0  4.056728  0
C  C137  1  0.88336469  0.22430872  0.05240299  1  0.363869  0  0.080377  0.147139  0  4.056834  0
C  C138  1  0.61663393  0.66903732  0.34094129  1  0.374106  0  0.080453  0.147262  0  4.056713  0
C  C139  1  0.17190304  0.94759608  0.33096056  1  0.364878  0  0.080414  0.147218  0  4.056781  0
C  C140  1  0.38336545  0.33096265  0.65905867  1  0.373858  0  0.080466  0.147251  0  4.056702  0
C  C141  1  0.32809689  0.65905926  0.77569306  1  0.363699  0  0.080455  0.147253  0  4.056815  0
C  C142  1  0.11663428  0.77569152  0.94759739  1  0.363877  0  0.080447  0.147273  0  4.056778  0
C  C143  1  0.82809738  0.05240424  0.66903989  1  0.36483  0  0.080414  0.147212  0  4.05676  0
C  C144  1  0.61079465  0.27274686  0.24110092  1  0.431013  0  0.010528  -0.073272  0  3.941077  0
C  C145  1  0.96835339  0.24110266  0.13030421  1  0.389929  0  0.010595  -0.073229  0  3.941097  0
C  C146  1  0.53164670  0.66195212  0.27274728  1  0.390472  0  0.010534  -0.073348  0  3.941105  0
C  C147  1  0.11079395  0.86969440  0.33804588  1  0.431012  0  0.010505  -0.073377  0  3.94117  0
C  C148  1  0.46835268  0.33804784  0.72725210  1  0.390381  0  0.010527  -0.073317  0  3.941145  0
C  C149  1  0.38920536  0.72725374  0.75889882  1  0.431034  0  0.010556  -0.073299  0  3.941069  0
C  C150  1  0.03164599  0.75889731  0.86969575  1  0.389942  0  0.010613  -0.073253  0  3.941087  0
C  C151  1  0.88920607  0.13030620  0.66195386  1  0.431025  0  0.010497  -0.073375  0  3.941104  0
C  C152  1  0.62467063  0.20403971  0.13981991  1  0.955968  0  0.14513  0.154691  0  3.927789  0
C  C153  1  0.93577641  0.13981986  0.01514513  1  0.95535  0  0.14512  0.154693  0  3.927896  0
C  C154  1  0.56422165  0.57937026  0.20404046  1  0.964304  0  0.145106  0.154644  0  3.927901  0
C  C155  1  0.12467176  0.98485308  0.42062857  1  0.962417  0  0.145106  0.154616  0  3.927996  0
C  C156  1  0.43577815  0.42062944  0.79596021  1  0.964307  0  0.14513  0.154718  0  3.927872  0
C  C157  1  0.37532875  0.79596026  0.86017947  1  0.955969  0  0.145172  0.154786  0  3.927888  0
C  C158  1  0.06422338  0.86017983  0.98485497  1  0.95531  0  0.145098  0.154645  0  3.927964  0
C  C159  1  0.87532930  0.01514788  0.57937224  1  0.962413  0  0.145121  0.154636  0  3.927985  0
C  C160  1  0.72300772  0.43867665  0.26769873  1  -0.064486  0  -0.075114  -0.090319  0  4.037112  0
C  C161  1  0.82902282  0.26769992  0.04468982  1  -0.088843  0  -0.075093  -0.090265  0  4.037201  0
C  C162  1  0.67097766  0.71566778  0.43867755  1  -0.063263  0  -0.075145  -0.090353  0  4.037219  0
C  C163  1  0.22300891  0.95530874  0.28433189  1  -0.104339  0  -0.075115  -0.090252  0  4.037049  0
C  C164  1  0.32902172  0.28433218  0.56132241  1  -0.06293  0  -0.075155  -0.09038  0  4.037216  0
C  C165  1  0.27699271  0.56132367  0.73230116  1  -0.064469  0  -0.075105  -0.090252  0  4.037098  0
C  C166  1  0.17097698  0.73229978  0.95530914  1  -0.088819  0  -0.075102  -0.09029  0  4.037183  0
C  C167  1  0.77699151  0.04469158  0.71566857  1  -0.104349  0  -0.075081  -0.090175  0  4.037033  0
C  C168  1  0.79442839  0.50388676  0.26085603  1  -0.01036  0  -0.108219  -0.247295  0  3.92896  0
C  C169  1  0.75696993  0.26085664  0.96642635  1  0.023984  0  -0.108215  -0.247379  0  3.928862  0
C  C170  1  0.74302927  0.70945633  0.50388689  1  0.01667  0  -0.108186  -0.247319  0  3.928928  0
C  C171  1  0.29443128  0.03357274  0.29054475  1  -0.01829  0  -0.108206  -0.247394  0  3.928935  0
C  C172  1  0.25697011  0.29054363  0.49611249  1  0.016678  0  -0.108211  -0.247347  0  3.928984  0
C  C173  1  0.20557204  0.49611357  0.73914442  1  -0.010363  0  -0.10824  -0.247356  0  3.928897  0
C  C174  1  0.24302945  0.73914333  0.03357303  1  0.023984  0  -0.108219  -0.247341  0  3.928936  0
C  C175  1  0.70556915  0.96642758  0.70945513  1  -0.018285  0  -0.10818  -0.247351  0  3.928993  0
C  C176  1  0.84666290  0.60254291  0.31525194  1  1.529238  0  0.180709  0.601515  0  4.238789  0
C  C177  1  0.71271143  0.31525344  0.96858872  1  1.508909  0  0.180715  0.601562  0  4.23867  0
C  C178  1  0.78728878  0.75587684  0.60254365  1  1.51212  0  0.180777  0.601628  0  4.238615  0
C  C179  1  0.34666603  0.03141079  0.24412424  1  1.517824  0  0.180742  0.601571  0  4.238722  0
C  C180  1  0.21271123  0.24412376  0.39745609  1  1.51212  0  0.180768  0.601601  0  4.238598  0
C  C181  1  0.15333816  0.39745804  0.68474887  1  1.529195  0  0.180713  0.601501  0  4.238776  0
C  C182  1  0.28728922  0.68474779  0.03141081  1  1.508888  0  0.180737  0.601547  0  4.238621  0
C  C183  1  0.65333376  0.96858890  0.75587529  1  1.517827  0  0.180739  0.60158  0  4.238702  0
N  N184  1  0.56567357  0.87439924  0.15524493  1  -1.306295  0  -0.367399  -0.240175  0  3.614318  0
N  N185  1  0.28084368  0.15524448  0.08956991  1  -1.304813  0  -0.367351  -0.240092  0  3.614319  0
N  N186  1  0.21915596  0.30872444  0.87440003  1  -1.298299  0  -0.367423  -0.240309  0  3.614347  0
N  N187  1  0.06567468  0.91042960  0.69127535  1  -1.29894  0  -0.367393  -0.240169  0  3.614402  0
N  N188  1  0.78084425  0.69127498  0.12560022  1  -1.298274  0  -0.36741  -0.240202  0  3.614289  0
N  N189  1  0.43432622  0.12560045  0.84475460  1  -1.306291  0  -0.367376  -0.240081  0  3.614363  0
N  N190  1  0.71915675  0.84475585  0.91043055  1  -1.304794  0  -0.367359  -0.240064  0  3.614313  0
N  N191  1  0.93432575  0.08957072  0.30872454  1  -1.299231  0  -0.367382  -0.240115  0  3.614359  0
N  N192  1  0.53009895  0.97383014  0.19280107  1  -1.222802  0  -0.364417  -0.301576  0  3.566299  0
N  N193  1  0.21896585  0.19279927  0.16269658  1  -1.2109  0  -0.364437  -0.301601  0  3.566324  0
N  N194  1  0.28103152  0.44373128  0.97383077  1  -1.21254  0  -0.36443  -0.301563  0  3.566293  0
N  N195  1  0.03010026  0.83730230  0.55626795  1  -1.22122  0  -0.364434  -0.301558  0  3.566252  0
N  N196  1  0.71896828  0.55626841  0.02616933  1  -1.212548  0  -0.36442  -0.301527  0  3.566324  0
N  N197  1  0.46990085  0.02616955  0.80719903  1  -1.222796  0  -0.36444  -0.301633  0  3.566254  0
N  N198  1  0.78103416  0.80720133  0.83730374  1  -1.210868  0  -0.364418  -0.301594  0  3.566312  0
N  N199  1  0.96990038  0.16269893  0.44373215  1  -1.22126  0  -0.364451  -0.301584  0  3.566225  0
N  N200  1  0.67910338  0.29476659  0.15958847  1  -1.277956  0  -0.365072  -0.238413  0  3.591725  0
N  N201  1  0.86481888  0.15958825  0.98048204  1  -1.27641  0  -0.364999  -0.238263  0  3.591594  0
N  N202  1  0.63517868  0.61566385  0.29476650  1  -1.288566  0  -0.365115  -0.238446  0  3.591719  0
N  N203  1  0.17910313  0.01951553  0.38433440  1  -1.289379  0  -0.364977  -0.238279  0  3.591606  0
N  N204  1  0.36482048  0.38433522  0.70523324  1  -1.288548  0  -0.36509  -0.238415  0  3.59168  0
N  N205  1  0.32089704  0.70523373  0.84041142  1  -1.277967  0  -0.365045  -0.238451  0  3.591774  0
N  N206  1  0.13518092  0.84041144  0.01951692  1  -1.276431  0  -0.365049  -0.238351  0  3.591685  0
N  N207  1  0.82089730  0.98048479  0.61566606  1  -1.289346  0  -0.364997  -0.238319  0  3.591631  0
N  N208  1  0.58267744  0.18851469  0.18885353  1  -1.243542  0  -0.365304  -0.31337  0  3.54691  0
N  N209  1  0.00033601  0.18885416  0.10617324  1  -1.22184  0  -0.365309  -0.313353  0  3.546964  0
N  N210  1  0.49966303  0.60583754  0.18851490  1  -1.212145  0  -0.365301  -0.313294  0  3.546908  0
N  N211  1  0.08267622  0.89382472  0.39415945  1  -1.230804  0  -0.365291  -0.313275  0  3.547047  0
N  N212  1  0.50033696  0.39416098  0.81148513  1  -1.212145  0  -0.365288  -0.313334  0  3.546963  0
N  N213  1  0.41732257  0.81148591  0.81114678  1  -1.243562  0  -0.365297  -0.31329  0  3.546911  0
N  N214  1  0.99966274  0.81114517  0.89382692  1  -1.221829  0  -0.365324  -0.31334  0  3.546989  0
N  N215  1  0.91732357  0.10617497  0.60584008  1  -1.23083  0  -0.365283  -0.313283  0  3.547018  0
O  O216  1  0.92567808  0.65902313  0.31835431  1  -1.153629  0  -0.349884  -0.55509  0  2.120785  0
O  O217  1  0.65933093  0.31835434  0.89267515  1  -1.150748  0  -0.349876  -0.555071  0  2.120725  0
O  O218  1  0.84066620  0.73334178  0.65902401  1  -1.151814  0  -0.349919  -0.555137  0  2.120763  0
O  O219  1  0.42568032  0.10732463  0.26665917  1  -1.152416  0  -0.349895  -0.555062  0  2.120767  0
O  O220  1  0.15933339  0.26665909  0.34097616  1  -1.151858  0  -0.349911  -0.555115  0  2.120674  0
O  O221  1  0.07432422  0.34097701  0.68164807  1  -1.153578  0  -0.3499  -0.555095  0  2.120735  0
O  O222  1  0.34066993  0.68164780  0.10732516  1  -1.150716  0  -0.349919  -0.555108  0  2.120646  0
O  O223  1  0.57431948  0.89267506  0.73334036  1  -1.152428  0  -0.349903  -0.555096  0  2.120706  0
O  O224  1  0.81409146  0.63021990  0.35847980  1  -1.198693  0  -0.341108  -0.595406  0  2.202468  0
O  O225  1  0.72826420  0.35848153  0.04438936  1  -1.194217  0  -0.341112  -0.595437  0  2.202474  0
O  O226  1  0.77173686  0.81612435  0.63022048  1  -1.194769  0  -0.341142  -0.595468  0  2.202464  0
O  O227  1  0.31409434  0.95561129  0.18387569  1  -1.199244  0  -0.341109  -0.595454  0  2.202511  0
O  O228  1  0.22826315  0.18387625  0.36977927  1  -1.194755  0  -0.341129  -0.59546  0  2.202464  0
O  O229  1  0.18590750  0.36978034  0.64151887  1  -1.198706  0  -0.341123  -0.595421  0  2.202482  0
O  O230  1  0.27173559  0.64151816  0.95561017  1  -1.194213  0  -0.341113  -0.595414  0  2.202483  0
O  O231  1  0.68590504  0.04438868  0.81612426  1  -1.199212  0  -0.341112  -0.595446  0  2.202481  0
O  O232  1  0.83339420  0.79595472  0.28730575  1  -1.174497  0  -0.339671  -0.579044  0  2.297648  0
O  O233  1  0.49135574  0.28730662  0.95391444  1  -1.175019  0  -0.339674  -0.578948  0  2.29768  0
O  O234  1  0.00864741  0.96255652  0.79595395  1  -1.175454  0  -0.339719  -0.579084  0  2.297724  0
O  O235  1  0.33339345  0.04608771  0.03744314  1  -1.175031  0  -0.339706  -0.579051  0  2.297666  0
O  O236  1  0.99135302  0.03744381  0.20404594  1  -1.175442  0  -0.339694  -0.579036  0  2.297665  0
O  O237  1  0.16660559  0.20404497  0.71269492  1  -1.174507  0  -0.339672  -0.579044  0  2.297663  0
O  O238  1  0.50864510  0.71269343  0.04608616  1  -1.175013  0  -0.339651  -0.578978  0  2.29764  0
O  O239  1  0.66660593  0.95391225  0.96255682  1  -1.175025  0  -0.339696  -0.579012  0  2.297725  0
O  O240  1  0.86858768  0.88393015  0.41776525  1  -1.192763  0  -0.330145  -0.569731  0  2.136597  0
O  O241  1  0.53383799  0.41776665  0.04917749  1  -1.179423  0  -0.330123  -0.569697  0  2.136665  0
O  O242  1  0.96615955  0.01533763  0.88392433  1  -1.184659  0  -0.330177  -0.569832  0  2.136668  0
O  O243  1  0.36858617  0.95082149  0.98466289  1  -1.181809  0  -0.330192  -0.569864  0  2.136549  0
O  O244  1  0.03384025  0.98466206  0.11607520  1  -1.184677  0  -0.330182  -0.569807  0  2.136693  0
O  O245  1  0.13141106  0.11606919  0.58223492  1  -1.192836  0  -0.330155  -0.569728  0  2.136606  0
O  O246  1  0.46616244  0.58223368  0.95082240  1  -1.179409  0  -0.330138  -0.569744  0  2.136666  0
O  O247  1  0.63141047  0.04917505  0.01533770  1  -1.181964  0  -0.330143  -0.569775  0  2.136683  0
