# generated using pymatgen
data_Cu3H2(C4O5)2
_symmetry_space_group_name_H-M   'P 1'
_cell_length_a   5.67353192
_cell_length_b   9.14835037
_cell_length_c   13.13485312
_cell_angle_alpha   90.00562541
_cell_angle_beta   89.99922648
_cell_angle_gamma   94.00651596
_symmetry_Int_Tables_number   1
_chemical_formula_structural   Cu3H2(C4O5)2
_chemical_formula_sum   'Cu6 H4 C16 O20'
_cell_volume   680.07818431
_cell_formula_units_Z   2
loop_
 _symmetry_equiv_pos_site_id
 _symmetry_equiv_pos_as_xyz
  1  'x, y, z'
loop_
 _atom_site_type_symbol
 _atom_site_label
 _atom_site_symmetry_multiplicity
 _atom_site_fract_x
 _atom_site_fract_y
 _atom_site_fract_z
 _atom_site_occupancy
 _atom_site_pbe_bader_charge
 _atom_site_pbe_bader_spin_density
 _atom_site_pbe_cm5_charge
 _atom_site_pbe_ddec_charge
 _atom_site_pbe_ddec_spin_density
 _atom_site_pbe_ddec_sum_bond_order
 _atom_site_pbe_magmom
Cu  Cu0  1  0.00326305  0.53530138  0.11558505  1  1.11452  0.480515  0.666006  0.934028  0.586879  2.101863  0.48
Cu  Cu1  1  0.99671897  0.96477431  0.61515561  1  1.115474  0.483504  0.667686  0.936096  0.590479  2.108171  0.483
Cu  Cu2  1  0.99672268  0.46470573  0.88442952  1  1.114554  0.480418  0.665912  0.933876  0.586741  2.101606  0.48
Cu  Cu3  1  0.00329708  0.03522261  0.38482926  1  1.11557  0.483607  0.667783  0.936298  0.590615  2.10823  0.483
Cu  Cu4  1  0.50000010  0.00001555  0.49998355  1  1.138149  0.518907  0.6719  0.954411  0.63712  2.171989  0.517
Cu  Cu5  1  0.50000494  0.50000329  0.00001958  1  1.137584  0.518457  0.669856  0.952459  0.636445  2.166056  0.517
H  H6  1  0.80143160  0.80716324  0.46935620  1  0.631445  0.000365  0.321873  0.415301  0.00127  0.863435  0.001
H  H7  1  0.19876525  0.69289681  0.96939694  1  0.630996  0.000323  0.321206  0.414528  0.001233  0.863777  0.001
H  H8  1  0.19856677  0.19284593  0.53066674  1  0.631478  0.000365  0.321873  0.415245  0.001271  0.863521  0.001
H  H9  1  0.80125783  0.30710004  0.03058032  1  0.630934  0.000322  0.321284  0.414611  0.001233  0.863719  0.001
C  C10  1  0.34730428  0.74827149  0.22032189  1  0.843185  0.012287  0.110891  0.188587  0.008904  4.091671  0.009
C  C11  1  0.44219553  0.84928537  0.29950223  1  0.787094  0.013897  0.099827  0.174644  0.009906  4.119273  0.01
C  C12  1  0.67300929  0.86485157  0.24772153  1  0.807852  0.007928  0.105472  0.173159  0.005477  4.110911  0.005
C  C13  1  0.58212443  0.75895418  0.16789768  1  0.85542  0.014053  0.112378  0.199882  0.00883  4.110709  0.011
C  C14  1  0.65258130  0.75198541  0.71996127  1  0.840912  0.012275  0.111953  0.190091  0.008888  4.089779  0.009
C  C15  1  0.55772393  0.65095584  0.79918773  1  0.751891  0.014127  0.100124  0.174855  0.009939  4.11651  0.01
C  C16  1  0.32688247  0.63538055  0.74733728  1  0.850231  0.00768  0.106067  0.173976  0.005447  4.109962  0.005
C  C17  1  0.41775687  0.74133499  0.66757959  1  0.843992  0.014013  0.111525  0.198431  0.008784  4.11152  0.011
C  C18  1  0.65266699  0.25172041  0.77967744  1  0.843666  0.012281  0.110965  0.18845  0.008904  4.091928  0.009
C  C19  1  0.55779817  0.15070301  0.70049634  1  0.787087  0.013898  0.099808  0.174506  0.009907  4.119308  0.01
C  C20  1  0.32699749  0.13514216  0.75228542  1  0.807943  0.007929  0.105568  0.173204  0.005475  4.111017  0.005
C  C21  1  0.41786015  0.24105733  0.83210622  1  0.854621  0.014058  0.112498  0.200157  0.008831  4.110153  0.011
C  C22  1  0.34739158  0.24800537  0.28003350  1  0.841258  0.012273  0.111861  0.189912  0.00889  4.089899  0.009
C  C23  1  0.44228278  0.34902472  0.20080856  1  0.750995  0.014131  0.100199  0.174925  0.009939  4.116858  0.01
C  C24  1  0.67312929  0.36461093  0.25265368  1  0.850089  0.00768  0.105963  0.174006  0.005447  4.109821  0.005
C  C25  1  0.58223805  0.25866215  0.33241366  1  0.845267  0.014013  0.111627  0.198421  0.008785  4.111545  0.011
O  O26  1  0.14799792  0.68277767  0.20939662  1  -1.106376  0.062806  -0.289392  -0.393841  0.039041  2.505454  0.056
O  O27  1  0.35084278  0.89741052  0.37950963  1  -1.128948  0.067308  -0.306229  -0.454053  0.04151  2.579822  0.061
O  O28  1  0.86777617  0.93557798  0.26118604  1  -1.100286  0.072163  -0.290901  -0.395779  0.044697  2.471423  0.065
O  O29  1  0.66895519  0.70140841  0.09198214  1  -1.139555  0.01729  -0.289871  -0.455281  0.009906  2.413387  0.016
O  O30  1  0.81336827  0.91138025  0.48566447  1  -1.13321  0.182166  -0.576879  -0.864934  0.114845  2.378371  0.161
O  O31  1  0.85187014  0.81748997  0.70899441  1  -1.105305  0.063379  -0.290074  -0.394948  0.0394  2.506291  0.056
O  O32  1  0.64896603  0.60286599  0.87922247  1  -1.126442  0.067181  -0.305668  -0.453698  0.041419  2.576289  0.061
O  O33  1  0.13213040  0.56461196  0.76072574  1  -1.102902  0.071434  -0.291365  -0.396119  0.044231  2.469919  0.064
O  O34  1  0.33090180  0.79901641  0.59170585  1  -1.134444  0.017217  -0.289846  -0.45525  0.009855  2.415678  0.016
O  O35  1  0.18651326  0.58860963  0.98570875  1  -1.13343  0.181582  -0.575687  -0.863198  0.114453  2.372441  0.16
O  O36  1  0.85197144  0.31721316  0.79059282  1  -1.106056  0.062802  -0.289461  -0.393789  0.039038  2.505274  0.056
O  O37  1  0.64916003  0.10257996  0.62048971  1  -1.128898  0.067304  -0.306081  -0.453742  0.041507  2.579457  0.061
O  O38  1  0.13223589  0.06441569  0.73883080  1  -1.100524  0.072143  -0.291036  -0.39582  0.044684  2.471298  0.065
O  O39  1  0.33105074  0.29861715  0.90802329  1  -1.139281  0.017287  -0.289884  -0.455322  0.009903  2.413034  0.016
O  O40  1  0.18663162  0.08863988  0.51432954  1  -1.133221  0.182165  -0.576897  -0.864834  0.114846  2.378279  0.161
O  O41  1  0.14810726  0.18249528  0.29101482  1  -1.105642  0.063378  -0.290008  -0.3948  0.039398  2.506626  0.056
O  O42  1  0.35105346  0.39711773  0.12077382  1  -1.126301  0.0672  -0.305783  -0.453869  0.041431  2.576829  0.061
O  O43  1  0.86788664  0.43537947  0.23926065  1  -1.102559  0.071456  -0.291336  -0.396139  0.044246  2.47013  0.064
O  O44  1  0.66909916  0.20101139  0.40829653  1  -1.135249  0.017218  -0.289905  -0.455252  0.009856  2.415788  0.016
O  O45  1  0.81350446  0.41139934  0.01430277  1  -1.133573  0.18157  -0.575801  -0.86339  0.114449  2.372742  0.16
