# generated using pymatgen
data_HoAgH8C12(N2O5)2
_symmetry_space_group_name_H-M   'P 1'
_cell_length_a   6.72396263
_cell_length_b   9.27035429
_cell_length_c   14.99429531
_cell_angle_alpha   95.44695710
_cell_angle_beta   107.80836291
_cell_angle_gamma   103.44700981
_symmetry_Int_Tables_number   1
_chemical_formula_structural   HoAgH8C12(N2O5)2
_chemical_formula_sum   'Ho2 Ag2 H16 C24 N8 O20'
_cell_volume   851.43997626
_cell_formula_units_Z   2
loop_
 _symmetry_equiv_pos_site_id
 _symmetry_equiv_pos_as_xyz
  1  'x, y, z'
loop_
 _atom_site_type_symbol
 _atom_site_label
 _atom_site_symmetry_multiplicity
 _atom_site_fract_x
 _atom_site_fract_y
 _atom_site_fract_z
 _atom_site_occupancy
 _atom_site_hle17_bader_spin_density
 _atom_site_hle17_ddec_charge
 _atom_site_hle17_ddec_spin_density
 _atom_site_hle17_ddec_sum_bond_order
 _atom_site_hle17_magmom
 _atom_site_hse06_10hf_bader_spin_density
 _atom_site_hse06_10hf_ddec_charge
 _atom_site_hse06_10hf_ddec_spin_density
 _atom_site_hse06_10hf_ddec_sum_bond_order
 _atom_site_hse06_10hf_magmom
 _atom_site_hse06_bader_spin_density
 _atom_site_hse06_ddec_charge
 _atom_site_hse06_ddec_spin_density
 _atom_site_hse06_ddec_sum_bond_order
 _atom_site_hse06_magmom
 _atom_site_pbe_bader_spin_density
 _atom_site_pbe_cm5_charge
 _atom_site_pbe_ddec_charge
 _atom_site_pbe_ddec_spin_density
 _atom_site_pbe_ddec_sum_bond_order
 _atom_site_pbe_magmom
Ho  Ho0  1  0.08777674  0.51147371  0.27297404  1  0  2.210759  0  1.684737  0  0  2.058737  0  2.175061  0  0  2.108634  0  2.131721  0  0  1.517801  2.020449  0  2.20877  0
Ho  Ho1  1  0.91221993  0.48852192  0.72702772  1  0  2.210738  0  1.68453  0  0  2.058724  0  2.174784  0  0  2.10864  0  2.131424  0  0  1.517662  2.020434  0  2.208484  0
Ag  Ag2  1  0.40487682  0.17723443  0.19849047  1  0  0.616929  0  1.338015  0  0  0.485943  0  1.76131  0  0  0.513869  0  1.713324  0  0  0.488661  0.467945  0  1.793939  0
Ag  Ag3  1  0.59512885  0.82276316  0.80151516  1  0  0.616891  0  1.338119  0  0  0.485964  0  1.761335  0  0  0.513886  0  1.71335  0  0  0.488653  0.467964  0  1.793969  0
H  H4  1  0.67410317  0.73308405  0.16143934  1  0  0.099974  0  0.91835  0  0  0.106603  0  0.978145  0  0  0.11071  0  0.974395  0  0  0.126691  0.103548  0  0.980991  0
H  H5  1  0.32589004  0.26690978  0.83855319  1  0  0.099986  0  0.91849  0  0  0.10664  0  0.978298  0  0  0.110744  0  0.974548  0  0  0.126697  0.103589  0  0.981141  0
H  H6  1  0.59266447  0.66019445  0.98385462  1  0  0.101031  0  0.900853  0  0  0.11396  0  0.953232  0  0  0.11732  0  0.950447  0  0  0.131043  0.111352  0  0.955685  0
H  H7  1  0.40733193  0.33980266  0.01613989  1  0  0.101048  0  0.900841  0  0  0.113993  0  0.953198  0  0  0.117353  0  0.950412  0  0  0.131038  0.111383  0  0.955655  0
H  H8  1  0.56799628  0.04740436  0.38326921  1  0  0.095842  0  0.921905  0  0  0.105214  0  0.981528  0  0  0.108505  0  0.978164  0  0  0.130803  0.102641  0  0.984325  0
H  H9  1  0.43202315  0.95260245  0.61672875  1  0  0.095862  0  0.921926  0  0  0.105198  0  0.981588  0  0  0.108512  0  0.9782  0  0  0.130825  0.102623  0  0.984383  0
H  H10  1  0.73022793  0.13758668  0.56180539  1  0  0.104393  0  0.918824  0  0  0.113217  0  0.975719  0  0  0.116465  0  0.972939  0  0  0.133881  0.110737  0  0.97799  0
H  H11  1  0.26977115  0.86241124  0.43819551  1  0  0.104381  0  0.918848  0  0  0.113206  0  0.975737  0  0  0.116453  0  0.972956  0  0  0.133892  0.11073  0  0.978008  0
H  H12  1  0.04898983  0.61360156  0.08242974  1  0  0.430661  0  0.876131  0  0  0.396905  0  0.943706  0  0  0.409267  0  0.925677  0  0  0.291801  0.388187  0  0.956387  0
H  H13  1  0.95100644  0.38639765  0.91756894  1  0  0.430592  0  0.876209  0  0  0.39685  0  0.943764  0  0  0.409216  0  0.925729  0  0  0.291828  0.388134  0  0.956442  0
H  H14  1  0.90097869  0.44623764  0.06872021  1  0  0.445208  0  0.848254  0  0  0.41684  0  0.906904  0  0  0.427292  0  0.891571  0  0  0.304886  0.409448  0  0.917731  0
H  H15  1  0.09902244  0.55375457  0.93127976  1  0  0.445246  0  0.848202  0  0  0.416859  0  0.906879  0  0  0.42731  0  0.891548  0  0  0.30491  0.409466  0  0.917708  0
H  H16  1  0.40796288  0.76062445  0.29299172  1  0  0.437752  0  0.826372  0  0  0.419071  0  0.881108  0  0  0.42851  0  0.86723  0  0  0.321176  0.412407  0  0.888974  0
H  H17  1  0.59204872  0.23937650  0.70701287  1  0  0.437827  0  0.826265  0  0  0.419147  0  0.881009  0  0  0.428588  0  0.867127  0  0  0.321185  0.412476  0  0.888887  0
H  H18  1  0.22893097  0.82007109  0.22186237  1  0  0.445219  0  0.856441  0  0  0.413819  0  0.919066  0  0  0.42603  0  0.90153  0  0  0.296354  0.405228  0  0.931363  0
H  H19  1  0.77107902  0.17994011  0.77814356  1  0  0.445161  0  0.856527  0  0  0.413731  0  0.919204  0  0  0.425942  0  0.901668  0  0  0.296314  0.405142  0  0.931498  0
C  C20  1  0.69921092  0.81854141  0.11755838  1  0  0.110616  0  3.648657  0  0  0.084727  0  3.918353  0  0  0.088965  0  3.930238  0  0  0.068791  0.081881  0  3.910504  0
C  C21  1  0.30078197  0.18146480  0.88243849  1  0  0.110753  0  3.648677  0  0  0.084742  0  3.918517  0  0  0.088995  0  3.930389  0  0  0.068835  0.081887  0  3.910677  0
C  C22  1  0.65546135  0.77747675  0.01976769  1  0  0.099497  0  3.64539  0  0  0.063548  0  3.911772  0  0  0.067487  0  3.925857  0  0  0.061354  0.060563  0  3.902615  0
C  C23  1  0.34452038  0.22252172  0.98022793  1  0  0.099401  0  3.645221  0  0  0.063466  0  3.911635  0  0  0.067398  0  3.925718  0  0  0.061324  0.060481  0  3.902484  0
C  C24  1  0.76513316  0.02783072  0.00889420  1  0  0.023236  0  3.698981  0  0  0.018445  0  3.947289  0  0  0.015054  0  3.968818  0  0  0.110652  0.020182  0  3.933439  0
C  C25  1  0.23487698  0.97216344  0.99110965  1  0  0.023064  0  3.698812  0  0  0.018328  0  3.947197  0  0  0.014932  0  3.968717  0  0  0.110626  0.020069  0  3.933333  0
C  C26  1  0.80957127  0.06699675  0.10710998  1  0  0.078641  0  3.683383  0  0  0.078476  0  3.938782  0  0  0.079447  0  3.952738  0  0  0.131546  0.07739  0  3.930096  0
C  C27  1  0.19043472  0.93301359  0.89289142  1  0  0.078593  0  3.683329  0  0  0.078307  0  3.938966  0  0  0.079278  0  3.952935  0  0  0.13158  0.077233  0  3.930237  0
C  C28  1  0.90411277  0.22735448  0.15973179  1  0  0.655098  0  3.897852  0  0  0.600561  0  4.191742  0  0  0.636717  0  4.180171  0  0  0.204061  0.575892  0  4.198919  0
C  C29  1  0.09589318  0.77265112  0.84027321  1  0  0.655272  0  3.897566  0  0  0.600616  0  4.191756  0  0  0.636776  0  4.180179  0  0  0.204017  0.575943  0  4.198929  0
C  C30  1  0.80007093  0.14257314  0.94593293  1  0  0.634966  0  3.912139  0  0  0.573763  0  4.219305  0  0  0.606545  0  4.215806  0  0  0.213748  0.551605  0  4.220964  0
C  C31  1  0.19992599  0.85741084  0.05407389  1  0  0.635441  0  3.911434  0  0  0.574174  0  4.218692  0  0  0.606962  0  4.215177  0  0  0.213951  0.552015  0  4.220359  0
C  C32  1  0.61659942  0.16667302  0.41415647  1  0  0.11517  0  3.608787  0  0  0.084184  0  3.862536  0  0  0.089229  0  3.875025  0  0  0.077068  0.080521  0  3.854831  0
C  C33  1  0.38340166  0.83332940  0.58584503  1  0  0.115253  0  3.608666  0  0  0.084293  0  3.862428  0  0  0.089316  0  3.87491  0  0  0.077067  0.080635  0  3.854717  0
C  C34  1  0.70444752  0.21581078  0.51241008  1  0  0.132793  0  3.637839  0  0  0.102475  0  3.896959  0  0  0.107001  0  3.91017  0  0  0.078332  0.099108  0  3.888448  0
C  C35  1  0.29555429  0.78418722  0.48758779  1  0  0.132699  0  3.6378  0  0  0.102399  0  3.896905  0  0  0.106928  0  3.910115  0  0  0.078285  0.099025  0  3.888402  0
C  C36  1  0.73383348  0.46098433  0.48985227  1  0  0.040342  0  3.718203  0  0  0.037175  0  3.96989  0  0  0.035227  0  3.988368  0  0  0.120559  0.037951  0  3.958207  0
C  C37  1  0.26613977  0.53901536  0.51014514  1  0  0.040259  0  3.718294  0  0  0.037148  0  3.969916  0  0  0.035198  0  3.988394  0  0  0.120583  0.037925  0  3.958234  0
C  C38  1  0.65064562  0.41195050  0.39096921  1  0  0.063283  0  3.651149  0  0  0.058413  0  3.896764  0  0  0.05951  0  3.911462  0  0  0.14198  0.057147  0  3.887619  0
C  C39  1  0.34935013  0.58805370  0.60902048  1  0  0.06331  0  3.650938  0  0  0.058504  0  3.896782  0  0  0.059597  0  3.911479  0  0  0.141874  0.057239  0  3.887632  0
C  C40  1  0.63228378  0.52154997  0.32182687  1  0  0.736675  0  3.864862  0  0  0.681636  0  4.171272  0  0  0.720725  0  4.152329  0  0  0.247767  0.654546  0  4.183537  0
C  C41  1  0.36772069  0.47845630  0.67816399  1  0  0.737064  0  3.864357  0  0  0.6815  0  4.171722  0  0  0.720585  0  4.152783  0  0  0.247691  0.654412  0  4.183979  0
C  C42  1  0.79919822  0.62658554  0.53460458  1  0  0.628125  0  3.970553  0  0  0.578215  0  4.282312  0  0  0.610037  0  4.277084  0  0  0.198514  0.556827  0  4.284849  0
C  C43  1  0.20078590  0.37342201  0.46539141  1  0  0.628336  0  3.970635  0  0  0.57848  0  4.282267  0  0  0.610303  0  4.277037  0  0  0.198702  0.557092  0  4.284805  0
N  N44  1  0.77262889  0.96273144  0.16102337  1  0  -0.250227  0  2.975999  0  0  -0.231175  0  3.243117  0  0  -0.235779  0  3.251494  0  0  -0.289228  -0.228173  0  3.237895  0
N  N45  1  0.22737919  0.03727657  0.83897807  1  0  -0.250262  0  2.976167  0  0  -0.23112  0  3.243359  0  0  -0.235733  0  3.251736  0  0  -0.289299  -0.228115  0  3.238136  0
N  N46  1  0.68588434  0.88190045  0.96614744  1  0  -0.258135  0  3.264351  0  0  -0.200055  0  3.544181  0  0  -0.211035  0  3.559531  0  0  -0.308434  -0.192442  0  3.534051  0
N  N47  1  0.31411171  0.11809751  0.03385378  1  0  -0.258189  0  3.264363  0  0  -0.20006  0  3.544117  0  0  -0.211032  0  3.559464  0  0  -0.308448  -0.192452  0  3.533985  0
N  N48  1  0.58765956  0.26370384  0.35344293  1  0  -0.240287  0  3.233511  0  0  -0.178157  0  3.517605  0  0  -0.188467  0  3.527073  0  0  -0.299109  -0.171464  0  3.511641  0
N  N49  1  0.41235043  0.73629852  0.64655625  1  0  -0.240439  0  3.233506  0  0  -0.17831  0  3.517612  0  0  -0.188615  0  3.527082  0  0  -0.299091  -0.171615  0  3.511641  0
N  N50  1  0.75896900  0.36231905  0.54982924  1  0  -0.361079  0  3.242062  0  0  -0.316847  0  3.512192  0  0  -0.325817  0  3.529363  0  0  -0.344755  -0.310644  0  3.500906  0
N  N51  1  0.24102552  0.63768029  0.45016725  1  0  -0.360976  0  3.242064  0  0  -0.316761  0  3.51217  0  0  -0.32573  0  3.529338  0  0  -0.34473  -0.310559  0  3.500893  0
O  O52  1  0.10692044  0.28928564  0.18159615  1  0  -0.687702  0  2.119513  0  0  -0.629588  0  2.396758  0  0  -0.657664  0  2.383395  0  0  -0.371826  -0.60967  0  2.405044  0
O  O53  1  0.89308552  0.71072200  0.81841437  1  0  -0.687797  0  2.119601  0  0  -0.629642  0  2.396911  0  0  -0.657712  0  2.383518  0  0  -0.371818  -0.609725  0  2.405199  0
O  O54  1  0.78271452  0.29765221  0.18417361  1  0  -0.680122  0  2.074667  0  0  -0.628643  0  2.346209  0  0  -0.656245  0  2.335001  0  0  -0.363816  -0.609073  0  2.353079  0
O  O55  1  0.21730107  0.70235640  0.81583676  1  0  -0.680202  0  2.074566  0  0  -0.628641  0  2.346112  0  0  -0.656243  0  2.334896  0  0  -0.363729  -0.609093  0  2.353028  0
O  O56  1  0.83531763  0.28075300  0.97928361  1  0  -0.626367  0  2.024072  0  0  -0.55975  0  2.241725  0  0  -0.586986  0  2.234284  0  0  -0.298622  -0.540737  0  2.246268  0
O  O57  1  0.16469132  0.71922474  0.02073007  1  0  -0.626605  0  2.023975  0  0  -0.559904  0  2.241617  0  0  -0.587143  0  2.234183  0  0  -0.298704  -0.540888  0  2.246166  0
O  O58  1  0.79363175  0.09211300  0.86312371  1  0  -0.620825  0  2.096767  0  0  -0.553363  0  2.346921  0  0  -0.581851  0  2.337407  0  0  -0.304802  -0.533547  0  2.352851  0
O  O59  1  0.20635181  0.90789549  0.13687697  1  0  -0.62095  0  2.096638  0  0  -0.553509  0  2.346868  0  0  -0.582002  0  2.337364  0  0  -0.304854  -0.533695  0  2.352805  0
O  O60  1  0.45198424  0.55103835  0.28930777  1  0  -0.732392  0  2.071498  0  0  -0.680662  0  2.331681  0  0  -0.707399  0  2.316084  0  0  -0.384488  -0.661111  0  2.341615  0
O  O61  1  0.54800736  0.44895556  0.71068391  1  0  -0.732644  0  2.071539  0  0  -0.680729  0  2.332011  0  0  -0.707467  0  2.316407  0  0  -0.384498  -0.66118  0  2.341943  0
O  O62  1  0.79479755  0.56946965  0.29627856  1  0  -0.706466  0  2.021505  0  0  -0.656031  0  2.278065  0  0  -0.684012  0  2.265059  0  0  -0.39076  -0.635406  0  2.286092  0
O  O63  1  0.20520767  0.43054238  0.70371086  1  0  -0.706559  0  2.021234  0  0  -0.655939  0  2.278072  0  0  -0.683924  0  2.265073  0  0  -0.390705  -0.635315  0  2.286092  0
O  O64  1  0.76719734  0.71994313  0.48143109  1  0  -0.551325  0  1.865555  0  0  -0.514002  0  2.070859  0  0  -0.536955  0  2.066247  0  0  -0.310415  -0.497752  0  2.073412  0
O  O65  1  0.23281133  0.28007750  0.51856881  1  0  -0.551319  0  1.865715  0  0  -0.514043  0  2.071021  0  0  -0.536995  0  2.066408  0  0  -0.310423  -0.497794  0  2.073575  0
O  O66  1  0.88338820  0.65282544  0.62615573  1  0  -0.750743  0  2.057539  0  0  -0.704831  0  2.32016  0  0  -0.731242  0  2.312052  0  0  -0.438616  -0.685969  0  2.324905  0
O  O67  1  0.11660137  0.34716940  0.37384114  1  0  -0.750879  0  2.057554  0  0  -0.704969  0  2.32014  0  0  -0.731378  0  2.312033  0  0  -0.438733  -0.686109  0  2.324888  0
O  O68  1  0.96297303  0.54349790  0.11327371  1  0  -0.936594  0  1.85702  0  0  -0.883882  0  2.051264  0  0  -0.904029  0  2.018217  0  0  -0.656773  -0.869229  0  2.074135  0
O  O69  1  0.03704670  0.45649249  0.88673359  1  0  -0.936545  0  1.857036  0  0  -0.883817  0  2.051254  0  0  -0.903966  0  2.018205  0  0  -0.656791  -0.869164  0  2.074124  0
O  O70  1  0.26033687  0.77045742  0.28041191  1  0  -0.903847  0  1.824075  0  0  -0.854871  0  2.013622  0  0  -0.875004  0  1.98194  0  0  -0.635775  -0.840252  0  2.033685  0
O  O71  1  0.73966497  0.22952699  0.71958349  1  0  -0.903906  0  1.824003  0  0  -0.854895  0  2.013442  0  0  -0.875033  0  1.981762  0  0  -0.635763  -0.840276  0  2.033503  0
