# generated using pymatgen
data_NaSmH16(C3O2)6
_symmetry_space_group_name_H-M   'P 1'
_cell_length_a   6.84131931
_cell_length_b   7.55965615
_cell_length_c   19.94417442
_cell_angle_alpha   90.00129998
_cell_angle_beta   99.91400253
_cell_angle_gamma   89.99921497
_symmetry_Int_Tables_number   1
_chemical_formula_structural   NaSmH16(C3O2)6
_chemical_formula_sum   'Na2 Sm2 H32 C36 O24'
_cell_volume   1016.07053999
_cell_formula_units_Z   2
loop_
 _symmetry_equiv_pos_site_id
 _symmetry_equiv_pos_as_xyz
  1  'x, y, z'
loop_
 _atom_site_type_symbol
 _atom_site_label
 _atom_site_symmetry_multiplicity
 _atom_site_fract_x
 _atom_site_fract_y
 _atom_site_fract_z
 _atom_site_occupancy
 _atom_site_hle17_bader_spin_density
 _atom_site_hle17_ddec_charge
 _atom_site_hle17_ddec_spin_density
 _atom_site_hle17_ddec_sum_bond_order
 _atom_site_hle17_magmom
 _atom_site_hse06_10hf_bader_spin_density
 _atom_site_hse06_10hf_ddec_charge
 _atom_site_hse06_10hf_ddec_spin_density
 _atom_site_hse06_10hf_ddec_sum_bond_order
 _atom_site_hse06_10hf_magmom
 _atom_site_hse06_bader_spin_density
 _atom_site_hse06_ddec_charge
 _atom_site_hse06_ddec_spin_density
 _atom_site_hse06_ddec_sum_bond_order
 _atom_site_hse06_magmom
 _atom_site_pbe_bader_spin_density
 _atom_site_pbe_cm5_charge
 _atom_site_pbe_ddec_charge
 _atom_site_pbe_ddec_spin_density
 _atom_site_pbe_ddec_sum_bond_order
 _atom_site_pbe_magmom
Na  Na0  1  0.66133529  0.75023804  0.32392483  1  0  0.927396  0  0.347435  0  0  0.898057  0  0.47948  0  0  0.907025  0  0.459487  0  0  0.6888  0.891183  0  0.494949  0
Na  Na1  1  0.33865256  0.25023832  0.67607515  1  0  0.927399  0  0.347436  0  0  0.898064  0  0.479483  0  0  0.907034  0  0.459484  0  0  0.688799  0.891176  0  0.494956  0
Sm  Sm2  1  0.79366638  0.25012703  0.58692857  1  0  2.231888  0  1.743107  0  0  2.072957  0  2.231494  0  0  2.181344  0  2.065732  0  0  1.532369  2.038914  0  2.266197  0
Sm  Sm3  1  0.20632295  0.75012445  0.41307300  1  0  2.231909  0  1.743012  0  0  2.07302  0  2.231284  0  0  2.181346  0  2.065634  0  0  1.532355  2.038983  0  2.265962  0
H  H4  1  0.38621535  0.85180377  0.18611706  1  0  0.107862  0  0.959406  0  0  0.117488  0  1.021195  0  0  0.120961  0  1.018333  0  0  0.109843  0.115014  0  1.023124  0
H  H5  1  0.61377583  0.35180220  0.81388350  1  0  0.107827  0  0.959326  0  0  0.11745  0  1.021117  0  0  0.120923  0  1.018255  0  0  0.109834  0.114989  0  1.02304  0
H  H6  1  0.20238612  0.14792247  0.81408416  1  0  0.107246  0  0.959873  0  0  0.116926  0  1.021576  0  0  0.120406  0  1.018712  0  0  0.109121  0.1144  0  1.023558  0
H  H7  1  0.79761177  0.64792157  0.18591502  1  0  0.107289  0  0.959895  0  0  0.116993  0  1.021556  0  0  0.120477  0  1.018692  0  0  0.109137  0.114463  0  1.023544  0
H  H8  1  0.32180486  0.85484818  0.05963954  1  0  0.085993  0  0.950319  0  0  0.098055  0  1.008885  0  0  0.101082  0  1.007861  0  0  0.098288  0.095903  0  1.009693  0
H  H9  1  0.67817737  0.35484537  0.94036151  1  0  0.085892  0  0.950273  0  0  0.09797  0  1.008833  0  0  0.100995  0  1.007811  0  0  0.098237  0.095819  0  1.009643  0
H  H10  1  0.26398060  0.14448521  0.94061031  1  0  0.085325  0  0.949429  0  0  0.097419  0  1.007984  0  0  0.10041  0  1.00703  0  0  0.097853  0.095283  0  1.008767  0
H  H11  1  0.73600842  0.64448947  0.05938832  1  0  0.085261  0  0.949412  0  0  0.097348  0  1.007995  0  0  0.100337  0  1.00704  0  0  0.097818  0.095211  0  1.008773  0
H  H12  1  0.69039543  0.85575377  0.96637459  1  0  0.083391  0  0.954033  0  0  0.095344  0  1.014116  0  0  0.098447  0  1.012656  0  0  0.097318  0.093135  0  1.015227  0
H  H13  1  0.30959424  0.35574409  0.03362140  1  0  0.083409  0  0.954073  0  0  0.095336  0  1.014175  0  0  0.098438  0  1.012717  0  0  0.097341  0.09314  0  1.015266  0
H  H14  1  0.72507019  0.14392367  0.03330818  1  0  0.084696  0  0.955344  0  0  0.096556  0  1.015346  0  0  0.099598  0  1.013964  0  0  0.097836  0.094412  0  1.016382  0
H  H15  1  0.27492772  0.64392133  0.96669549  1  0  0.084668  0  0.955315  0  0  0.096517  0  1.015336  0  0  0.09956  0  1.013953  0  0  0.097809  0.094373  0  1.016369  0
H  H16  1  0.62839590  0.85767511  0.84039086  1  0  0.095366  0  0.959735  0  0  0.105299  0  1.02163  0  0  0.108639  0  1.019147  0  0  0.105415  0.102811  0  1.023524  0
H  H17  1  0.37161750  0.35766420  0.15960556  1  0  0.095376  0  0.959687  0  0  0.105306  0  1.021592  0  0  0.108651  0  1.019103  0  0  0.105416  0.102819  0  1.023482  0
H  H18  1  0.78818756  0.14228143  0.15926433  1  0  0.095565  0  0.960112  0  0  0.105297  0  1.022248  0  0  0.10867  0  1.019746  0  0  0.104895  0.102859  0  1.024063  0
H  H19  1  0.21183264  0.64228034  0.84073865  1  0  0.09552  0  0.960139  0  0  0.105242  0  1.022307  0  0  0.108616  0  1.019807  0  0  0.104859  0.102811  0  1.024113  0
H  H20  1  0.55791145  0.73040354  0.56095681  1  0  0.100462  0  0.926551  0  0  0.107543  0  0.985586  0  0  0.110712  0  0.982904  0  0  0.13142  0.105218  0  0.987684  0
H  H21  1  0.44209442  0.23039774  0.43904457  1  0  0.100467  0  0.92658  0  0  0.107593  0  0.985562  0  0  0.11077  0  0.98288  0  0  0.131404  0.10526  0  0.987674  0
H  H22  1  0.99686781  0.26992916  0.43905462  1  0  0.100273  0  0.927376  0  0  0.106561  0  0.987181  0  0  0.109738  0  0.984541  0  0  0.131177  0.104256  0  0.989184  0
H  H23  1  0.00313320  0.76991407  0.56094080  1  0  0.100298  0  0.927484  0  0  0.106506  0  0.987293  0  0  0.109675  0  0.984649  0  0  0.131177  0.10422  0  0.989287  0
H  H24  1  0.93767517  0.62367686  0.65390826  1  0  0.399429  0  0.898383  0  0  0.369796  0  0.973812  0  0  0.382008  0  0.958876  0  0  0.305791  0.361257  0  0.983143  0
H  H25  1  0.06233932  0.12367555  0.34608920  1  0  0.39945  0  0.898373  0  0  0.369815  0  0.973799  0  0  0.382027  0  0.958848  0  0  0.305766  0.361275  0  0.98313  0
H  H26  1  0.28339187  0.37650711  0.34608004  1  0  0.399865  0  0.897459  0  0  0.370055  0  0.973033  0  0  0.382289  0  0.958403  0  0  0.305291  0.36151  0  0.982352  0
H  H27  1  0.71663018  0.87651116  0.65392358  1  0  0.399784  0  0.897576  0  0  0.370021  0  0.973066  0  0  0.382254  0  0.958458  0  0  0.305277  0.361481  0  0.982375  0
H  H28  1  0.74572127  0.09185133  0.26510169  1  0  0.416805  0  0.888331  0  0  0.386394  0  0.952011  0  0  0.396589  0  0.936781  0  0  0.28911  0.379148  0  0.962827  0
H  H29  1  0.25428316  0.59185401  0.73489991  1  0  0.416748  0  0.888435  0  0  0.386327  0  0.952137  0  0  0.396523  0  0.936906  0  0  0.28907  0.379076  0  0.96296  0
H  H30  1  0.48149576  0.90837361  0.73479969  1  0  0.417038  0  0.887881  0  0  0.386467  0  0.95195  0  0  0.396674  0  0.936673  0  0  0.289037  0.379205  0  0.962787  0
H  H31  1  0.51850667  0.40837243  0.26519852  1  0  0.416994  0  0.887943  0  0  0.386462  0  0.951952  0  0  0.39666  0  0.936685  0  0  0.289022  0.379207  0  0.962784  0
H  H32  1  0.52035197  0.10245925  0.27263924  1  0  0.41703  0  0.872982  0  0  0.390033  0  0.930673  0  0  0.398955  0  0.917414  0  0  0.2971  0.383715  0  0.94005  0
H  H33  1  0.47965235  0.60245208  0.72736144  1  0  0.417024  0  0.87295  0  0  0.390031  0  0.930663  0  0  0.398952  0  0.917405  0  0  0.297094  0.383711  0  0.940044  0
H  H34  1  0.24854832  0.89821167  0.72729287  1  0  0.418061  0  0.870306  0  0  0.391157  0  0.92888  0  0  0.400064  0  0.915635  0  0  0.298211  0.384852  0  0.938247  0
H  H35  1  0.75145718  0.39821466  0.27270744  1  0  0.418094  0  0.870233  0  0  0.391179  0  0.928844  0  0  0.400087  0  0.915598  0  0  0.298224  0.384878  0  0.938203  0
C  C36  1  0.09574118  0.74988979  0.19369664  1  0  -0.069456  0  3.745889  0  0  -0.049401  0  3.982199  0  0  -0.058585  0  4.005323  0  0  -0.016952  -0.0432  0  3.96606  0
C  C37  1  0.90425408  0.24988548  0.80630429  1  0  -0.069311  0  3.745807  0  0  -0.049353  0  3.982207  0  0  -0.058493  0  4.005273  0  0  -0.016939  -0.043177  0  3.96611  0
C  C38  1  0.13364446  0.75000026  0.26917301  1  0  0.674554  0  3.894946  0  0  0.632625  0  4.179553  0  0  0.665309  0  4.178568  0  0  0.202534  0.60975  0  4.184021  0
C  C39  1  0.86634784  0.25000782  0.73082823  1  0  0.67447  0  3.89506  0  0  0.632575  0  4.179652  0  0  0.665248  0  4.178672  0  0  0.202462  0.609709  0  4.184119  0
C  C40  1  0.02446979  0.74973122  0.05066477  1  0  0.058087  0  3.785051  0  0  0.069993  0  4.021675  0  0  0.071668  0  4.045834  0  0  -0.001484  0.069032  0  4.005146  0
C  C41  1  0.97551955  0.24973055  0.94933429  1  0  0.058006  0  3.785099  0  0  0.069906  0  4.02172  0  0  0.071582  0  4.04588  0  0  -0.001495  0.068946  0  4.005192  0
C  C42  1  0.98712917  0.74973151  0.97560891  1  0  0.069296  0  3.768478  0  0  0.080942  0  4.004122  0  0  0.082792  0  4.02742  0  0  0.002301  0.079843  0  3.988173  0
C  C43  1  0.01286016  0.24972893  0.02439066  1  0  0.069272  0  3.768599  0  0  0.080954  0  4.00419  0  0  0.082802  0  4.02749  0  0  0.002362  0.079854  0  3.988246  0
C  C44  1  0.24457595  0.80532154  0.15798923  1  0  -0.051703  0  3.715962  0  0  -0.074886  0  3.962004  0  0  -0.073327  0  3.981979  0  0  -0.07455  -0.075543  0  3.948021  0
C  C45  1  0.75541573  0.30531724  0.84201146  1  0  -0.051702  0  3.715701  0  0  -0.074836  0  3.961754  0  0  -0.073288  0  3.981714  0  0  -0.074557  -0.075504  0  3.947796  0
C  C46  1  0.08874668  0.19436395  0.84210957  1  0  -0.051443  0  3.71512  0  0  -0.074596  0  3.96093  0  0  -0.073032  0  3.980841  0  0  -0.074401  -0.075207  0  3.946972  0
C  C47  1  0.91124624  0.69436526  0.15788973  1  0  -0.051484  0  3.715003  0  0  -0.074682  0  3.960781  0  0  -0.073105  0  3.980694  0  0  -0.07442  -0.075301  0  3.946819  0
C  C48  1  0.20837291  0.80578398  0.08725423  1  0  -0.116794  0  3.745807  0  0  -0.134388  0  3.99563  0  0  -0.139781  0  4.018037  0  0  -0.089553  -0.130826  0  3.980352  0
C  C49  1  0.79161432  0.30578342  0.91274670  1  0  -0.116718  0  3.745665  0  0  -0.134339  0  3.995498  0  0  -0.139733  0  4.017904  0  0  -0.08956  -0.13078  0  3.980234  0
C  C50  1  0.12300071  0.19372427  0.91286519  1  0  -0.116394  0  3.744174  0  0  -0.133918  0  3.993718  0  0  -0.1393  0  4.016193  0  0  -0.089469  -0.130356  0  3.978373  0
C  C51  1  0.87698926  0.69372578  0.08713292  1  0  -0.116292  0  3.743936  0  0  -0.133817  0  3.99349  0  0  -0.139195  0  4.015963  0  0  -0.089407  -0.130251  0  3.97814  0
C  C52  1  0.91584439  0.74987056  0.83200916  1  0  -0.087116  0  3.77628  0  0  -0.067714  0  4.020784  0  0  -0.077388  0  4.045876  0  0  -0.022759  -0.061453  0  4.003823  0
C  C53  1  0.08416573  0.24987164  0.16799064  1  0  -0.087058  0  3.77599  0  0  -0.067576  0  4.020394  0  0  -0.077263  0  4.045502  0  0  -0.022655  -0.061327  0  4.00345  0
C  C54  1  0.80405926  0.80690082  0.93880139  1  0  -0.117595  0  3.741549  0  0  -0.134763  0  3.990382  0  0  -0.139839  0  4.012414  0  0  -0.088844  -0.131377  0  3.975338  0
C  C55  1  0.19594281  0.30689816  0.06119692  1  0  -0.117534  0  3.741586  0  0  -0.134685  0  3.990426  0  0  -0.139758  0  4.012459  0  0  -0.08883  -0.131303  0  3.975366  0
C  C56  1  0.86624417  0.19269303  0.06101968  1  0  -0.120846  0  3.745709  0  0  -0.137926  0  3.994467  0  0  -0.142921  0  4.016488  0  0  -0.090559  -0.134621  0  3.979457  0
C  C57  1  0.13375915  0.69269344  0.93898173  1  0  -0.120812  0  3.745644  0  0  -0.137861  0  3.994413  0  0  -0.142855  0  4.016434  0  0  -0.090472  -0.134558  0  3.979404  0
C  C58  1  0.76908517  0.80834080  0.86807653  1  0  -0.050951  0  3.737302  0  0  -0.075347  0  3.985184  0  0  -0.074272  0  4.00628  0  0  -0.078981  -0.075711  0  3.970792  0
C  C59  1  0.23092579  0.30833925  0.13192082  1  0  -0.051057  0  3.737404  0  0  -0.07549  0  3.985302  0  0  -0.074413  0  4.006396  0  0  -0.079098  -0.075859  0  3.970912  0
C  C60  1  0.90147064  0.19140384  0.13173352  1  0  -0.050744  0  3.740625  0  0  -0.07498  0  3.988315  0  0  -0.073934  0  4.009381  0  0  -0.077921  -0.075389  0  3.973943  0
C  C61  1  0.09854159  0.69140314  0.86826941  1  0  -0.050726  0  3.740874  0  0  -0.074948  0  3.988592  0  0  -0.073909  0  4.009658  0  0  -0.077936  -0.075369  0  3.974214  0
C  C62  1  0.87820411  0.74994526  0.75619348  1  0  0.673774  0  3.831345  0  0  0.615306  0  4.132385  0  0  0.649438  0  4.124814  0  0  0.231936  0.592325  0  4.136406  0
C  C63  1  0.12182085  0.24994112  0.24380620  1  0  0.673846  0  3.831717  0  0  0.615343  0  4.132757  0  0  0.649478  0  4.125186  0  0  0.2319  0.592356  0  4.13679  0
C  C64  1  0.68687508  0.81216156  0.55486023  1  0  0.055221  0  3.606934  0  0  0.030236  0  3.854479  0  0  0.031315  0  3.86222  0  0  0.003565  0.029359  0  3.850637  0
C  C65  1  0.31313137  0.31215905  0.44514090  1  0  0.055153  0  3.606879  0  0  0.030182  0  3.854482  0  0  0.031279  0  3.862178  0  0  0.00354  0.0293  0  3.850649  0
C  C66  1  0.13194847  0.18817835  0.44514315  1  0  0.055168  0  3.608326  0  0  0.031169  0  3.856182  0  0  0.032202  0  3.863973  0  0  0.004339  0.030339  0  3.852319  0
C  C67  1  0.86805343  0.68816670  0.55485463  1  0  0.054973  0  3.608833  0  0  0.031277  0  3.85621  0  0  0.032338  0  3.863963  0  0  0.004264  0.030411  0  3.85236  0
C  C68  1  0.63821423  0.91361027  0.48801350  1  0  0.703866  0  3.839019  0  0  0.654626  0  4.139585  0  0  0.688319  0  4.134696  0  0  0.236983  0.631385  0  4.146186  0
C  C69  1  0.36178071  0.41362170  0.51198832  1  0  0.704047  0  3.838994  0  0  0.654858  0  4.139466  0  0  0.688546  0  4.134576  0  0  0.237166  0.631601  0  4.146091  0
C  C70  1  0.15039744  0.08667031  0.51199430  1  0  0.705074  0  3.838891  0  0  0.654496  0  4.141487  0  0  0.688119  0  4.136743  0  0  0.236422  0.631286  0  4.147998  0
C  C71  1  0.84959074  0.58666154  0.48800328  1  0  0.70472  0  3.839559  0  0  0.65415  0  4.142028  0  0  0.687776  0  4.137274  0  0  0.236359  0.630936  0  4.148558  0
O  O72  1  0.31170600  0.76258139  0.30194565  1  0  -0.74855  0  1.979804  0  0  -0.700177  0  2.227288  0  0  -0.730773  0  2.216209  0  0  -0.4417  -0.683612  0  2.234546  0
O  O73  1  0.68828170  0.26259186  0.69805643  1  0  -0.748524  0  1.979829  0  0  -0.700105  0  2.227219  0  0  -0.730712  0  2.216143  0  0  -0.441627  -0.683536  0  2.23447  0
O  O74  1  0.01134004  0.23755524  0.69799091  1  0  -0.747772  0  1.980799  0  0  -0.69954  0  2.228598  0  0  -0.730132  0  2.217527  0  0  -0.441972  -0.682959  0  2.235835  0
O  O75  1  0.98864498  0.73754827  0.30200778  1  0  -0.747835  0  1.980731  0  0  -0.699573  0  2.228486  0  0  -0.730171  0  2.217445  0  0  -0.442026  -0.682991  0  2.235725  0
O  O76  1  0.78781033  0.42922220  0.48702851  1  0  -0.666886  0  2.02573  0  0  -0.614618  0  2.274885  0  0  -0.64558  0  2.26195  0  0  -0.366909  -0.59794  0  2.282075  0
O  O77  1  0.21215180  0.92923341  0.51296798  1  0  -0.667105  0  2.025843  0  0  -0.614692  0  2.274859  0  0  -0.645639  0  2.261916  0  0  -0.366971  -0.598015  0  2.282036  0
O  O78  1  0.30111796  0.57108561  0.51297739  1  0  -0.665968  0  2.026436  0  0  -0.614013  0  2.274345  0  0  -0.644964  0  2.261396  0  0  -0.367213  -0.59732  0  2.28152  0
O  O79  1  0.69888521  0.07108741  0.48702496  1  0  -0.665943  0  2.026272  0  0  -0.613923  0  2.274155  0  0  -0.644891  0  2.261213  0  0  -0.367141  -0.59723  0  2.281318  0
O  O80  1  0.62525070  0.02053270  0.26520778  1  0  -0.869082  0  1.759979  0  0  -0.830531  0  1.91577  0  0  -0.844914  0  1.884142  0  0  -0.651564  -0.820103  0  1.937942  0
O  O81  1  0.37475303  0.52053123  0.73479416  1  0  -0.869021  0  1.760032  0  0  -0.83048  0  1.91585  0  0  -0.844864  0  1.88422  0  0  -0.651527  -0.820043  0  1.938018  0
O  O82  1  0.36109333  0.97989348  0.73478010  1  0  -0.869997  0  1.757766  0  0  -0.831589  0  1.914319  0  0  -0.845934  0  1.882679  0  0  -0.652217  -0.82115  0  1.936523  0
O  O83  1  0.63890534  0.47989477  0.26521801  1  0  -0.869975  0  1.757754  0  0  -0.831582  0  1.914278  0  0  -0.84592  0  1.882664  0  0  -0.652207  -0.82116  0  1.936454  0
O  O84  1  0.70435921  0.78927655  0.72428630  1  0  -0.645104  0  2.013428  0  0  -0.573021  0  2.225762  0  0  -0.59915  0  2.214668  0  0  -0.300711  -0.554683  0  2.232448  0
O  O85  1  0.29566977  0.28926685  0.27571196  1  0  -0.645203  0  2.013805  0  0  -0.573096  0  2.226142  0  0  -0.599228  0  2.215045  0  0  -0.300678  -0.554751  0  2.232838  0
O  O86  1  0.97969484  0.21068099  0.27555725  1  0  -0.645194  0  2.012524  0  0  -0.573678  0  2.225302  0  0  -0.599717  0  2.214111  0  0  -0.301146  -0.555465  0  2.232101  0
O  O87  1  0.02033649  0.71068463  0.72444297  1  0  -0.645192  0  2.012497  0  0  -0.573671  0  2.225259  0  0  -0.599713  0  2.214075  0  0  -0.301104  -0.555465  0  2.23206  0
O  O88  1  0.88246451  0.56232123  0.60893182  1  0  -0.665571  0  2.176305  0  0  -0.614776  0  2.426845  0  0  -0.639218  0  2.409081  0  0  -0.452456  -0.60306  0  2.436578  0
O  O89  1  0.11754174  0.06232190  0.39106763  1  0  -0.665687  0  2.17632  0  0  -0.614853  0  2.427028  0  0  -0.639279  0  2.409265  0  0  -0.452461  -0.603151  0  2.436756  0
O  O90  1  0.27320938  0.43795178  0.39104320  1  0  -0.666066  0  2.174181  0  0  -0.615162  0  2.425531  0  0  -0.639649  0  2.408032  0  0  -0.451466  -0.603419  0  2.435258  0
O  O91  1  0.72680755  0.93795568  0.60895914  1  0  -0.665986  0  2.174232  0  0  -0.615116  0  2.425544  0  0  -0.639606  0  2.408058  0  0  -0.451473  -0.60338  0  2.435267  0
O  O92  1  0.54022644  0.83428034  0.43655889  1  0  -0.772888  0  2.071146  0  0  -0.728418  0  2.345423  0  0  -0.760729  0  2.327958  0  0  -0.437418  -0.711981  0  2.355479  0
O  O93  1  0.45976639  0.33428170  0.56344613  1  0  -0.772952  0  2.071021  0  0  -0.7285  0  2.345311  0  0  -0.760824  0  2.327842  0  0  -0.437535  -0.712047  0  2.355368  0
O  O94  1  0.10385254  0.16587943  0.56344322  1  0  -0.772328  0  2.071617  0  0  -0.727416  0  2.34674  0  0  -0.759699  0  2.329274  0  0  -0.436676  -0.711033  0  2.356854  0
O  O95  1  0.89613921  0.66584719  0.43655676  1  0  -0.77206  0  2.071651  0  0  -0.727181  0  2.34678  0  0  -0.759449  0  2.329317  0  0  -0.436608  -0.710788  0  2.356884  0
