# generated using pymatgen
data_AlH27C45(SO5)3
_symmetry_space_group_name_H-M   'P 1'
_cell_length_a   4.17959111
_cell_length_b   23.53216240
_cell_length_c   23.45293806
_cell_angle_alpha   60.08815150
_cell_angle_beta   88.30588821
_cell_angle_gamma   88.28199893
_symmetry_Int_Tables_number   1
_chemical_formula_structural   AlH27C45(SO5)3
_chemical_formula_sum   'Al1 H27 C45 S3 O15'
_cell_volume   1998.25800618
_cell_formula_units_Z   1
loop_
 _symmetry_equiv_pos_site_id
 _symmetry_equiv_pos_as_xyz
  1  'x, y, z'
loop_
 _atom_site_type_symbol
 _atom_site_label
 _atom_site_symmetry_multiplicity
 _atom_site_fract_x
 _atom_site_fract_y
 _atom_site_fract_z
 _atom_site_occupancy
 _atom_site_pbe_bader_charge
 _atom_site_pbe_bader_spin_density
 _atom_site_pbe_cm5_charge
 _atom_site_pbe_ddec_charge
 _atom_site_pbe_ddec_spin_density
 _atom_site_pbe_ddec_sum_bond_order
 _atom_site_pbe_magmom
Al  Al0  1  0.09299939  0.49984287  0.49882038  1  2.514927  0  0.448249  1.632283  0  2.523896  0
H  H1  1  0.59133356  0.31900529  0.67086903  1  0.049817  0  0.111594  0.113655  0  0.975847  0
H  H2  1  0.55132990  0.25024175  0.79028471  1  0.111502  0  0.106455  0.114919  0  1.025293  0
H  H3  1  0.79154499  0.15427182  0.02422447  1  0.086191  0  0.108348  0.11553  0  1.020595  0
H  H4  1  0.55971491  0.68885854  0.31672799  1  0.086438  0  0.107608  0.109886  0  0.985052  0
H  H5  1  0.57573012  0.80903763  0.26529061  1  0.0307  0  0.097951  0.092954  0  1.015648  0
H  H6  1  0.25904352  0.88595998  0.24691856  1  0.066694  0  0.106367  0.10896  0  1.003946  0
H  H7  1  0.21933871  0.00489555  0.17899348  1  0.056256  0  0.106306  0.107848  0  0.989423  0
H  H8  1  0.47540227  0.10019519  0.11040470  1  0.061152  0  0.102908  0.106176  0  1.014831  0
H  H9  1  0.57260779  0.67154857  0.50819136  1  0.089647  0  0.111594  0.113218  0  0.975692  0
H  H10  1  0.52763197  0.79057818  0.45794245  1  0.087251  0  0.106753  0.115541  0  1.02657  0
H  H11  1  0.77791486  0.02312395  0.31979780  1  0.132119  0  0.108413  0.115499  0  1.02467  0
H  H12  1  0.65368245  0.31846111  0.49097949  1  0.046363  0  0.107101  0.109186  0  0.984759  0
H  H13  1  0.66939383  0.26652886  0.42184621  1  -0.000544  0  0.097519  0.092004  0  1.014239  0
H  H14  1  0.30474788  0.24748563  0.36948337  1  0.055717  0  0.105928  0.107552  0  1.004521  0
H  H15  1  0.24998808  0.17923130  0.31885435  1  0.057733  0  0.106521  0.108198  0  0.988752  0
H  H16  1  0.50399534  0.11008251  0.28856508  1  0.076853  0  0.10286  0.10559  0  1.016911  0
H  H17  1  0.55766834  0.50817524  0.31732037  1  0.028487  0  0.111261  0.113002  0  0.975566  0
H  H18  1  0.52858241  0.45627653  0.24943998  1  0.104957  0  0.106716  0.117391  0  1.021288  0
H  H19  1  0.81414340  0.31639345  0.15323035  1  0.10513  0  0.108309  0.114487  0  1.018516  0
H  H20  1  0.54474511  0.49228013  0.68897016  1  0.063967  0  0.107239  0.109757  0  0.984927  0
H  H21  1  0.56295576  0.42330095  0.80951252  1  0.022299  0  0.097657  0.09219  0  1.016138  0
H  H22  1  0.24649099  0.36621446  0.88600035  1  0.096668  0  0.106454  0.10847  0  1.004138  0
H  H23  1  0.20307649  0.31534408  0.00550275  1  0.067417  0  0.106339  0.108229  0  0.987978  0
H  H24  1  0.49666559  0.28743917  0.10073103  1  0.107005  0  0.102947  0.106935  0  1.014665  0
H  H25  1  0.45195917  0.43845060  0.12813761  1  0.674853  0  0.31053  0.380594  0  0.962605  0
H  H26  1  0.43411571  0.13075248  0.92538072  1  0.6838  0  0.310463  0.381339  0  0.962642  0
H  H27  1  0.38873400  0.92507489  0.44270189  1  0.680024  0  0.310486  0.380715  0  0.962667  0
C  C28  1  0.58273898  0.45024009  0.59868337  1  1.575471  0  0.282321  0.673428  0  4.044384  0
C  C29  1  0.60769377  0.44990270  0.44877614  1  1.569354  0  0.283645  0.675055  0  4.046001  0
C  C30  1  0.58238165  0.59930639  0.44878375  1  1.568883  0  0.282689  0.6726  0  4.048108  0
C  C31  1  0.58033211  0.34176289  0.70154219  1  0.083998  0  -0.0774  -0.088085  0  3.952282  0
C  C32  1  0.56607973  0.30272698  0.76952430  1  0.005371  0  -0.079507  -0.07787  0  3.940282  0
C  C33  1  0.68901019  0.22941550  0.92587172  1  -0.148187  0  -0.017819  -0.156698  0  3.935593  0
C  C34  1  0.66593049  0.20065721  0.99427916  1  -0.030772  0  -0.084677  -0.13179  0  3.982594  0
C  C35  1  0.56060287  0.71157023  0.34743806  1  0.002349  0  -0.086296  -0.102646  0  3.997437  0
C  C36  1  0.56407186  0.77949093  0.31881228  1  -0.00498  0  -0.091042  -0.130532  0  3.998321  0
C  C37  1  0.38099799  0.91587250  0.26274753  1  -0.067232  0  -0.0861  -0.126223  0  3.970133  0
C  C38  1  0.35775950  0.98360239  0.22398694  1  -0.003606  0  -0.081803  -0.106872  0  3.974383  0
C  C39  1  0.57059644  0.41008183  0.67194611  1  -0.07559  0  -0.001606  -0.018026  0  3.963055  0
C  C40  1  0.56181345  0.33056038  0.81038840  1  0.085924  0  -0.01174  0.049108  0  3.977733  0
C  C41  1  0.54677927  0.29176958  0.88334402  1  -0.028027  0  0.010867  0.081515  0  3.926002  0
C  C42  1  0.49689117  0.23033765  0.02499283  1  0.083516  0  -0.007415  0.07032  0  4.004128  0
C  C43  1  0.48438936  0.19752438  0.09749290  1  0.041505  0  -0.006778  0.08099  0  4.028949  0
C  C44  1  0.48002152  0.12885549  0.13527773  1  -0.158682  0  -0.087106  -0.178067  0  3.924038  0
C  C45  1  0.56819779  0.70196169  0.45479167  1  0.020244  0  -0.076751  -0.086349  0  3.95018  0
C  C46  1  0.55142816  0.76973302  0.42604408  1  -0.014626  0  -0.079621  -0.079126  0  3.941579  0
C  C47  1  0.67538577  0.92541613  0.34311438  1  -0.192498  0  -0.017852  -0.156089  0  3.934778  0
C  C48  1  0.65752494  0.99356618  0.30346291  1  -0.114264  0  -0.085194  -0.131916  0  3.983719  0
C  C49  1  0.63231989  0.34860745  0.43776152  1  -0.008934  0  -0.086484  -0.103911  0  4.00062  0
C  C50  1  0.63696940  0.31959861  0.39854607  1  0.035381  0  -0.091148  -0.130276  0  4.006109  0
C  C51  1  0.42271944  0.26237629  0.32218131  1  -0.04361  0  -0.085331  -0.125308  0  3.968639  0
C  C52  1  0.39203869  0.22352395  0.29356446  1  -0.048335  0  -0.081451  -0.106908  0  3.973575  0
C  C53  1  0.56896765  0.67228103  0.41593821  1  -0.059657  0  -0.00225  -0.01809  0  3.961886  0
C  C54  1  0.55659384  0.81032257  0.35734112  1  -0.020195  0  -0.010969  0.051085  0  3.977435  0
C  C55  1  0.54202160  0.88304108  0.32344517  1  0.057726  0  0.011524  0.080303  0  3.927811  0
C  C56  1  0.49938323  0.02439005  0.24350802  1  0.093453  0  -0.007164  0.069722  0  4.004073  0
C  C57  1  0.48763032  0.09665672  0.20410702  1  0.035769  0  -0.006371  0.080371  0  4.027742  0
C  C58  1  0.49660413  0.13450865  0.23505123  1  -0.004826  0  -0.086932  -0.1756  0  3.922043  0
C  C59  1  0.57968637  0.45501525  0.34022179  1  0.09671  0  -0.077362  -0.089099  0  3.95361  0
C  C60  1  0.57001667  0.42559907  0.30161423  1  -0.028267  0  -0.07951  -0.081713  0  3.941383  0
C  C61  1  0.71980158  0.34085378  0.22869705  1  -0.194491  0  -0.018545  -0.158051  0  3.943262  0
C  C62  1  0.69549955  0.30106116  0.20047466  1  0.022967  0  -0.083722  -0.129164  0  3.980657  0
C  C63  1  0.55367652  0.43903856  0.71154451  1  -0.055793  0  -0.086565  -0.10362  0  4.000336  0
C  C64  1  0.55875219  0.39965360  0.77967374  1  -0.008851  0  -0.090127  -0.128686  0  3.999164  0
C  C65  1  0.37415072  0.32004905  0.91615325  1  -0.013684  0  -0.085903  -0.125887  0  3.970159  0
C  C66  1  0.34837008  0.29117882  0.98408855  1  -0.13251  0  -0.081205  -0.106772  0  3.975155  0
C  C67  1  0.60718185  0.41685346  0.40849447  1  -0.063354  0  -0.002486  -0.01675  0  3.960749  0
C  C68  1  0.60318464  0.35731079  0.32974625  1  0.005134  0  -0.011811  0.049616  0  3.985456  0
C  C69  1  0.58677393  0.32246297  0.29184247  1  0.08457  0  0.011318  0.082919  0  3.931691  0
C  C70  1  0.52938644  0.24224083  0.23146407  1  -0.033735  0  -0.00726  0.06838  0  4.003164  0
C  C71  1  0.50234445  0.20306515  0.19855914  1  -0.02772  0  -0.006256  0.081305  0  4.029395  0
C  C72  1  0.49262581  0.23404809  0.12969638  1  -0.155782  0  -0.086997  -0.178399  0  3.924133  0
S  S73  1  0.91715100  0.41592086  0.17531993  1  3.069111  0  0.555873  1.185922  0  5.922707  0
S  S74  1  0.90070574  0.17746349  0.90164237  1  3.088547  0  0.555499  1.183973  0  5.92232  0
S  S75  1  0.86672449  0.90145252  0.41928733  1  3.074622  0  0.555551  1.182708  0  5.92081  0
O  O76  1  0.35868174  0.57095243  0.43705808  1  -1.254472  0  -0.240407  -0.606717  0  2.322324  0
O  O77  1  0.35004563  0.49016212  0.57031808  1  -1.263075  0  -0.240624  -0.606684  0  2.320873  0
O  O78  1  0.37355746  0.43851820  0.48904705  1  -1.258677  0  -0.240561  -0.6071  0  2.32454  0
O  O79  1  0.81743735  0.57122814  0.48702468  1  -1.25519  0  -0.235345  -0.606029  0  2.349531  0
O  O80  1  0.84139591  0.48760021  0.43867599  1  -1.251482  0  -0.234346  -0.602535  0  2.341667  0
O  O81  1  0.82592432  0.44016928  0.57050347  1  -1.256303  0  -0.234754  -0.605002  0  2.347362  0
O  O82  1  0.64649512  0.46278612  0.13084380  1  -1.272779  0  -0.351813  -0.51916  0  2.230165  0
O  O83  1  0.05626262  0.44512348  0.20941439  1  -1.292892  0  -0.286432  -0.515734  0  2.251121  0
O  O84  1  0.13807054  0.40311877  0.13268321  1  -1.312561  0  -0.326229  -0.573519  0  2.203169  0
O  O85  1  0.63824270  0.13375201  0.89817627  1  -1.278611  0  -0.351213  -0.51942  0  2.232581  0
O  O86  1  0.05460080  0.21246316  0.83840087  1  -1.304531  0  -0.285452  -0.514806  0  2.255947  0
O  O87  1  0.11233653  0.13422158  0.95635700  1  -1.317682  0  -0.326119  -0.572129  0  2.204988  0
O  O88  1  0.58865583  0.89770239  0.46672259  1  -1.277138  0  -0.351062  -0.518362  0  2.233211  0
O  O89  1  0.02296205  0.83850694  0.44721919  1  -1.298254  0  -0.285691  -0.515092  0  2.258454  0
O  O90  1  0.07161973  0.95611265  0.40817156  1  -1.312172  0  -0.325555  -0.570617  0  2.20307  0
