# generated using pymatgen
data_LiH14C14S2NO10
_symmetry_space_group_name_H-M   'P 1'
_cell_length_a   6.65444581
_cell_length_b   7.43007015
_cell_length_c   17.78257097
_cell_angle_alpha   83.80433203
_cell_angle_beta   81.92882355
_cell_angle_gamma   76.42188667
_symmetry_Int_Tables_number   1
_chemical_formula_structural   LiH14C14S2NO10
_chemical_formula_sum   'Li2 H28 C28 S4 N2 O20'
_cell_volume   843.61355083
_cell_formula_units_Z   2
loop_
 _symmetry_equiv_pos_site_id
 _symmetry_equiv_pos_as_xyz
  1  'x, y, z'
loop_
 _atom_site_type_symbol
 _atom_site_label
 _atom_site_symmetry_multiplicity
 _atom_site_fract_x
 _atom_site_fract_y
 _atom_site_fract_z
 _atom_site_occupancy
 _atom_site_hle17_bader_spin_density
 _atom_site_hle17_ddec_charge
 _atom_site_hle17_ddec_spin_density
 _atom_site_hle17_ddec_sum_bond_order
 _atom_site_hle17_magmom
 _atom_site_hse06_10hf_bader_spin_density
 _atom_site_hse06_10hf_ddec_charge
 _atom_site_hse06_10hf_ddec_spin_density
 _atom_site_hse06_10hf_ddec_sum_bond_order
 _atom_site_hse06_10hf_magmom
 _atom_site_hse06_bader_spin_density
 _atom_site_hse06_ddec_charge
 _atom_site_hse06_ddec_spin_density
 _atom_site_hse06_ddec_sum_bond_order
 _atom_site_hse06_magmom
 _atom_site_pbe_bader_spin_density
 _atom_site_pbe_cm5_charge
 _atom_site_pbe_ddec_charge
 _atom_site_pbe_ddec_spin_density
 _atom_site_pbe_ddec_sum_bond_order
 _atom_site_pbe_magmom
Li  Li0  1  0.65851340  0.20050589  0.03636808  1  0  0.865668  0  0.387596  0  0  0.836811  0  0.475079  0  0  0.844235  0  0.460672  0  0  0.524569  0.831314  0  0.485596  0
Li  Li1  1  0.34148262  0.79950077  0.96362992  1  0  0.865635  0  0.387651  0  0  0.836799  0  0.475103  0  0  0.844211  0  0.460705  0  0  0.524555  0.831301  0  0.485624  0
H  H2  1  0.71251127  0.98214320  0.93970699  1  0  0.426449  0  0.875135  0  0  0.399604  0  0.932074  0  0  0.410103  0  0.916537  0  0  0.297208  0.392172  0  0.943066  0
H  H3  1  0.28749270  0.01786210  0.06029120  1  0  0.426406  0  0.875186  0  0  0.399563  0  0.932123  0  0  0.410063  0  0.916585  0  0  0.297194  0.392132  0  0.943114  0
H  H4  1  0.83625672  0.13083022  0.89546624  1  0  0.428485  0  0.869874  0  0  0.399307  0  0.930784  0  0  0.408855  0  0.916514  0  0  0.298232  0.392605  0  0.940801  0
H  H5  1  0.16373778  0.86917642  0.10453183  1  0  0.428517  0  0.869833  0  0  0.399301  0  0.930809  0  0  0.408851  0  0.916538  0  0  0.298236  0.392596  0  0.94083  0
H  H6  1  0.24657561  0.31223685  0.07315606  1  0  0.434494  0  0.86127  0  0  0.405149  0  0.92134  0  0  0.41471  0  0.907304  0  0  0.306119  0.398431  0  0.93119  0
H  H7  1  0.75342264  0.68776703  0.92684194  1  0  0.434429  0  0.861367  0  0  0.405141  0  0.921346  0  0  0.414698  0  0.907319  0  0  0.306116  0.39842  0  0.931201  0
H  H8  1  0.31826913  0.26332327  0.98753710  1  0  0.424046  0  0.879513  0  0  0.390626  0  0.947831  0  0  0.400173  0  0.933984  0  0  0.304317  0.383868  0  0.957638  0
H  H9  1  0.68172760  0.73668061  0.01246155  1  0  0.424011  0  0.879569  0  0  0.390575  0  0.947916  0  0  0.400122  0  0.934068  0  0  0.304309  0.383813  0  0.957731  0
H  H10  1  0.83203766  0.66455394  0.31475762  1  0  0.113472  0  0.947419  0  0  0.119924  0  1.013752  0  0  0.123516  0  1.011333  0  0  0.109242  0.117311  0  1.015617  0
H  H11  1  0.16796188  0.33545692  0.68524336  1  0  0.113505  0  0.947355  0  0  0.119973  0  1.013676  0  0  0.123568  0  1.011258  0  0  0.109267  0.117357  0  1.015551  0
H  H12  1  0.57017032  0.63521774  0.42754971  1  0  0.114125  0  0.942467  0  0  0.12172  0  1.004453  0  0  0.125303  0  1.00193  0  0  0.110335  0.119123  0  1.006374  0
H  H13  1  0.42983399  0.36478615  0.57244740  1  0  0.114092  0  0.942453  0  0  0.121704  0  1.004404  0  0  0.125287  0  1.001882  0  0  0.11031  0.119105  0  1.006325  0
H  H14  1  0.08426761  0.96679039  0.30324067  1  0  0.104631  0  0.954891  0  0  0.112152  0  1.020646  0  0  0.115465  0  1.018469  0  0  0.107871  0.109701  0  1.022386  0
H  H15  1  0.91573314  0.03320380  0.69676046  1  0  0.104615  0  0.954947  0  0  0.112123  0  1.020721  0  0  0.115444  0  1.018523  0  0  0.107852  0.10968  0  1.02245  0
H  H16  1  0.34605901  0.00046887  0.18997475  1  0  0.11385  0  0.941267  0  0  0.125911  0  0.996412  0  0  0.129187  0  0.994744  0  0  0.117823  0.123498  0  0.997791  0
H  H17  1  0.65393870  0.99952530  0.81002599  1  0  0.113834  0  0.941241  0  0  0.125904  0  0.996395  0  0  0.129184  0  0.994713  0  0  0.11785  0.123491  0  0.997774  0
H  H18  1  0.91696022  0.23729336  0.26244666  1  0  0.107374  0  0.954674  0  0  0.115955  0  1.018201  0  0  0.119135  0  1.016542  0  0  0.108901  0.113638  0  1.01957  0
H  H19  1  0.08304318  0.76270220  0.73755145  1  0  0.107279  0  0.954737  0  0  0.115905  0  1.01822  0  0  0.119084  0  1.016558  0  0  0.108882  0.113585  0  1.019592  0
H  H20  1  0.67670265  0.15548583  0.37590581  1  0  0.116715  0  0.936529  0  0  0.124384  0  0.998534  0  0  0.12814  0  0.995914  0  0  0.110761  0.121668  0  1.000519  0
H  H21  1  0.32330217  0.84450418  0.62409362  1  0  0.116734  0  0.936588  0  0  0.124384  0  0.998609  0  0  0.128139  0  0.995991  0  0  0.110774  0.121671  0  1.000595  0
H  H22  1  0.15371011  0.48473446  0.26799899  1  0  0.108181  0  0.958368  0  0  0.112269  0  1.030098  0  0  0.116077  0  1.026842  0  0  0.107322  0.109514  0  1.032535  0
H  H23  1  0.84628995  0.51526252  0.73200430  1  0  0.108186  0  0.958328  0  0  0.112293  0  1.030043  0  0  0.116101  0  1.026784  0  0  0.107317  0.109537  0  1.032484  0
H  H24  1  0.39034772  0.55971882  0.15510071  1  0  0.12243  0  0.928966  0  0  0.13163  0  0.988498  0  0  0.135402  0  0.986049  0  0  0.122422  0.128882  0  0.990377  0
H  H25  1  0.60965059  0.44028514  0.84490459  1  0  0.122447  0  0.928891  0  0  0.131613  0  0.98848  0  0  0.135385  0  0.986029  0  0  0.122479  0.128865  0  0.990358  0
H  H26  1  0.10195974  0.66057058  0.53869540  1  0  0.397589  0  0.902921  0  0  0.366363  0  0.980497  0  0  0.379585  0  0.962032  0  0  0.303864  0.357111  0  0.990344  0
H  H27  1  0.89804523  0.33942503  0.46130769  1  0  0.397567  0  0.902997  0  0  0.366319  0  0.980582  0  0  0.379539  0  0.962122  0  0  0.303848  0.357067  0  0.990473  0
H  H28  1  0.20785374  0.16399281  0.49694365  1  0  0.39911  0  0.886501  0  0  0.368958  0  0.962798  0  0  0.382008  0  0.948846  0  0  0.305821  0.359775  0  0.972575  0
H  H29  1  0.79215238  0.83600419  0.50305875  1  0  0.399075  0  0.886531  0  0  0.368922  0  0.962839  0  0  0.38197  0  0.948895  0  0  0.30583  0.359741  0  0.972615  0
C  C30  1  0.60200929  0.83176208  0.24587641  1  0  -0.114644  0  3.741686  0  0  -0.089533  0  3.988168  0  0  -0.095653  0  4.011946  0  0  -0.009814  -0.085488  0  3.97217  0
C  C31  1  0.39799413  0.16823350  0.75412395  1  0  -0.114597  0  3.74172  0  0  -0.089402  0  3.98809  0  0  -0.095522  0  4.011868  0  0  -0.009823  -0.085356  0  3.97209  0
C  C32  1  0.66851368  0.73066164  0.31237190  1  0  -0.064791  0  3.725709  0  0  -0.089961  0  3.980189  0  0  -0.091086  0  4.000894  0  0  -0.079879  -0.089145  0  3.966211  0
C  C33  1  0.33149520  0.26934231  0.68762833  1  0  -0.06478  0  3.7256  0  0  -0.089999  0  3.98005  0  0  -0.091128  0  4.000758  0  0  -0.07986  -0.089187  0  3.96607  0
C  C34  1  0.52220891  0.71475851  0.37547270  1  0  -0.036649  0  3.666037  0  0  -0.061658  0  3.916029  0  0  -0.061462  0  3.935765  0  0  -0.070105  -0.061628  0  3.902591  0
C  C35  1  0.47780184  0.28524405  0.62452694  1  0  -0.036701  0  3.666083  0  0  -0.061687  0  3.91605  0  0  -0.06149  0  3.935789  0  0  -0.070103  -0.061657  0  3.902611  0
C  C36  1  0.31165952  0.80019333  0.37177465  1  0  -0.076066  0  3.762337  0  0  -0.056661  0  3.99993  0  0  -0.064944  0  4.023459  0  0  -0.014811  -0.05124  0  3.984126  0
C  C37  1  0.68834776  0.19980506  0.62822650  1  0  -0.076086  0  3.762357  0  0  -0.056697  0  3.999967  0  0  -0.064988  0  4.023489  0  0  -0.014797  -0.05127  0  3.984151  0
C  C38  1  0.24860457  0.90405081  0.30525041  1  0  -0.047468  0  3.696006  0  0  -0.074936  0  3.951449  0  0  -0.074934  0  3.970831  0  0  -0.074644  -0.074849  0  3.938445  0
C  C39  1  0.75139923  0.09594341  0.69475281  1  0  -0.047388  0  3.696051  0  0  -0.074848  0  3.951498  0  0  -0.074844  0  3.970881  0  0  -0.07461  -0.07477  0  3.938489  0
C  C40  1  0.39342306  0.92074588  0.24201166  1  0  -0.049014  0  3.709362  0  0  -0.073393  0  3.960784  0  0  -0.074261  0  3.980979  0  0  -0.073243  -0.072806  0  3.947259  0
C  C41  1  0.60657768  0.07924830  0.75798948  1  0  -0.049042  0  3.709515  0  0  -0.073455  0  3.96091  0  0  -0.074323  0  3.981109  0  0  -0.073282  -0.072868  0  3.947386  0
C  C42  1  0.15149541  0.77980674  0.43721926  1  0  0.663034  0  3.801587  0  0  0.610233  0  4.102437  0  0  0.644923  0  4.092279  0  0  0.239114  0.586693  0  4.108786  0
C  C43  1  0.84851176  0.22018609  0.56278216  1  0  0.66315  0  3.801632  0  0  0.610332  0  4.102479  0  0  0.645045  0  4.092285  0  0  0.239133  0.586788  0  4.108832  0
C  C44  1  0.66661040  0.40057441  0.20312453  1  0  -0.118345  0  3.758947  0  0  -0.092255  0  4.005566  0  0  -0.097573  0  4.027733  0  0  -0.007038  -0.088835  0  3.990889  0
C  C45  1  0.33338708  0.59942673  0.79687758  1  0  -0.118519  0  3.759117  0  0  -0.092373  0  4.00566  0  0  -0.097705  0  4.027847  0  0  -0.00706  -0.08895  0  3.990978  0
C  C46  1  0.74911372  0.28706895  0.26436076  1  0  -0.059316  0  3.720619  0  0  -0.087931  0  3.980212  0  0  -0.088965  0  3.999628  0  0  -0.078447  -0.087243  0  3.9672  0
C  C47  1  0.25089015  0.71293079  0.73563826  1  0  -0.059161  0  3.720718  0  0  -0.087779  0  3.980229  0  0  -0.088805  0  3.999644  0  0  -0.078413  -0.08709  0  3.967212  0
C  C48  1  0.61487926  0.24365606  0.32765392  1  0  -0.040679  0  3.668215  0  0  -0.067567  0  3.922227  0  0  -0.067619  0  3.942695  0  0  -0.071279  -0.067331  0  3.908281  0
C  C49  1  0.38512451  0.75633813  0.67234593  1  0  -0.040732  0  3.668507  0  0  -0.067643  0  3.922544  0  0  -0.067692  0  3.943014  0  0  -0.071326  -0.06742  0  3.908592  0
C  C50  1  0.40007520  0.31725174  0.32914301  1  0  -0.086201  0  3.771315  0  0  -0.063094  0  4.006002  0  0  -0.072705  0  4.03159  0  0  -0.014622  -0.056784  0  3.988775  0
C  C51  1  0.59992217  0.68274383  0.67085881  1  0  -0.086127  0  3.771335  0  0  -0.062958  0  4.005938  0  0  -0.072574  0  4.031535  0  0  -0.014521  -0.056617  0  3.988669  0
C  C52  1  0.32016865  0.42871859  0.26654246  1  0  -0.035026  0  3.685443  0  0  -0.062461  0  3.938992  0  0  -0.06191  0  3.958582  0  0  -0.069945  -0.062758  0  3.92587  0
C  C53  1  0.67982730  0.57128253  0.73345917  1  0  -0.035138  0  3.685582  0  0  -0.062604  0  3.939139  0  0  -0.062055  0  3.95874  0  0  -0.070032  -0.062909  0  3.926006  0
C  C54  1  0.45248415  0.47020575  0.20300361  1  0  -0.050631  0  3.707299  0  0  -0.075417  0  3.958227  0  0  -0.076159  0  3.977506  0  0  -0.068866  -0.074938  0  3.945428  0
C  C55  1  0.54751369  0.52979401  0.79699966  1  0  -0.050493  0  3.707227  0  0  -0.075275  0  3.958199  0  0  -0.076015  0  3.977483  0  0  -0.068867  -0.074797  0  3.945399  0
C  C56  1  0.24860682  0.28575774  0.39592548  1  0  0.660958  0  3.8016  0  0  0.604543  0  4.107134  0  0  0.63903  0  4.09796  0  0  0.240477  0.58117  0  4.112771  0
C  C57  1  0.75139581  0.71423507  0.60407618  1  0  0.66097  0  3.801523  0  0  0.60456  0  4.107058  0  0  0.639047  0  4.097882  0  0  0.240467  0.581178  0  4.112694  0
S  S58  1  0.78253982  0.83993943  0.16243636  1  0  1.274977  0  5.450454  0  0  1.180715  0  5.958523  0  0  1.226029  0  5.941009  0  0  0.578335  1.149604  0  5.96968  0
S  S59  1  0.21744896  0.16006579  0.83756040  1  0  1.274938  0  5.450601  0  0  1.180707  0  5.958631  0  0  1.22603  0  5.941111  0  0  0.578312  1.149595  0  5.969781  0
S  S60  1  0.83253029  0.46875886  0.12345705  1  0  1.269897  0  5.450822  0  0  1.172635  0  5.962757  0  0  1.217968  0  5.944724  0  0  0.577493  1.141472  0  5.974263  0
S  S61  1  0.16746413  0.53124224  0.87654298  1  0  1.269894  0  5.450596  0  0  1.172744  0  5.962455  0  0  1.218088  0  5.944414  0  0  0.577527  1.141576  0  5.97396  0
N  N62  1  0.75518050  0.68883056  0.10889793  1  0  -0.77454  0  2.962743  0  0  -0.711074  0  3.266767  0  0  -0.735781  0  3.260948  0  0  -0.393058  -0.693607  0  3.269597  0
N  N63  1  0.24481274  0.31116914  0.89110110  1  0  -0.77449  0  2.962638  0  0  -0.711058  0  3.266633  0  0  -0.735755  0  3.260782  0  0  -0.393058  -0.693618  0  3.269529  0
O  O64  1  0.73533572  0.10975676  0.93935744  1  0  -0.910612  0  1.75414  0  0  -0.869361  0  1.913779  0  0  -0.883883  0  1.881598  0  0  -0.673943  -0.859131  0  1.936355  0
O  O65  1  0.26466288  0.89024573  0.06064117  1  0  -0.910584  0  1.75412  0  0  -0.869324  0  1.913771  0  0  -0.883843  0  1.881589  0  0  -0.673937  -0.859089  0  1.936356  0
O  O66  1  0.35595078  0.23221201  0.04034918  1  0  -0.880532  0  1.839078  0  0  -0.828397  0  2.003251  0  0  -0.846556  0  1.973248  0  0  -0.622549  -0.815551  0  2.024159  0
O  O67  1  0.64404105  0.76779324  0.95964911  1  0  -0.880451  0  1.839094  0  0  -0.828312  0  2.003195  0  0  -0.846464  0  1.9732  0  0  -0.622538  -0.815465  0  2.02411  0
O  O68  1  0.71398668  0.01849579  0.12135094  1  0  -0.67877  0  2.02034  0  0  -0.638802  0  2.283573  0  0  -0.65802  0  2.270076  0  0  -0.370832  -0.625315  0  2.292444  0
O  O69  1  0.28598847  0.98150940  0.87864825  1  0  -0.678778  0  2.020418  0  0  -0.638845  0  2.283693  0  0  -0.658061  0  2.270187  0  0  -0.370815  -0.625355  0  2.292565  0
O  O70  1  0.98922193  0.80300767  0.18729182  1  0  -0.627444  0  1.981445  0  0  -0.568203  0  2.222478  0  0  -0.590585  0  2.212488  0  0  -0.303478  -0.55261  0  2.228853  0
O  O71  1  0.01077160  0.19700868  0.81270360  1  0  -0.627447  0  1.981536  0  0  -0.568287  0  2.222605  0  0  -0.59069  0  2.212641  0  0  -0.303495  -0.552681  0  2.22897  0
O  O72  1  0.78797067  0.39581022  0.05614428  1  0  -0.670968  0  1.946102  0  0  -0.627911  0  2.195947  0  0  -0.645959  0  2.179769  0  0  -0.368844  -0.615167  0  2.206619  0
O  O73  1  0.21202644  0.60419229  0.94385610  1  0  -0.671009  0  1.945961  0  0  -0.627949  0  2.195756  0  0  -0.645993  0  2.17957  0  0  -0.36886  -0.615201  0  2.206432  0
O  O74  1  0.04521507  0.40677215  0.14257286  1  0  -0.624332  0  1.997441  0  0  -0.56477  0  2.238394  0  0  -0.586298  0  2.226789  0  0  -0.301424  -0.549716  0  2.245932  0
O  O75  1  0.95478167  0.59323173  0.85742579  1  0  -0.624167  0  1.99717  0  0  -0.564797  0  2.238202  0  0  -0.586333  0  2.2266  0  0  -0.301424  -0.549735  0  2.245737  0
O  O76  1  0.96512908  0.86321832  0.43633840  1  0  -0.571317  0  1.974518  0  0  -0.521323  0  2.189503  0  0  -0.543859  0  2.180189  0  0  -0.28634  -0.505836  0  2.195572  0
O  O77  1  0.03487914  0.13677033  0.56366202  1  0  -0.571496  0  1.974521  0  0  -0.521486  0  2.189515  0  0  -0.544031  0  2.180181  0  0  -0.286426  -0.505999  0  2.195589  0
O  O78  1  0.22211298  0.66678351  0.49488655  1  0  -0.536289  0  2.097687  0  0  -0.48654  0  2.317525  0  0  -0.508787  0  2.298958  0  0  -0.320172  -0.471078  0  2.327555  0
O  O79  1  0.77789537  0.33321073  0.50511642  1  0  -0.536216  0  2.09775  0  0  -0.486475  0  2.317602  0  0  -0.508729  0  2.299026  0  0  -0.320102  -0.47101  0  2.327658  0
O  O80  1  0.05920888  0.36024792  0.39547139  1  0  -0.569841  0  2.00359  0  0  -0.51599  0  2.222842  0  0  -0.539077  0  2.212948  0  0  -0.284126  -0.500148  0  2.228624  0
O  O81  1  0.94079419  0.63974906  0.60452949  1  0  -0.569899  0  2.003599  0  0  -0.516052  0  2.222842  0  0  -0.539141  0  2.212945  0  0  -0.284158  -0.500211  0  2.22862  0
O  O82  1  0.32568607  0.17839839  0.45382182  1  0  -0.522  0  2.09947  0  0  -0.471598  0  2.316674  0  0  -0.493715  0  2.302652  0  0  -0.312758  -0.456287  0  2.325925  0
O  O83  1  0.67431923  0.82159582  0.54618019  1  0  -0.521993  0  2.099553  0  0  -0.471611  0  2.316782  0  0  -0.493727  0  2.30276  0  0  -0.312762  -0.456302  0  2.326038  0
