# generated using pymatgen
data_Ho2Cu3H24(C4O5)6
_symmetry_space_group_name_H-M   'P 1'
_cell_length_a   12.76806630
_cell_length_b   12.77321038
_cell_length_c   16.42062722
_cell_angle_alpha   89.99724142
_cell_angle_beta   89.99968765
_cell_angle_gamma   119.98622230
_symmetry_Int_Tables_number   1
_chemical_formula_structural   Ho2Cu3H24(C4O5)6
_chemical_formula_sum   'Ho4 Cu6 H48 C48 O60'
_cell_volume   2319.56124977
_cell_formula_units_Z   2
loop_
 _symmetry_equiv_pos_site_id
 _symmetry_equiv_pos_as_xyz
  1  'x, y, z'
loop_
 _atom_site_type_symbol
 _atom_site_label
 _atom_site_symmetry_multiplicity
 _atom_site_fract_x
 _atom_site_fract_y
 _atom_site_fract_z
 _atom_site_occupancy
 _atom_site_pbe_bader_charge
 _atom_site_pbe_bader_spin_density
 _atom_site_pbe_cm5_charge
 _atom_site_pbe_ddec_charge
 _atom_site_pbe_ddec_spin_density
 _atom_site_pbe_ddec_sum_bond_order
 _atom_site_pbe_magmom
Ho  Ho0  1  0.66660687  0.33327183  0.75002133  1  2.157278  -0.000652  1.541225  1.958674  -0.001228  2.273903  -0.001
Ho  Ho1  1  0.33338165  0.66670357  0.74999977  1  2.15737  -0.000652  1.541195  1.958655  -0.001228  2.27383  -0.001
Ho  Ho2  1  0.33333616  0.66663841  0.24999207  1  2.156784  -0.000653  1.541105  1.958234  -0.001228  2.274436  -0.001
Ho  Ho3  1  0.66671625  0.33330828  0.24999780  1  2.157623  -0.000652  1.541152  1.958377  -0.001228  2.274401  -0.001
Cu  Cu4  1  0.00001562  0.49999915  0.99996615  1  1.117299  0.580034  0.732233  0.945809  0.738001  2.000791  0.583
Cu  Cu5  1  0.50000101  0.99998855  0.99999073  1  1.115511  0.580077  0.732488  0.945657  0.738113  2.003327  0.583
Cu  Cu6  1  0.50000925  0.49999722  0.00003493  1  1.116111  0.579941  0.732007  0.945154  0.737954  2.002496  0.583
Cu  Cu7  1  0.50000881  0.49999298  0.50001218  1  1.116291  0.579976  0.732348  0.945701  0.737977  2.001344  0.583
Cu  Cu8  1  0.50001414  0.99999292  0.49995806  1  1.117661  0.580097  0.732466  0.94583  0.738103  2.003029  0.583
Cu  Cu9  1  0.99999746  0.49996199  0.50002755  1  1.11535  0.579932  0.732134  0.945451  0.73793  2.002317  0.582
H  H10  1  0.93610197  0.23911533  0.79471258  1  0.038426  -0.000168  0.106335  0.083475  -0.000215  1.008952  0.0
H  H11  1  0.80374542  0.15111994  0.85608010  1  0.103799  0.000112  0.117905  0.113701  1.6e-05  0.964791  0.0
H  H12  1  0.30294007  0.06390126  0.79479765  1  0.054011  -0.000174  0.106316  0.083596  -0.000214  1.008769  0.0
H  H13  1  0.34737109  0.19626938  0.85608902  1  0.095918  0.000113  0.117937  0.113794  1.6e-05  0.96504  0.0
H  H14  1  0.76079225  0.69694571  0.79474108  1  0.045181  -0.000168  0.106182  0.083522  -0.000215  1.008736  0.0
H  H15  1  0.84886648  0.65260727  0.85604045  1  0.11811  0.000108  0.11784  0.113619  1.5e-05  0.96497  0.0
H  H16  1  0.06387968  0.76089312  0.79470888  1  0.038194  -0.000169  0.106437  0.083677  -0.000215  1.008711  0.0
H  H17  1  0.19624494  0.84889158  0.85605348  1  0.103442  0.000111  0.117882  0.113773  1.6e-05  0.964756  0.0
H  H18  1  0.69703504  0.93609964  0.79474500  1  0.053525  -0.000174  0.106443  0.0837  -0.000214  1.008471  0.0
H  H19  1  0.65264404  0.80374450  0.85605674  1  0.096494  0.000113  0.117901  0.113676  1.6e-05  0.964803  0.0
H  H20  1  0.23909411  0.30300065  0.79486125  1  0.043714  -0.000167  0.106327  0.083648  -0.000214  1.008586  0.0
H  H21  1  0.15110201  0.34750778  0.85610165  1  0.116907  0.00011  0.117896  0.113633  1.6e-05  0.96497  0.0
H  H22  1  0.69709447  0.76103411  0.70514873  1  0.042455  -0.000167  0.106289  0.083504  -0.000214  1.008691  0.0
H  H23  1  0.65250696  0.84892924  0.64387795  1  0.116834  0.000111  0.117991  0.113957  1.6e-05  0.964741  0.0
H  H24  1  0.23906131  0.93608165  0.70515309  1  0.039013  -0.000168  0.106388  0.083747  -0.000214  1.008573  0.0
H  H25  1  0.15110620  0.80366031  0.64391181  1  0.103507  0.00011  0.11794  0.113862  1.5e-05  0.965003  0.0
H  H26  1  0.06396915  0.30299657  0.70523308  1  0.054272  -0.000174  0.106361  0.083546  -0.000214  1.008663  0.0
H  H27  1  0.19639530  0.34745925  0.64392269  1  0.099433  0.000113  0.117949  0.113865  1.7e-05  0.964849  0.0
H  H28  1  0.30291742  0.23908077  0.70525581  1  0.043681  -0.000168  0.106343  0.083785  -0.000215  1.008521  0.0
H  H29  1  0.34734502  0.15110655  0.64393749  1  0.117779  0.00011  0.117866  0.11364  1.6e-05  0.964768  0.0
H  H30  1  0.76102567  0.06399829  0.70512844  1  0.038922  -0.000168  0.10635  0.083578  -0.000214  1.008748  0.0
H  H31  1  0.84889816  0.19647639  0.64389815  1  0.10302  0.000111  0.117963  0.113855  1.6e-05  0.964984  0.0
H  H32  1  0.93601278  0.69697857  0.70516599  1  0.054806  -0.000175  0.106408  0.083611  -0.000214  1.008703  0.0
H  H33  1  0.80354413  0.65246396  0.64389458  1  0.098901  0.000112  0.11788  0.113804  1.6e-05  0.964899  0.0
H  H34  1  0.06382601  0.76082154  0.20524602  1  0.038402  -0.000168  0.106232  0.083645  -0.000215  1.008566  0.0
H  H35  1  0.19622768  0.84883813  0.14392843  1  0.104496  0.00011  0.117991  0.113765  1.5e-05  0.964677  0.0
H  H36  1  0.69695138  0.93611333  0.20528700  1  0.053392  -0.000175  0.106364  0.083685  -0.000215  1.008813  0.0
H  H37  1  0.65266792  0.80380023  0.14395909  1  0.094892  0.000113  0.117942  0.113749  1.5e-05  0.964868  0.0
H  H38  1  0.23904597  0.30295289  0.20520533  1  0.044156  -0.000166  0.106328  0.083514  -0.000214  1.008862  0.0
H  H39  1  0.15108100  0.34744414  0.14392240  1  0.117344  0.000111  0.117959  0.113728  1.6e-05  0.965009  0.0
H  H40  1  0.93615835  0.23908255  0.20520404  1  0.038271  -0.000168  0.106289  0.083552  -0.000215  1.008784  0.0
H  H41  1  0.80373404  0.15110526  0.14390511  1  0.104342  0.00011  0.1179  0.113762  1.6e-05  0.964808  0.0
H  H42  1  0.30301336  0.06399316  0.20517218  1  0.05478  -0.000175  0.106393  0.083684  -0.000214  1.008561  0.0
H  H43  1  0.34752427  0.19641899  0.14391342  1  0.099689  0.000112  0.117956  0.113749  1.6e-05  0.965088  0.0
H  H44  1  0.76078187  0.69693993  0.20533058  1  0.04507  -0.000168  0.10637  0.08374  -0.000215  1.008689  0.0
H  H45  1  0.84889169  0.65272448  0.14396290  1  0.11821  0.000109  0.117888  0.113687  1.5e-05  0.964744  0.0
H  H46  1  0.30303840  0.23912803  0.29475931  1  0.04446  -0.000168  0.106308  0.083587  -0.000215  1.008731  0.0
H  H47  1  0.34743944  0.15112472  0.35607821  1  0.117672  0.00011  0.117925  0.113791  1.6e-05  0.964792  0.0
H  H48  1  0.76114326  0.06401660  0.29485178  1  0.037965  -0.000166  0.106282  0.083366  -0.000213  1.008728  0.0
H  H49  1  0.84896735  0.19645438  0.35610098  1  0.102456  0.000113  0.117995  0.114045  1.7e-05  0.96504  0.0
H  H50  1  0.93604924  0.69702842  0.29490578  1  0.054293  -0.000174  0.106292  0.083551  -0.000213  1.008655  0.0
H  H51  1  0.80349330  0.65238664  0.35611872  1  0.098828  0.000112  0.117918  0.11378  1.6e-05  0.964871  0.0
H  H52  1  0.69707924  0.76108435  0.29487877  1  0.042203  -0.000167  0.106297  0.083401  -0.000214  1.008718  0.0
H  H53  1  0.65239371  0.84891612  0.35613010  1  0.11705  0.000111  0.117946  0.11389  1.7e-05  0.964851  0.0
H  H54  1  0.23905738  0.93605225  0.29475099  1  0.038837  -0.000168  0.10636  0.083562  -0.000214  1.008666  0.0
H  H55  1  0.15112009  0.80370335  0.35606957  1  0.103977  0.000112  0.117889  0.113648  1.6e-05  0.964995  0.0
H  H56  1  0.06387579  0.30297297  0.29480052  1  0.053778  -0.000175  0.10625  0.08343  -0.000214  1.008951  0.0
H  H57  1  0.19631025  0.34737635  0.35607924  1  0.095919  0.000112  0.117861  0.113655  1.5e-05  0.965058  0.0
C  C58  1  0.87826007  0.34339138  0.86553040  1  1.607398  -0.000495  0.223802  0.635285  -0.001035  4.14873  -0.002
C  C59  1  0.85098533  0.23134403  0.81642848  1  0.437298  0.010211  -0.056541  -0.106449  0.007407  3.881604  0.008
C  C60  1  0.46507638  0.12165903  0.86558432  1  1.61451  -0.000534  0.223936  0.635886  -0.001041  4.148799  -0.002
C  C61  1  0.38031200  0.14896400  0.81645795  1  0.427137  0.010216  -0.056627  -0.106595  0.007406  3.881647  0.008
C  C62  1  0.65657026  0.53484382  0.86555966  1  1.639669  -0.000573  0.223929  0.635563  -0.001037  4.149053  -0.002
C  C63  1  0.76858865  0.61962237  0.81641780  1  0.394983  0.01027  -0.056469  -0.106442  0.0074  3.882075  0.008
C  C64  1  0.12174185  0.65662496  0.86552816  1  1.606887  -0.000502  0.223805  0.635505  -0.001036  4.148614  -0.002
C  C65  1  0.14900102  0.76866186  0.81641336  1  0.436616  0.010214  -0.056801  -0.106977  0.007406  3.881747  0.008
C  C66  1  0.53490914  0.87832245  0.86556863  1  1.614346  -0.000531  0.223888  0.635714  -0.001038  4.148735  -0.002
C  C67  1  0.61968100  0.85103861  0.81642957  1  0.426782  0.010218  -0.056785  -0.106562  0.007407  3.881326  0.008
C  C68  1  0.34341630  0.46516422  0.86558233  1  1.639882  -0.000572  0.223922  0.635828  -0.001037  4.148829  -0.002
C  C69  1  0.23136755  0.38038935  0.81647581  1  0.39735  0.010275  -0.056723  -0.106709  0.007402  3.881763  0.008
C  C70  1  0.53490804  0.65663918  0.63442719  1  1.638299  -0.000578  0.223601  0.635262  -0.001038  4.149037  -0.002
C  C71  1  0.61965951  0.76870825  0.68351408  1  0.39946  0.010282  -0.05652  -0.106353  0.007405  3.881086  0.008
C  C72  1  0.34343187  0.87829672  0.63437543  1  1.607154  -0.00049  0.223962  0.635841  -0.001037  4.148592  -0.002
C  C73  1  0.23137438  0.85100798  0.68351643  1  0.43619  0.010212  -0.056849  -0.107172  0.007409  3.881981  0.008
C  C74  1  0.12174648  0.46512948  0.63447364  1  1.613963  -0.000533  0.223838  0.635736  -0.001039  4.149297  -0.002
C  C75  1  0.14906234  0.38036932  0.68357143  1  0.424582  0.010204  -0.056728  -0.10679  0.007402  3.882094  0.008
C  C76  1  0.46507179  0.34338569  0.63445414  1  1.639649  -0.000581  0.223661  0.635508  -0.00104  4.148796  -0.002
C  C77  1  0.38029355  0.23134150  0.68356873  1  0.396711  0.010278  -0.056678  -0.106547  0.007404  3.881144  0.008
C  C78  1  0.65656325  0.12171816  0.63439506  1  1.608195  -0.000491  0.224036  0.635922  -0.001033  4.149027  -0.002
C  C79  1  0.76864822  0.14905495  0.68351401  1  0.436841  0.010213  -0.05681  -0.106895  0.007409  3.882494  0.008
C  C80  1  0.87822824  0.53481915  0.63444910  1  1.613856  -0.000529  0.22381  0.635723  -0.00104  4.14899  -0.002
C  C81  1  0.85091401  0.61958471  0.68353575  1  0.42366  0.010209  -0.056754  -0.106963  0.007403  3.882426  0.008
C  C82  1  0.12171723  0.65657186  0.13443976  1  1.607894  -0.000497  0.224064  0.63587  -0.001034  4.148349  -0.002
C  C83  1  0.14895813  0.76859489  0.18355873  1  0.435865  0.01021  -0.056577  -0.106733  0.007406  3.881492  0.008
C  C84  1  0.53486543  0.87829371  0.13442908  1  1.614623  -0.000526  0.223789  0.635546  -0.001033  4.149229  -0.002
C  C85  1  0.61964115  0.85103760  0.18358407  1  0.429256  0.010216  -0.05662  -0.106635  0.007408  3.882157  0.008
C  C86  1  0.34340050  0.46511187  0.13446471  1  1.639475  -0.000579  0.223954  0.635883  -0.001042  4.148813  -0.002
C  C87  1  0.23132982  0.38033582  0.18356210  1  0.397361  0.010271  -0.0569  -0.106719  0.007401  3.882185  0.008
C  C88  1  0.87829765  0.34337226  0.13441095  1  1.606941  -0.000498  0.223472  0.634951  -0.001036  4.149029  -0.002
C  C89  1  0.85103648  0.23133880  0.18353183  1  0.436415  0.01021  -0.056445  -0.10606  0.007405  3.88058  0.008
C  C90  1  0.46516569  0.12172521  0.13440823  1  1.614779  -0.000527  0.224165  0.635932  -0.001034  4.149098  -0.002
C  C91  1  0.38041600  0.14905523  0.18353268  1  0.422799  0.01022  -0.056741  -0.106936  0.007411  3.882413  0.008
C  C92  1  0.65660398  0.53486817  0.13448405  1  1.639364  -0.00058  0.223772  0.635603  -0.001039  4.149453  -0.002
C  C93  1  0.76862822  0.61966644  0.18361128  1  0.395834  0.01027  -0.056754  -0.106884  0.007402  3.882205  0.008
C  C94  1  0.46516720  0.34339431  0.36555820  1  1.636889  -0.000576  0.22401  0.635971  -0.001033  4.148463  -0.002
C  C95  1  0.38040134  0.23136348  0.31644390  1  0.396348  0.010284  -0.056531  -0.106965  0.007407  3.881766  0.008
C  C96  1  0.65662724  0.12168942  0.36557464  1  1.605913  -0.000497  0.22392  0.635693  -0.00104  4.149583  -0.002
C  C97  1  0.76873581  0.14905642  0.31646957  1  0.439101  0.01021  -0.056631  -0.106497  0.007407  3.881583  0.008
C  C98  1  0.87826559  0.53482351  0.36557752  1  1.614241  -0.000527  0.224067  0.635843  -0.00104  4.148869  -0.002
C  C99  1  0.85094713  0.61958921  0.31648948  1  0.424869  0.010202  -0.056776  -0.106646  0.007401  3.881894  0.008
C  C100  1  0.53487374  0.65660634  0.36557753  1  1.639917  -0.000577  0.223795  0.635319  -0.001035  4.149105  -0.002
C  C101  1  0.61960467  0.76870183  0.31649887  1  0.399023  0.010285  -0.056559  -0.106308  0.007406  3.881454  0.008
C  C102  1  0.34343610  0.87830209  0.36555135  1  1.607493  -0.000497  0.223732  0.635527  -0.001038  4.149366  -0.002
C  C103  1  0.23136393  0.85099286  0.31643057  1  0.436459  0.010214  -0.056665  -0.106622  0.007409  3.882101  0.008
C  C104  1  0.12173343  0.46510544  0.36557587  1  1.615239  -0.00053  0.223777  0.635894  -0.001039  4.148828  -0.002
C  C105  1  0.14898724  0.38032411  0.31645208  1  0.427486  0.010208  -0.056635  -0.106426  0.0074  3.881818  0.008
O  O106  1  0.82015096  0.39660531  0.84949473  1  -1.172773  0.001861  -0.374296  -0.623838  0.00031  2.28501  0.002
O  O107  1  0.95893429  0.37134601  0.91992607  1  -1.111068  0.091202  -0.319314  -0.538079  0.057874  2.343615  0.083
O  O108  1  0.57639831  0.17973496  0.84953991  1  -1.17657  0.001863  -0.374325  -0.624158  0.000312  2.284279  0.002
O  O109  1  0.41235821  0.04102082  0.91996789  1  -1.115484  0.091233  -0.319417  -0.538404  0.057863  2.344938  0.083
O  O110  1  0.60334411  0.42359140  0.84952829  1  -1.181488  0.001845  -0.3742  -0.623827  0.000304  2.285194  0.002
O  O111  1  0.62867697  0.58758066  0.91998308  1  -1.116154  0.091223  -0.319718  -0.53867  0.057866  2.343747  0.083
O  O112  1  0.17984024  0.60340407  0.84948284  1  -1.172452  0.00186  -0.374234  -0.623904  0.000309  2.284969  0.002
O  O113  1  0.04108718  0.62867866  0.91994076  1  -1.110359  0.091207  -0.319356  -0.538143  0.057873  2.343522  0.083
O  O114  1  0.42358837  0.82022974  0.84952840  1  -1.176325  0.001863  -0.374209  -0.624058  0.000313  2.284373  0.002
O  O115  1  0.58761674  0.95894570  0.91995740  1  -1.11565  0.0912  -0.31947  -0.538361  0.057842  2.344533  0.083
O  O116  1  0.39666548  0.57641113  0.84952053  1  -1.18161  0.001847  -0.374211  -0.623936  0.000305  2.285149  0.002
O  O117  1  0.37131006  0.41242636  0.92000859  1  -1.11573  0.091254  -0.319683  -0.538648  0.057886  2.343491  0.083
O  O118  1  0.42359359  0.60339419  0.65049035  1  -1.179463  0.001857  -0.374253  -0.623858  0.000311  2.284994  0.002
O  O119  1  0.58761976  0.62869521  0.58001898  1  -1.116343  0.09124  -0.319263  -0.5382  0.057874  2.344045  0.083
O  O120  1  0.39670356  0.82025220  0.65044277  1  -1.172633  0.001862  -0.374192  -0.624069  0.000311  2.284015  0.002
O  O121  1  0.37131228  0.95889430  0.57996567  1  -1.111769  0.091155  -0.319477  -0.538459  0.057842  2.344498  0.083
O  O122  1  0.17976590  0.57638441  0.65049538  1  -1.176813  0.001853  -0.374006  -0.623894  0.000306  2.285299  0.002
O  O123  1  0.04106011  0.41236696  0.58008591  1  -1.115423  0.091283  -0.319621  -0.538487  0.057894  2.343447  0.083
O  O124  1  0.57638971  0.39660478  0.65049755  1  -1.180938  0.001854  -0.374141  -0.623999  0.000309  2.284856  0.002
O  O125  1  0.41235928  0.37132945  0.58004312  1  -1.116731  0.091228  -0.319321  -0.538253  0.057866  2.343967  0.083
O  O126  1  0.60326561  0.17973424  0.65047144  1  -1.173402  0.001864  -0.37413  -0.623979  0.000313  2.2842  0.002
O  O127  1  0.62869756  0.04112699  0.57998803  1  -1.112002  0.091145  -0.319646  -0.538755  0.057833  2.344651  0.083
O  O128  1  0.82021627  0.42356512  0.65049373  1  -1.177697  0.001853  -0.374076  -0.624054  0.000305  2.285088  0.002
O  O129  1  0.95890463  0.58756574  0.58005048  1  -1.114288  0.091301  -0.319542  -0.538374  0.057908  2.343384  0.083
O  O130  1  0.17979901  0.60333657  0.15050162  1  -1.172965  0.00186  -0.374346  -0.623995  0.000309  2.284968  0.002
O  O131  1  0.04110493  0.62865913  0.08000512  1  -1.111855  0.091184  -0.31965  -0.538682  0.057856  2.343674  0.083
O  O132  1  0.42354202  0.82019622  0.15046375  1  -1.177244  0.001861  -0.373955  -0.62372  0.000311  2.284404  0.002
O  O133  1  0.58758632  0.95891554  0.08003394  1  -1.115361  0.091205  -0.319681  -0.538558  0.057846  2.344706  0.083
O  O134  1  0.39662294  0.57636326  0.15049486  1  -1.181401  0.001848  -0.374173  -0.62388  0.000305  2.285592  0.002
O  O135  1  0.37134098  0.41237283  0.08007235  1  -1.116374  0.091269  -0.319508  -0.538417  0.057897  2.343335  0.083
O  O136  1  0.82021913  0.39660785  0.15046906  1  -1.171807  0.00186  -0.374171  -0.623598  0.00031  2.284827  0.002
O  O137  1  0.95892172  0.37129115  0.07998068  1  -1.111635  0.091193  -0.31935  -0.538392  0.057856  2.344203  0.083
O  O138  1  0.57648346  0.17976567  0.15046613  1  -1.177688  0.001862  -0.374187  -0.623956  0.000312  2.284347  0.002
O  O139  1  0.41244188  0.04111284  0.08001398  1  -1.115553  0.09123  -0.319666  -0.53852  0.057859  2.344436  0.083
O  O140  1  0.60340863  0.42361119  0.15050566  1  -1.181244  0.001847  -0.373993  -0.623821  0.000305  2.285489  0.002
O  O141  1  0.62867091  0.58760530  0.08008154  1  -1.116291  0.091264  -0.31946  -0.538288  0.057894  2.343317  0.083
O  O142  1  0.57648792  0.39662107  0.34950661  1  -1.179003  0.001855  -0.374342  -0.624076  0.00031  2.284741  0.002
O  O143  1  0.41245479  0.37132209  0.41997738  1  -1.11546  0.091215  -0.319576  -0.538555  0.057861  2.343808  0.083
O  O144  1  0.60336986  0.17975394  0.34953288  1  -1.171335  0.001865  -0.374182  -0.624068  0.000312  2.284606  0.002
O  O145  1  0.62869907  0.04102879  0.41994542  1  -1.111557  0.091183  -0.31951  -0.538387  0.057862  2.34514  0.083
O  O146  1  0.82028645  0.42357756  0.34951619  1  -1.177781  0.001852  -0.374217  -0.623953  0.000305  2.285253  0.002
O  O147  1  0.95890713  0.58756148  0.41999204  1  -1.115435  0.091272  -0.319694  -0.538676  0.057884  2.343384  0.083
O  O148  1  0.42355928  0.60332427  0.34950672  1  -1.180716  0.001855  -0.374259  -0.623886  0.00031  2.284931  0.002
O  O149  1  0.58760165  0.62868461  0.41998916  1  -1.116335  0.091229  -0.319521  -0.538345  0.057866  2.343982  0.083
O  O150  1  0.39667388  0.82021613  0.34951638  1  -1.172732  0.001866  -0.373935  -0.623893  0.000313  2.284325  0.002
O  O151  1  0.37135990  0.95894950  0.41992489  1  -1.111496  0.091201  -0.319381  -0.538156  0.057878  2.344439  0.083
O  O152  1  0.17975420  0.57635566  0.34953307  1  -1.177187  0.00185  -0.374079  -0.623878  0.000305  2.28499  0.002
O  O153  1  0.04109095  0.41236321  0.41999580  1  -1.115119  0.091244  -0.319629  -0.538944  0.057866  2.343871  0.083
O  O154  1  0.77605381  0.22380910  0.75000001  1  -1.082777  0.004778  -0.275607  -0.253492  0.002709  2.77068  0.003
O  O155  1  0.44767774  0.22383799  0.75001993  1  -1.076792  0.004765  -0.275267  -0.25385  0.002707  2.769351  0.003
O  O156  1  0.77610939  0.55225462  0.75000019  1  -1.076564  0.004771  -0.27526  -0.253379  0.002711  2.770572  0.003
O  O157  1  0.22391777  0.77618555  0.74997724  1  -1.08211  0.004774  -0.27535  -0.253327  0.002707  2.769901  0.003
O  O158  1  0.55229981  0.77614177  0.75000665  1  -1.076836  0.004766  -0.275499  -0.253959  0.002708  2.769802  0.003
O  O159  1  0.22391288  0.44772223  0.75000629  1  -1.077207  0.004775  -0.275227  -0.25356  0.002713  2.770259  0.003
O  O160  1  0.22384666  0.77609893  0.25000730  1  -1.082451  0.004773  -0.275381  -0.25336  0.002706  2.769899  0.003
O  O161  1  0.55224820  0.77609317  0.24998860  1  -1.07715  0.004769  -0.27556  -0.253703  0.002709  2.770236  0.003
O  O162  1  0.22383882  0.44767363  0.25001078  1  -1.077135  0.004771  -0.274942  -0.253424  0.002711  2.770057  0.003
O  O163  1  0.77617249  0.22385044  0.24999475  1  -1.083527  0.004777  -0.275489  -0.254158  0.002709  2.769288  0.003
O  O164  1  0.44778603  0.22387242  0.24998910  1  -1.076523  0.004768  -0.275706  -0.253276  0.002709  2.770524  0.003
O  O165  1  0.77622972  0.55228214  0.24999128  1  -1.077303  0.004772  -0.275155  -0.253462  0.00271  2.769976  0.003
