# generated using pymatgen
data_CdH6C6S3N2O5
_symmetry_space_group_name_H-M   'P 1'
_cell_length_a   5.12398413
_cell_length_b   10.27637004
_cell_length_c   20.93206015
_cell_angle_alpha   89.99997033
_cell_angle_beta   89.99998356
_cell_angle_gamma   89.99996938
_symmetry_Int_Tables_number   1
_chemical_formula_structural   CdH6C6S3N2O5
_chemical_formula_sum   'Cd4 H24 C24 S12 N8 O20'
_cell_volume   1102.19765933
_cell_formula_units_Z   4
loop_
 _symmetry_equiv_pos_site_id
 _symmetry_equiv_pos_as_xyz
  1  'x, y, z'
loop_
 _atom_site_type_symbol
 _atom_site_label
 _atom_site_symmetry_multiplicity
 _atom_site_fract_x
 _atom_site_fract_y
 _atom_site_fract_z
 _atom_site_occupancy
 _atom_site_hle17_bader_spin_density
 _atom_site_hle17_ddec_charge
 _atom_site_hle17_ddec_spin_density
 _atom_site_hle17_ddec_sum_bond_order
 _atom_site_hle17_magmom
 _atom_site_hse06_10hf_bader_spin_density
 _atom_site_hse06_10hf_ddec_charge
 _atom_site_hse06_10hf_ddec_spin_density
 _atom_site_hse06_10hf_ddec_sum_bond_order
 _atom_site_hse06_10hf_magmom
 _atom_site_hse06_bader_spin_density
 _atom_site_hse06_ddec_charge
 _atom_site_hse06_ddec_spin_density
 _atom_site_hse06_ddec_sum_bond_order
 _atom_site_hse06_magmom
 _atom_site_pbe_bader_spin_density
 _atom_site_pbe_cm5_charge
 _atom_site_pbe_ddec_charge
 _atom_site_pbe_ddec_spin_density
 _atom_site_pbe_ddec_sum_bond_order
 _atom_site_pbe_magmom
Cd  Cd0  1  0.80370406  0.09780046  0.96335091  1  0  1.25173  0  1.572129  0  0  1.069301  0  2.016456  0  0  1.126397  0  1.959417  0  0  0.783663  1.028341  0  2.055996  0
Cd  Cd1  1  0.69629531  0.90219956  0.46335034  1  0  1.251724  0  1.572149  0  0  1.069311  0  2.01648  0  0  1.12641  0  1.959436  0  0  0.783666  1.028352  0  2.056022  0
Cd  Cd2  1  0.30370289  0.40220033  0.03664946  1  0  1.251749  0  1.572137  0  0  1.069341  0  2.016447  0  0  1.126435  0  1.959407  0  0  0.783676  1.02838  0  2.055989  0
Cd  Cd3  1  0.19629584  0.59780125  0.53664944  1  0  1.251761  0  1.572117  0  0  1.069349  0  2.016445  0  0  1.126446  0  1.959402  0  0  0.783684  1.028389  0  2.055986  0
H  H4  1  0.28720553  0.23080957  0.93045592  1  0  0.430945  0  0.870517  0  0  0.396619  0  0.94235  0  0  0.407968  0  0.925959  0  0  0.292917  0.388581  0  0.953939  0
H  H5  1  0.21279274  0.76919061  0.43045537  1  0  0.430893  0  0.870502  0  0  0.396612  0  0.942307  0  0  0.407961  0  0.925918  0  0  0.292948  0.388575  0  0.953894  0
H  H6  1  0.78720561  0.26919024  0.06954445  1  0  0.430949  0  0.870517  0  0  0.396625  0  0.942339  0  0  0.407975  0  0.925946  0  0  0.292922  0.388587  0  0.953928  0
H  H7  1  0.71279422  0.73080922  0.56954440  1  0  0.430957  0  0.87051  0  0  0.396634  0  0.942327  0  0  0.407984  0  0.925934  0  0  0.29292  0.388596  0  0.953916  0
H  H8  1  0.03788973  0.31936228  0.91935619  1  0  0.410392  0  0.909201  0  0  0.376628  0  0.977287  0  0  0.388863  0  0.960145  0  0  0.284653  0.367981  0  0.989381  0
H  H9  1  0.46211050  0.68063792  0.41935661  1  0  0.410404  0  0.909183  0  0  0.37663  0  0.977289  0  0  0.388865  0  0.960146  0  0  0.284649  0.367982  0  0.989383  0
H  H10  1  0.53788989  0.18063857  0.08064372  1  0  0.410387  0  0.909215  0  0  0.376612  0  0.97732  0  0  0.388848  0  0.960177  0  0  0.284647  0.367965  0  0.989414  0
H  H11  1  0.96211188  0.81936282  0.58064409  1  0  0.410398  0  0.90919  0  0  0.376637  0  0.977272  0  0  0.388873  0  0.960128  0  0  0.284656  0.367989  0  0.989366  0
H  H12  1  0.28780269  0.39343806  0.82761700  1  0  0.159868  0  0.936641  0  0  0.174263  0  0.990106  0  0  0.177936  0  0.987702  0  0  0.114969  0.171655  0  0.991826  0
H  H13  1  0.21219959  0.60656126  0.32761745  1  0  0.159856  0  0.936646  0  0  0.17425  0  0.990112  0  0  0.177922  0  0.987713  0  0  0.114973  0.171643  0  0.99183  0
H  H14  1  0.78780283  0.10656175  0.17238290  1  0  0.159869  0  0.936634  0  0  0.174266  0  0.990098  0  0  0.177939  0  0.987695  0  0  0.114974  0.171656  0  0.991817  0
H  H15  1  0.71219884  0.89343857  0.67238327  1  0  0.159859  0  0.936656  0  0  0.174255  0  0.990118  0  0  0.177926  0  0.98772  0  0  0.114974  0.171645  0  0.991837  0
H  H16  1  0.44431185  0.29129889  0.77288326  1  0  0.118902  0  0.965479  0  0  0.125337  0  1.041989  0  0  0.127336  0  1.041424  0  0  0.095578  0.123429  0  1.04353  0
H  H17  1  0.05568855  0.70869951  0.27288370  1  0  0.118913  0  0.965484  0  0  0.125347  0  1.041997  0  0  0.127347  0  1.04143  0  0  0.095591  0.123439  0  1.043537  0
H  H18  1  0.94431376  0.20869991  0.22711614  1  0  0.118886  0  0.965496  0  0  0.125323  0  1.042008  0  0  0.127322  0  1.041442  0  0  0.095583  0.123414  0  1.043548  0
H  H19  1  0.55568784  0.79129939  0.72711656  1  0  0.118921  0  0.96546  0  0  0.125358  0  1.04197  0  0  0.127358  0  1.041405  0  0  0.095587  0.12345  0  1.043511  0
H  H20  1  0.97985236  0.08964502  0.59650311  1  0  0.143395  0  0.930475  0  0  0.154672  0  0.990707  0  0  0.157991  0  0.988351  0  0  0.106221  0.152304  0  0.992575  0
H  H21  1  0.52014744  0.91035635  0.09650303  1  0  0.143381  0  0.930453  0  0  0.154672  0  0.990676  0  0  0.157992  0  0.988317  0  0  0.106213  0.152299  0  0.992557  0
H  H22  1  0.47985466  0.41035474  0.40349629  1  0  0.143404  0  0.930473  0  0  0.154695  0  0.990694  0  0  0.158017  0  0.988335  0  0  0.106219  0.15232  0  0.992585  0
H  H23  1  0.02014754  0.58964450  0.90349676  1  0  0.143394  0  0.930434  0  0  0.154681  0  0.990664  0  0  0.158001  0  0.988305  0  0  0.106216  0.152313  0  0.992534  0
H  H24  1  0.95059191  0.20071638  0.53097921  1  0  0.126351  0  0.955789  0  0  0.135454  0  1.023025  0  0  0.137748  0  1.022467  0  0  0.097708  0.133834  0  1.023536  0
H  H25  1  0.54940797  0.79928409  0.03097963  1  0  0.126323  0  0.955806  0  0  0.135403  0  1.023067  0  0  0.137698  0  1.022509  0  0  0.097687  0.133784  0  1.023578  0
H  H26  1  0.45059425  0.29928436  0.46902019  1  0  0.126321  0  0.955815  0  0  0.135411  0  1.023057  0  0  0.137705  0  1.022499  0  0  0.097688  0.133792  0  1.023567  0
H  H27  1  0.04940788  0.70071578  0.96902063  1  0  0.126334  0  0.955787  0  0  0.135407  0  1.023054  0  0  0.137701  0  1.022496  0  0  0.097692  0.133787  0  1.023565  0
C  C28  1  0.66963645  0.32814840  0.85781517  1  0  0.731928  0  3.830921  0  0  0.676061  0  4.136434  0  0  0.710352  0  4.129136  0  0  0.212784  0.652796  0  4.140162  0
C  C29  1  0.83036110  0.67185075  0.35781464  1  0  0.731946  0  3.830913  0  0  0.676074  0  4.136439  0  0  0.710369  0  4.129136  0  0  0.212781  0.65281  0  4.140164  0
C  C30  1  0.16963930  0.17185047  0.14218521  1  0  0.731955  0  3.83085  0  0  0.676064  0  4.136399  0  0  0.710358  0  4.129102  0  0  0.212767  0.652798  0  4.140125  0
C  C31  1  0.33036320  0.82814905  0.64218512  1  0  0.731936  0  3.83088  0  0  0.676074  0  4.136386  0  0  0.710367  0  4.129089  0  0  0.212778  0.652809  0  4.140113  0
C  C32  1  0.47894109  0.37249680  0.80606918  1  0  -0.328603  0  3.626277  0  0  -0.35847  0  3.881158  0  0  -0.36341  0  3.88556  0  0  -0.156152  -0.354528  0  3.877698  0
C  C33  1  0.02105927  0.62750254  0.30606917  1  0  -0.328599  0  3.626237  0  0  -0.358473  0  3.881145  0  0  -0.363417  0  3.885551  0  0  -0.156179  -0.35453  0  3.877683  0
C  C34  1  0.97894118  0.12750199  0.19393117  1  0  -0.328587  0  3.626188  0  0  -0.358465  0  3.881104  0  0  -0.363409  0  3.885511  0  0  -0.15618  -0.354521  0  3.877641  0
C  C35  1  0.52106046  0.87249734  0.69393109  1  0  -0.328616  0  3.626256  0  0  -0.358493  0  3.881158  0  0  -0.363438  0  3.885566  0  0  -0.156177  -0.35455  0  3.877695  0
C  C36  1  0.80004670  0.46170827  0.71007479  1  0  0.079446  0  3.765303  0  0  0.077309  0  4.07945  0  0  0.088569  0  4.091491  0  0  0.118332  0.069552  0  4.071387  0
C  C37  1  0.69995492  0.53829104  0.21007479  1  0  0.0795  0  3.765248  0  0  0.077336  0  4.079429  0  0  0.088597  0  4.091471  0  0  0.118367  0.069578  0  4.071369  0
C  C38  1  0.30004563  0.03829057  0.28992510  1  0  0.079439  0  3.765359  0  0  0.077287  0  4.079523  0  0  0.088547  0  4.091566  0  0  0.11833  0.069531  0  4.07146  0
C  C39  1  0.19995476  0.96170879  0.78992546  1  0  0.079503  0  3.765243  0  0  0.077342  0  4.079421  0  0  0.088602  0  4.091463  0  0  0.118356  0.069585  0  4.071362  0
C  C40  1  0.10248609  0.35412080  0.63971147  1  0  0.070394  0  3.780672  0  0  0.063312  0  4.089348  0  0  0.073131  0  4.104526  0  0  0.110877  0.056705  0  4.078847  0
C  C41  1  0.39751251  0.64587872  0.13971143  1  0  0.070386  0  3.780742  0  0  0.063313  0  4.089412  0  0  0.073139  0  4.104582  0  0  0.110874  0.056705  0  4.07891  0
C  C42  1  0.60248792  0.14587809  0.36028796  1  0  0.070392  0  3.780771  0  0  0.063316  0  4.089446  0  0  0.073148  0  4.104604  0  0  0.110899  0.056707  0  4.078945  0
C  C43  1  0.89751353  0.85412204  0.86028881  1  0  0.070374  0  3.780708  0  0  0.063302  0  4.089376  0  0  0.073135  0  4.104533  0  0  0.110874  0.056694  0  4.078874  0
C  C44  1  0.23934858  0.05031805  0.51887103  1  0  0.726221  0  3.850405  0  0  0.675522  0  4.148138  0  0  0.710805  0  4.141112  0  0  0.205315  0.65145  0  4.152066  0
C  C45  1  0.26065407  0.94968063  0.01887092  1  0  0.726105  0  3.850514  0  0  0.675404  0  4.148258  0  0  0.710687  0  4.141236  0  0  0.205314  0.65133  0  4.152186  0
C  C46  1  0.73934798  0.44968178  0.48112791  1  0  0.726197  0  3.850387  0  0  0.675554  0  4.14804  0  0  0.710837  0  4.141014  0  0  0.205341  0.651472  0  4.151984  0
C  C47  1  0.76065332  0.55031919  0.98112932  1  0  0.726232  0  3.850363  0  0  0.675543  0  4.148088  0  0  0.710826  0  4.14106  0  0  0.205349  0.651472  0  4.152013  0
C  C48  1  0.08804241  0.14530003  0.56045652  1  0  -0.311563  0  3.612742  0  0  -0.345165  0  3.870526  0  0  -0.349766  0  3.873632  0  0  -0.156181  -0.342124  0  3.868425  0
C  C49  1  0.41195629  0.85469958  0.06045690  1  0  -0.311495  0  3.612729  0  0  -0.345107  0  3.870555  0  0  -0.34971  0  3.873663  0  0  -0.156164  -0.342067  0  3.868451  0
C  C50  1  0.58804587  0.35469984  0.43954243  1  0  -0.311538  0  3.612785  0  0  -0.345172  0  3.870614  0  0  -0.349779  0  3.873728  0  0  -0.15615  -0.342131  0  3.868514  0
C  C51  1  0.91195548  0.64530020  0.93954334  1  0  -0.311539  0  3.612692  0  0  -0.345145  0  3.870521  0  0  -0.349746  0  3.873625  0  0  -0.156163  -0.342103  0  3.868419  0
S  S52  1  0.56266300  0.51712278  0.76209117  1  0  0.10088  0  2.47835  0  0  0.085224  0  2.831258  0  0  0.080301  0  2.831515  0  0  0.048529  0.088642  0  2.831869  0
S  S53  1  0.93733856  0.48287647  0.26209116  1  0  0.100872  0  2.478307  0  0  0.085235  0  2.831219  0  0  0.080313  0  2.831479  0  0  0.048531  0.088654  0  2.831829  0
S  S54  1  0.06266151  0.98287611  0.23790909  1  0  0.100881  0  2.478328  0  0  0.085234  0  2.831242  0  0  0.080313  0  2.831502  0  0  0.048534  0.088652  0  2.831853  0
S  S55  1  0.43733893  0.01712330  0.73790919  1  0  0.100857  0  2.478353  0  0  0.085214  0  2.831266  0  0  0.080293  0  2.831525  0  0  0.048522  0.088632  0  2.831877  0
S  S56  1  0.91191287  0.30242342  0.70361534  1  0  0.122918  0  2.514509  0  0  0.122043  0  2.846618  0  0  0.122866  0  2.847855  0  0  0.124379  0.12023  0  2.847  0
S  S57  1  0.58808681  0.69757590  0.20361578  1  0  0.122899  0  2.514526  0  0  0.122029  0  2.846644  0  0  0.122848  0  2.847879  0  0  0.124387  0.120219  0  2.847026  0
S  S58  1  0.41191161  0.19757636  0.29638407  1  0  0.122917  0  2.514518  0  0  0.122037  0  2.846635  0  0  0.122853  0  2.847869  0  0  0.124381  0.120228  0  2.847017  0
S  S59  1  0.08808876  0.80242396  0.79638448  1  0  0.122913  0  2.51451  0  0  0.122046  0  2.846617  0  0  0.122864  0  2.847848  0  0  0.124387  0.120235  0  2.846999  0
S  S60  1  0.31998294  0.25483574  0.59886839  1  0  0.046953  0  2.490984  0  0  0.033904  0  2.852383  0  0  0.032135  0  2.851198  0  0  0.017399  0.035267  0  2.853216  0
S  S61  1  0.18001767  0.74516480  0.09886881  1  0  0.046935  0  2.491025  0  0  0.033896  0  2.85243  0  0  0.032129  0  2.851239  0  0  0.017387  0.035258  0  2.853267  0
S  S62  1  0.81998266  0.24516407  0.40113103  1  0  0.046936  0  2.491046  0  0  0.033897  0  2.852457  0  0  0.03213  0  2.851264  0  0  0.017376  0.035262  0  2.853292  0
S  S63  1  0.68001679  0.75483601  0.90113144  1  0  0.046934  0  2.491017  0  0  0.033894  0  2.85242  0  0  0.032124  0  2.851222  0  0  0.017387  0.035256  0  2.853257  0
N  N64  1  0.90895608  0.54234570  0.66869662  1  0  -0.189015  0  3.001926  0  0  -0.181055  0  3.292872  0  0  -0.18843  0  3.306932  0  0  -0.219153  -0.175827  0  3.283249  0
N  N65  1  0.59104559  0.45765462  0.16869665  1  0  -0.189014  0  3.00192  0  0  -0.181054  0  3.292889  0  0  -0.18843  0  3.306949  0  0  -0.219173  -0.175826  0  3.283264  0
N  N66  1  0.40895450  0.95765407  0.33130314  1  0  -0.18898  0  3.001961  0  0  -0.181005  0  3.292901  0  0  -0.188379  0  3.30696  0  0  -0.219136  -0.175777  0  3.283278  0
N  N67  1  0.09104583  0.04234524  0.83130374  1  0  -0.18906  0  3.001946  0  0  -0.181102  0  3.292913  0  0  -0.188477  0  3.306973  0  0  -0.21917  -0.175874  0  3.283292  0
N  N68  1  0.07502498  0.48008260  0.62876843  1  0  -0.239132  0  3.265167  0  0  -0.183729  0  3.557107  0  0  -0.196963  0  3.572939  0  0  -0.219559  -0.174565  0  3.545956  0
N  N69  1  0.42497559  0.51991790  0.12876842  1  0  -0.239136  0  3.265195  0  0  -0.183738  0  3.557135  0  0  -0.196975  0  3.572966  0  0  -0.219562  -0.174573  0  3.545983  0
N  N70  1  0.57502497  0.01991727  0.37123147  1  0  -0.239135  0  3.265234  0  0  -0.183734  0  3.557176  0  0  -0.196972  0  3.573003  0  0  -0.219565  -0.17457  0  3.546026  0
N  N71  1  0.92497451  0.98008285  0.87123181  1  0  -0.23909  0  3.265136  0  0  -0.183686  0  3.557071  0  0  -0.196924  0  3.572898  0  0  -0.219557  -0.174522  0  3.545921  0
O  O72  1  0.58555542  0.23404610  0.89188445  1  0  -0.667251  0  2.046853  0  0  -0.589531  0  2.296034  0  0  -0.620385  0  2.285139  0  0  -0.323388  -0.567755  0  2.302566  0
O  O73  1  0.91444013  0.76595399  0.39188390  1  0  -0.667206  0  2.046883  0  0  -0.589492  0  2.296065  0  0  -0.620352  0  2.285172  0  0  -0.32336  -0.56772  0  2.302599  0
O  O74  1  0.08556017  0.26595376  0.10811641  1  0  -0.66724  0  2.04685  0  0  -0.589518  0  2.296055  0  0  -0.620365  0  2.28514  0  0  -0.323356  -0.567743  0  2.302587  0
O  O75  1  0.41444238  0.73404579  0.60811634  1  0  -0.667242  0  2.046854  0  0  -0.589519  0  2.296028  0  0  -0.620376  0  2.285131  0  0  -0.323375  -0.567746  0  2.30256  0
O  O76  1  0.13216403  0.26563803  0.95364857  1  0  -0.860395  0  1.969817  0  0  -0.783138  0  2.196121  0  0  -0.811001  0  2.159765  0  0  -0.576523  -0.763304  0  2.221235  0
O  O77  1  0.36783420  0.73436213  0.45364850  1  0  -0.860348  0  1.969774  0  0  -0.783099  0  2.19615  0  0  -0.810974  0  2.15981  0  0  -0.576557  -0.763266  0  2.221264  0
O  O78  1  0.63216418  0.23436280  0.04635181  1  0  -0.86039  0  1.969823  0  0  -0.783129  0  2.196128  0  0  -0.810998  0  2.159777  0  0  -0.576527  -0.763296  0  2.221242  0
O  O79  1  0.86783568  0.76563765  0.54635173  1  0  -0.860412  0  1.969834  0  0  -0.783159  0  2.19614  0  0  -0.811012  0  2.159754  0  0  -0.576519  -0.763327  0  2.221255  0
O  O80  1  0.88866520  0.38302378  0.86303585  1  0  -0.62229  0  2.023087  0  0  -0.564094  0  2.248773  0  0  -0.590468  0  2.241114  0  0  -0.309229  -0.545639  0  2.253444  0
O  O81  1  0.61133234  0.61697440  0.36303536  1  0  -0.622357  0  2.023111  0  0  -0.56415  0  2.248785  0  0  -0.590523  0  2.241123  0  0  -0.309245  -0.545694  0  2.253455  0
O  O82  1  0.38866812  0.11697309  0.13696451  1  0  -0.622336  0  2.023068  0  0  -0.564115  0  2.248754  0  0  -0.59049  0  2.241094  0  0  -0.309241  -0.545661  0  2.253424  0
O  O83  1  0.11133439  0.88302449  0.63696442  1  0  -0.622306  0  2.023068  0  0  -0.564113  0  2.248754  0  0  -0.590488  0  2.241093  0  0  -0.309235  -0.54566  0  2.253424  0
O  O84  1  0.11767911  0.98404176  0.47785776  1  0  -0.653529  0  2.025642  0  0  -0.587502  0  2.284716  0  0  -0.617912  0  2.275061  0  0  -0.32625  -0.565991  0  2.290682  0
O  O85  1  0.38232106  0.01596032  0.97785739  1  0  -0.653466  0  2.025714  0  0  -0.587383  0  2.284694  0  0  -0.617791  0  2.275042  0  0  -0.326213  -0.565871  0  2.290659  0
O  O86  1  0.61768088  0.51595907  0.52214202  1  0  -0.653497  0  2.025651  0  0  -0.587481  0  2.284676  0  0  -0.617891  0  2.275019  0  0  -0.326227  -0.565965  0  2.290645  0
O  O87  1  0.88232096  0.48404044  0.02214250  1  0  -0.653515  0  2.025659  0  0  -0.587495  0  2.284663  0  0  -0.617905  0  2.275006  0  0  -0.32626  -0.565985  0  2.290627  0
O  O88  1  0.48599649  0.04452121  0.52817971  1  0  -0.648553  0  1.973898  0  0  -0.573001  0  2.222626  0  0  -0.604101  0  2.212331  0  0  -0.326898  -0.551067  0  2.228957  0
O  O89  1  0.01400030  0.95548037  0.02818010  1  0  -0.648527  0  1.973897  0  0  -0.572987  0  2.222669  0  0  -0.604087  0  2.212375  0  0  -0.326921  -0.55105  0  2.229  0
O  O90  1  0.98599785  0.45548244  0.47181873  1  0  -0.648566  0  1.973835  0  0  -0.573039  0  2.22259  0  0  -0.604138  0  2.212293  0  0  -0.326946  -0.5511  0  2.228926  0
O  O91  1  0.51399956  0.54451951  0.97181969  1  0  -0.648588  0  1.973827  0  0  -0.573022  0  2.222606  0  0  -0.604121  0  2.21231  0  0  -0.326921  -0.551086  0  2.228938  0
