# generated using pymatgen
data_CuH14(C8O3)2
_symmetry_space_group_name_H-M   'P 1'
_cell_length_a   4.86163353
_cell_length_b   9.51150062
_cell_length_c   15.49532523
_cell_angle_alpha   102.88477161
_cell_angle_beta   89.99998941
_cell_angle_gamma   90.00002849
_symmetry_Int_Tables_number   1
_chemical_formula_structural   CuH14(C8O3)2
_chemical_formula_sum   'Cu2 H28 C32 O12'
_cell_volume   698.48423319
_cell_formula_units_Z   2
loop_
 _symmetry_equiv_pos_site_id
 _symmetry_equiv_pos_as_xyz
  1  'x, y, z'
loop_
 _atom_site_type_symbol
 _atom_site_label
 _atom_site_symmetry_multiplicity
 _atom_site_fract_x
 _atom_site_fract_y
 _atom_site_fract_z
 _atom_site_occupancy
 _atom_site_hle17_ddec_charge
 _atom_site_hle17_ddec_spin_density
 _atom_site_hle17_ddec_sum_bond_order
 _atom_site_hle17_magmom
 _atom_site_hse06_10hf_ddec_charge
 _atom_site_hse06_10hf_ddec_spin_density
 _atom_site_hse06_10hf_ddec_sum_bond_order
 _atom_site_hse06_10hf_magmom
 _atom_site_hse06_ddec_charge
 _atom_site_hse06_ddec_spin_density
 _atom_site_hse06_ddec_sum_bond_order
 _atom_site_hse06_magmom
 _atom_site_pbe_cm5_charge
 _atom_site_pbe_ddec_charge
 _atom_site_pbe_ddec_spin_density
 _atom_site_pbe_ddec_sum_bond_order
 _atom_site_pbe_magmom
Cu  Cu0  1  0.00000217  0.50000002  0.50000056  1  0.975274  0.70598  1.688219  0.535  0.977141  0.808643  2.062808  0.673  1.061367  0.869888  2.008924  0.761  0.717057  0.911109  0.758665  2.114476  0.608
Cu  Cu1  1  0.49999847  0.99999946  0.50000019  1  0.975329  0.70606  1.68828  0.535  0.977243  0.808691  2.062886  0.673  1.061426  0.869909  2.009014  0.761  0.717095  0.911208  0.75872  2.11453  0.608
H  H2  1  0.74625559  0.83896283  0.62830031  1  0.09237  -0.000101  0.945666  0.0  0.0938  0.000124  1.015988  0.0  0.096732  0.000111  1.012785  0.0  0.11872  0.09129  0.000126  1.019043  0.0
H  H3  1  0.24625285  0.66103685  0.37169973  1  0.092376  -0.000104  0.945674  0.0  0.093793  0.000124  1.015981  0.0  0.096721  0.000111  1.012781  0.0  0.118728  0.091285  0.000126  1.019028  0.0
H  H4  1  0.25375008  0.16103732  0.37170016  1  0.092391  -0.000104  0.945668  0.0  0.093813  0.000123  1.015995  0.0  0.096744  0.000111  1.012792  0.0  0.118736  0.091303  0.000126  1.01904  0.0
H  H5  1  0.75374459  0.33896222  0.62830059  1  0.092341  -9.6e-05  0.945665  0.0  0.093775  0.000124  1.015993  0.0  0.096704  0.000111  1.012793  0.0  0.11871  0.09127  0.000127  1.01903  0.0
H  H6  1  0.63261890  0.93600694  0.77436634  1  0.097037  -0.000283  0.972261  0.0  0.105996  -3.9e-05  1.036828  0.0  0.107997  -2.2e-05  1.037623  0.0  0.099926  0.104384  -4.5e-05  1.036733  0.0
H  H7  1  0.13262231  0.56399487  0.22563270  1  0.097072  -0.000281  0.972313  0.0  0.10599  -3.9e-05  1.036921  0.0  0.107989  -2.3e-05  1.037721  0.0  0.099914  0.104381  -4.5e-05  1.036812  0.0
H  H8  1  0.36737855  0.06399322  0.22563477  1  0.09704  -0.000287  0.972253  0.0  0.106  -3.9e-05  1.03682  0.0  0.108001  -2.2e-05  1.037615  0.0  0.099927  0.104389  -4.5e-05  1.036716  0.0
H  H9  1  0.86737719  0.43600635  0.77436661  1  0.097034  -0.00028  0.972295  0.0  0.105952  -3.9e-05  1.036906  0.0  0.107949  -2.2e-05  1.037708  0.0  0.099912  0.104343  -4.5e-05  1.036795  0.0
H  H10  1  0.70709795  0.96105017  0.93564356  1  0.082246  5.2e-05  0.957879  0.0  0.093461  2e-06  1.01895  0.0  0.096026  -7e-06  1.018356  0.0  0.09712  0.091545  2e-05  1.019598  0.0
H  H11  1  0.20709937  0.53895166  0.06435483  1  0.082216  5.1e-05  0.957902  0.0  0.093424  2e-06  1.018983  0.0  0.095982  -7e-06  1.018395  0.0  0.097112  0.09151  2e-05  1.019628  0.0
H  H12  1  0.29289950  0.03894783  0.06435661  1  0.082223  5.2e-05  0.957897  0.0  0.093425  2e-06  1.01898  0.0  0.096006  -7e-06  1.018368  0.0  0.097097  0.091511  2e-05  1.019632  0.0
H  H13  1  0.79289808  0.46104957  0.93564449  1  0.0822  5e-05  0.95787  0.0  0.093399  2e-06  1.018964  0.0  0.095983  -7e-06  1.018347  0.0  0.097095  0.091484  2e-05  1.019608  0.0
H  H14  1  0.05094391  0.80375504  0.98865062  1  0.078107  -0.000301  0.980021  0.0  0.087996  3e-06  1.047519  0.0  0.09043  -5e-06  1.047021  0.0  0.094814  0.08623  1.6e-05  1.047898  0.0
H  H15  1  0.55094891  0.69624675  0.01134907  1  0.078126  -0.000301  0.98018  0.0  0.08804  3e-06  1.047627  0.0  0.090458  -4e-06  1.047146  0.0  0.094844  0.086267  1.6e-05  1.048019  0.0
H  H16  1  0.94905559  0.19624403  0.01134970  1  0.078114  -0.000302  0.980011  0.0  0.088004  3e-06  1.047508  0.0  0.090435  -5e-06  1.047011  0.0  0.094813  0.086233  1.6e-05  1.047895  0.0
H  H17  1  0.44905471  0.30375340  0.98865075  1  0.078069  -0.000299  0.980144  0.0  0.087966  3e-06  1.047628  0.0  0.090392  -5e-06  1.047136  0.0  0.094805  0.086196  1.6e-05  1.048008  0.0
H  H18  1  0.31445816  0.62141459  0.87888677  1  0.082019  -4.3e-05  0.968985  0.0  0.093195  -2.7e-05  1.029565  0.0  0.095195  -2.3e-05  1.030216  0.0  0.096387  0.091641  -2.6e-05  1.029434  0.0
H  H19  1  0.81446122  0.87858619  0.12111276  1  0.082002  -4.4e-05  0.969033  0.0  0.093192  -2.7e-05  1.029601  0.0  0.095188  -2.3e-05  1.030252  0.0  0.096391  0.091637  -2.6e-05  1.02947  0.0
H  H20  1  0.68554134  0.37858556  0.12111304  1  0.082028  -4.2e-05  0.968973  0.0  0.093208  -2.7e-05  1.029552  0.0  0.095207  -2.3e-05  1.030204  0.0  0.09639  0.091652  -2.6e-05  1.029422  0.0
H  H21  1  0.18554239  0.12141397  0.87888899  1  0.081993  -4.7e-05  0.969093  0.0  0.093203  -2.7e-05  1.029644  0.0  0.095198  -2.3e-05  1.030293  0.0  0.096399  0.091645  -2.6e-05  1.029513  0.0
H  H22  1  0.23825541  0.59654196  0.71877999  1  0.110523  -3.2e-05  0.963939  0.0  0.118601  0.00015  1.027786  0.0  0.121933  8.4e-05  1.025932  0.0  0.101497  0.116139  0.000235  1.029217  0.0
H  H23  1  0.73826046  0.90345879  0.28121955  1  0.110519  -2.5e-05  0.963944  0.0  0.118606  0.000151  1.027781  0.0  0.121938  8.5e-05  1.025928  0.0  0.101478  0.116142  0.000235  1.029213  0.0
H  H24  1  0.76174615  0.40345927  0.28122062  1  0.110515  -3.1e-05  0.963948  0.0  0.1186  0.000151  1.027788  0.0  0.12193  8.5e-05  1.025935  0.0  0.10149  0.116139  0.000235  1.029219  0.0
H  H25  1  0.26173698  0.09653920  0.71878063  1  0.110548  -2.2e-05  0.963877  0.0  0.118607  0.00015  1.027749  0.0  0.121938  8.4e-05  1.025897  0.0  0.101479  0.116149  0.000235  1.029183  0.0
H  H26  1  0.57560710  0.63044377  0.57363991  1  0.38912  -0.00052  0.892435  -0.001  0.364938  0.000269  0.962733  0.0  0.377035  2.7e-05  0.95028  0.0  0.305279  0.356339  0.000459  0.971347  0.0
H  H27  1  0.07560454  0.86955696  0.42636092  1  0.389069  -0.00052  0.892504  -0.001  0.364889  0.000269  0.962807  0.0  0.376987  2.7e-05  0.950351  0.0  0.305261  0.356291  0.000459  0.971412  0.0
H  H28  1  0.42439446  0.36955746  0.42636070  1  0.389138  -0.00052  0.892462  -0.001  0.364953  0.000269  0.962761  0.0  0.377053  2.7e-05  0.950303  0.0  0.305284  0.356357  0.000459  0.971359  0.0
H  H29  1  0.92439085  0.13044212  0.57363939  1  0.389107  -0.00052  0.892474  -0.001  0.364929  0.000269  0.962768  0.0  0.377025  2.7e-05  0.950317  0.0  0.305274  0.356332  0.00046  0.971379  0.0
C  C30  1  0.15867940  0.77070627  0.59408670  1  0.640144  -0.007449  3.828749  -0.006  0.590904  -0.001317  4.141416  -0.001  0.627591  -0.001216  4.131058  -0.001  0.212447  0.565375  -0.001286  4.146575  -0.001
C  C31  1  0.65868832  0.72928584  0.40591168  1  0.639794  -0.007467  3.829324  -0.006  0.590646  -0.001315  4.141847  -0.001  0.627322  -0.001213  4.131497  -0.001  0.212397  0.565127  -0.001282  4.146981  -0.001
C  C32  1  0.84132422  0.22929281  0.40591362  1  0.639966  -0.007452  3.828984  -0.006  0.590747  -0.001319  4.141616  -0.001  0.627432  -0.001215  4.131263  -0.001  0.212425  0.565218  -0.001286  4.146758  -0.001
C  C33  1  0.34130501  0.27071539  0.59408893  1  0.639779  -0.007424  3.829492  -0.006  0.59069  -0.001314  4.141963  -0.001  0.627368  -0.001213  4.131613  -0.001  0.212399  0.565161  -0.001282  4.14711  -0.001
C  C34  1  0.88498464  0.75314703  0.63844380  1  0.052251  -0.002798  3.610437  -0.003  0.031002  0.000277  3.848717  0.0  0.035133  5.4e-05  3.854401  0.0  -0.001928  0.027968  0.000699  3.845224  0.0
C  C35  1  0.38497993  0.74685268  0.36155559  1  0.052348  -0.002778  3.610301  -0.003  0.031154  0.000276  3.848437  0.0  0.035289  5.1e-05  3.85412  0.0  -0.001908  0.028114  0.000698  3.844929  0.0
C  C36  1  0.11501898  0.24685313  0.36155731  1  0.052321  -0.002784  3.610377  -0.003  0.031089  0.000276  3.848612  0.0  0.03522  5.4e-05  3.854299  0.0  -0.001908  0.028049  0.000699  3.845107  0.0
C  C37  1  0.61501340  0.25314531  0.63844393  1  0.052422  -0.002822  3.610299  -0.003  0.031112  0.000275  3.848612  0.0  0.035243  5.1e-05  3.854297  0.0  -0.00191  0.028076  0.000698  3.845101  0.0
C  C38  1  0.92980700  0.76512821  0.73633618  1  0.054427  0.00377  3.719905  0.004  0.068626  0.000266  3.954708  0.0  0.066018  -0.000593  3.979832  0.0  -0.014827  0.070591  0.001161  3.937624  0.001
C  C39  1  0.42980645  0.73487475  0.26366299  1  0.054482  0.003793  3.719839  0.004  0.068655  0.000265  3.954644  0.0  0.066056  -0.00059  3.979754  0.0  -0.014812  0.070626  0.00116  3.937548  0.001
C  C40  1  0.07019662  0.23487302  0.26366378  1  0.054476  0.00374  3.719804  0.004  0.06866  0.000265  3.954632  0.0  0.066054  -0.00059  3.979751  0.0  -0.014813  0.070633  0.001161  3.937534  0.001
C  C41  1  0.57018894  0.26512432  0.73633603  1  0.054404  0.00384  3.719821  0.004  0.068602  0.000265  3.954639  0.0  0.065998  -0.000593  3.979757  0.0  -0.014814  0.070568  0.00116  3.937556  0.001
C  C42  1  0.78158113  0.86730231  0.79768486  1  -0.097081  0.00537  3.72349  0.005  -0.118062  0.001759  3.967414  0.002  -0.120479  0.001151  3.990525  0.001  -0.086214  -0.116313  0.002321  3.951797  0.002
C  C43  1  0.28157640  0.63269952  0.20231288  1  -0.097285  0.005342  3.72349  0.005  -0.118239  0.001758  3.967438  0.002  -0.12066  0.00115  3.990546  0.001  -0.086313  -0.11649  0.00232  3.951806  0.002
C  C44  1  0.21842042  0.13269784  0.20231495  1  -0.097116  0.005399  3.723467  0.005  -0.118095  0.001759  3.96739  0.002  -0.120515  0.00115  3.990506  0.001  -0.086226  -0.116347  0.002321  3.951762  0.002
C  C45  1  0.71841899  0.36730170  0.79768644  1  -0.097089  0.005307  3.723484  0.005  -0.118029  0.001758  3.967402  0.002  -0.12045  0.00115  3.990521  0.001  -0.086237  -0.116282  0.00232  3.951772  0.002
C  C46  1  0.82453787  0.88129662  0.88835147  1  -0.078857  -0.004731  3.795804  -0.003  -0.087804  -0.001025  4.042564  -0.001  -0.090241  -0.001038  4.064793  -0.001  -0.094911  -0.086036  -0.000978  4.027323  -0.001
C  C47  1  0.32453317  0.61870630  0.11164642  1  -0.078687  -0.00469  3.795657  -0.003  -0.087621  -0.001027  4.042394  -0.001  -0.09005  -0.001038  4.064621  -0.001  -0.094826  -0.085854  -0.000978  4.027154  -0.001
C  C48  1  0.17546574  0.11870353  0.11164900  1  -0.07883  -0.004759  3.795798  -0.003  -0.087761  -0.001024  4.042541  -0.001  -0.09021  -0.001038  4.064766  -0.001  -0.094896  -0.086001  -0.000978  4.027314  -0.001
C  C49  1  0.67546633  0.38129384  0.88835146  1  -0.07884  -0.004629  3.795829  -0.003  -0.087773  -0.001026  4.042567  -0.001  -0.090225  -0.001036  4.064793  -0.001  -0.094884  -0.086007  -0.000978  4.027323  -0.001
C  C50  1  0.01590015  0.79308505  0.91796975  1  -0.085064  0.008067  3.789176  0.007  -0.101622  0.001837  4.036741  0.002  -0.103914  0.001123  4.059065  0.001  -0.095677  -0.09973  0.002647  4.021238  0.002
C  C51  1  0.51590100  0.70691780  0.08202815  1  -0.085062  0.008045  3.789212  0.007  -0.101633  0.001838  4.036773  0.002  -0.103911  0.001124  4.059099  0.001  -0.095693  -0.099743  0.002646  4.021273  0.002
C  C52  1  0.98410141  0.20691510  0.08203007  1  -0.085035  0.008084  3.789155  0.007  -0.101592  0.001837  4.03671  0.002  -0.103881  0.001124  4.059041  0.001  -0.095651  -0.099701  0.002647  4.021212  0.002
C  C53  1  0.48410261  0.29308343  0.91797246  1  -0.084934  0.008007  3.789071  0.007  -0.101487  0.001837  4.036623  0.002  -0.103773  0.001123  4.058954  0.001  -0.095646  -0.099589  0.002646  4.021114  0.002
C  C54  1  0.16424943  0.69086711  0.85668098  1  -0.070374  -0.003579  3.784645  -0.002  -0.078514  -0.000832  4.029209  -0.001  -0.080923  -0.000944  4.051972  -0.001  -0.091738  -0.076756  -0.000697  4.013667  0.0
C  C55  1  0.66425241  0.80913472  0.14331935  1  -0.070369  -0.003541  3.784714  -0.002  -0.078522  -0.000835  4.029298  -0.001  -0.080928  -0.000947  4.052054  -0.001  -0.09175  -0.076767  -0.000697  4.013762  0.0
C  C56  1  0.83575213  0.30913305  0.14331948  1  -0.07039  -0.003611  3.784618  -0.002  -0.078536  -0.000832  4.029192  -0.001  -0.080947  -0.000946  4.051954  -0.001  -0.091746  -0.076777  -0.000698  4.01365  0.0
C  C57  1  0.33574503  0.19086220  0.85668068  1  -0.070437  -0.003462  3.784678  -0.002  -0.078617  -0.000834  4.029272  -0.001  -0.08102  -0.000945  4.052025  -0.001  -0.091766  -0.076855  -0.000697  4.013734  0.0
C  C58  1  0.12268317  0.67706225  0.76616253  1  -0.099509  0.003821  3.699602  0.004  -0.120818  0.001395  3.945223  0.001  -0.123094  0.000979  3.966185  0.001  -0.090127  -0.119138  0.001892  3.930962  0.002
C  C59  1  0.62268200  0.82293848  0.23383636  1  -0.099566  0.003781  3.699699  0.004  -0.120879  0.001396  3.945332  0.001  -0.123159  0.00098  3.966295  0.001  -0.090136  -0.119196  0.001891  3.931068  0.002
C  C60  1  0.87732044  0.32294006  0.23383822  1  -0.09954  0.003838  3.699535  0.004  -0.120852  0.001396  3.945171  0.001  -0.12313  0.000979  3.966134  0.001  -0.090141  -0.119179  0.001892  3.930912  0.002
C  C61  1  0.37731750  0.17706168  0.76616410  1  -0.099528  0.003734  3.699695  0.004  -0.120813  0.001396  3.945333  0.001  -0.123091  0.00098  3.966295  0.001  -0.090134  -0.119141  0.001891  3.931087  0.002
O  O62  1  0.26098653  0.65640610  0.54031145  1  -0.630408  0.066941  2.117448  0.095  -0.586965  0.043521  2.396886  0.067  -0.626646  0.03239  2.385344  0.054  -0.328876  -0.558727  0.05015  2.404198  0.073
O  O63  1  0.76098114  0.84359792  0.45969110  1  -0.630392  0.06696  2.117287  0.095  -0.587019  0.043521  2.396738  0.067  -0.626694  0.032391  2.385184  0.054  -0.328982  -0.55879  0.050158  2.404051  0.073
O  O64  1  0.73901914  0.34359514  0.45969044  1  -0.630391  0.06695  2.117483  0.095  -0.586947  0.043527  2.3969  0.067  -0.62663  0.032395  2.385356  0.054  -0.32891  -0.558717  0.05016  2.404211  0.073
O  O65  1  0.23901219  0.15640116  0.54030857  1  -0.630438  0.066961  2.11735  0.095  -0.587061  0.043524  2.396758  0.067  -0.626739  0.032392  2.385208  0.054  -0.328965  -0.558823  0.050161  2.404066  0.073
O  O66  1  0.76363442  0.61398399  0.59690256  1  -0.531605  0.057272  2.159445  0.08  -0.493585  0.041388  2.417744  0.063  -0.522482  0.030536  2.404522  0.051  -0.387063  -0.473066  0.048431  2.427479  0.069
O  O67  1  0.26362983  0.88601677  0.40309633  1  -0.53155  0.057277  2.159436  0.08  -0.493567  0.041387  2.417738  0.063  -0.522451  0.030533  2.404495  0.051  -0.387062  -0.473052  0.048437  2.427487  0.069
O  O68  1  0.23636714  0.38601724  0.40309804  1  -0.531633  0.057273  2.159437  0.08  -0.493638  0.04139  2.417777  0.063  -0.522524  0.030536  2.404526  0.051  -0.387097  -0.473128  0.048437  2.427512  0.069
O  O69  1  0.73636761  0.11398230  0.59690270  1  -0.531622  0.057282  2.159379  0.08  -0.493627  0.041387  2.417722  0.063  -0.522506  0.030534  2.404474  0.051  -0.387091  -0.473109  0.048435  2.427463  0.069
O  O70  1  0.28051093  0.88813246  0.61237807  1  -0.572993  0.021512  2.004462  0.031  -0.54975  0.007921  2.265176  0.013  -0.57702  0.002442  2.254176  0.006  -0.293332  -0.52731  0.015524  2.270945  0.023
O  O71  1  0.78050123  0.61188017  0.38762307  1  -0.572741  0.02149  2.00524  0.031  -0.549489  0.007913  2.265816  0.013  -0.576755  0.00244  2.25482  0.006  -0.293205  -0.527055  0.015511  2.27157  0.023
O  O72  1  0.71949268  0.11186877  0.38762254  1  -0.572908  0.02151  2.004576  0.031  -0.549662  0.00792  2.265258  0.013  -0.576933  0.002441  2.254259  0.006  -0.293307  -0.527217  0.015528  2.271007  0.023
O  O73  1  0.21950032  0.38811675  0.61237696  1  -0.572686  0.021473  2.005413  0.031  -0.549446  0.007912  2.265964  0.013  -0.57671  0.00244  2.254968  0.006  -0.29318  -0.527013  0.015508  2.271722  0.023
