# generated using pymatgen
data_Cd2H19C27S4N5OF12
_symmetry_space_group_name_H-M   'P 1'
_cell_length_a   11.39746688
_cell_length_b   12.31339707
_cell_length_c   14.62700000
_cell_angle_alpha   115.54014055
_cell_angle_beta   99.51793352
_cell_angle_gamma   102.76427182
_symmetry_Int_Tables_number   1
_chemical_formula_structural   Cd2H19C27S4N5OF12
_chemical_formula_sum   'Cd4 H38 C54 S8 N10 O2 F24'
_cell_volume   1725.37641394
_cell_formula_units_Z   2
loop_
 _symmetry_equiv_pos_site_id
 _symmetry_equiv_pos_as_xyz
  1  'x, y, z'
loop_
 _atom_site_type_symbol
 _atom_site_label
 _atom_site_symmetry_multiplicity
 _atom_site_fract_x
 _atom_site_fract_y
 _atom_site_fract_z
 _atom_site_occupancy
 _atom_site_hle17_bader_spin_density
 _atom_site_hle17_ddec_charge
 _atom_site_hle17_ddec_spin_density
 _atom_site_hle17_ddec_sum_bond_order
 _atom_site_hle17_magmom
 _atom_site_hse06_10hf_bader_spin_density
 _atom_site_hse06_10hf_ddec_charge
 _atom_site_hse06_10hf_ddec_spin_density
 _atom_site_hse06_10hf_ddec_sum_bond_order
 _atom_site_hse06_10hf_magmom
 _atom_site_hse06_bader_spin_density
 _atom_site_hse06_ddec_charge
 _atom_site_hse06_ddec_spin_density
 _atom_site_hse06_ddec_sum_bond_order
 _atom_site_hse06_magmom
 _atom_site_pbe_bader_charge
 _atom_site_pbe_bader_spin_density
 _atom_site_pbe_cm5_charge
 _atom_site_pbe_ddec_charge
 _atom_site_pbe_ddec_spin_density
 _atom_site_pbe_ddec_sum_bond_order
 _atom_site_pbe_magmom
Cd  Cd0  1  0.86233132  0.36405817  0.87377609  1  0  0.810964  0  2.001727  0  0  0.645275  0  2.428712  0  0  0.691972  0  2.400446  0  1.066379  0  0.607765  0.612855  0  2.447374  0
Cd  Cd1  1  0.13767176  0.63594160  0.12622641  1  0  0.811018  0  2.001723  0  0  0.645273  0  2.428748  0  0  0.691968  0  2.400477  0  1.066518  0  0.60776  0.612855  0  2.447407  0
Cd  Cd2  1  0.64625641  0.15149063  0.58634799  1  0  0.73559  0  2.11625  0  0  0.572717  0  2.565786  0  0  0.613643  0  2.541145  0  0.986098  0  0.566929  0.545312  0  2.58119  0
Cd  Cd3  1  0.35374725  0.84850819  0.41365014  1  0  0.735664  0  2.116222  0  0  0.572758  0  2.565776  0  0  0.613677  0  2.541139  0  0.986163  0  0.566947  0.545359  0  2.581167  0
H  H4  1  0.19467384  0.29301745  0.11284974  1  0  0.115759  0  0.952521  0  0  0.118436  0  1.024193  0  0  0.122682  0  1.021686  0  0.086795  0  0.097676  0.115421  0  1.026073  0
H  H5  1  0.80532863  0.70698041  0.88715199  1  0  0.115099  0  0.953679  0  0  0.118431  0  1.024136  0  0  0.122678  0  1.021627  0  0.086832  0  0.097669  0.115417  0  1.026016  0
H  H6  1  0.05802771  0.15243212  0.16261360  1  0  0.110871  0  0.924983  0  0  0.119365  0  0.985841  0  0  0.122984  0  0.982252  0  0.112085  0  0.108325  0.116705  0  0.988439  0
H  H7  1  0.94197120  0.84756574  0.83738699  1  0  0.111171  0  0.924383  0  0  0.119369  0  0.985874  0  0  0.122989  0  0.982283  0  0.112218  0  0.108321  0.116708  0  0.988476  0
H  H8  1  0.73523239  0.18495838  0.98609181  1  0  0.093917  0  0.942033  0  0  0.098764  0  1.013081  0  0  0.10228  0  1.00883  0  0.12635  0  0.115859  0.096274  0  1.016022  0
H  H9  1  0.26477015  0.81504520  0.01391064  1  0  0.093896  0  0.942073  0  0  0.098751  0  1.013063  0  0  0.102266  0  1.008812  0  0.126341  0  0.115851  0.096257  0  1.016013  0
H  H10  1  0.81059388  0.50708871  0.58433598  1  0  0.125783  0  0.943445  0  0  0.130961  0  1.007487  0  0  0.135117  0  1.005334  0  0.121462  0  0.101399  0.127968  0  1.009283  0
H  H11  1  0.18940240  0.49291201  0.41566804  1  0  0.125763  0  0.943435  0  0  0.130918  0  1.007509  0  0  0.135073  0  1.005359  0  0.121608  0  0.101394  0.127926  0  1.009305  0
H  H12  1  0.03450921  0.58422434  0.58939020  1  0  0.097863  0  0.951725  0  0  0.10607  0  1.018047  0  0  0.109074  0  1.014977  0  0.097421  0  0.103149  0.103857  0  1.020283  0
H  H13  1  0.96548522  0.41577066  0.41060535  1  0  0.097831  0  0.951743  0  0  0.106014  0  1.018094  0  0  0.109016  0  1.015028  0  0.097504  0  0.103144  0.103801  0  1.02033  0
H  H14  1  0.13772806  0.47187138  0.82528389  1  0  0.087393  0  0.933956  0  0  0.098715  0  0.99733  0  0  0.101302  0  0.99477  0  0.107483  0  0.111748  0.096707  0  0.99932  0
H  H15  1  0.86227471  0.52812743  0.17471413  1  0  0.087422  0  0.933997  0  0  0.098719  0  0.997375  0  0  0.10133  0  0.994785  0  0.107115  0  0.111743  0.096712  0  0.999365  0
H  H16  1  0.07038468  0.12226150  0.72652674  1  0  0.121003  0  0.930151  0  0  0.129484  0  0.989172  0  0  0.133896  0  0.986716  0  0.102162  0  0.105304  0.126318  0  0.991105  0
H  H17  1  0.92961895  0.87773446  0.27346898  1  0  0.120822  0  0.930545  0  0  0.129459  0  0.989227  0  0  0.133871  0  0.986772  0  0.102173  0  0.105289  0.126314  0  0.991129  0
H  H18  1  0.20022031  0.15510318  0.61222613  1  0  0.104988  0  0.948992  0  0  0.11215  0  1.016567  0  0  0.115429  0  1.013778  0  0.130522  0  0.102411  0.110419  0  1.017459  0
H  H19  1  0.79977980  0.84489564  0.38776812  1  0  0.104959  0  0.948992  0  0  0.112158  0  1.016515  0  0  0.115425  0  1.013738  0  0.130581  0  0.1024  0.110425  0  1.017412  0
H  H20  1  0.88236731  0.19819358  0.44067514  1  0  0.08915  0  0.907317  0  0  0.098577  0  0.967759  0  0  0.101429  0  0.964861  0  0.101619  0  0.117208  0.096357  0  0.969961  0
H  H21  1  0.11762653  0.80180237  0.55932411  1  0  0.089167  0  0.907371  0  0  0.098661  0  0.967741  0  0  0.101514  0  0.964841  0  0.101635  0  0.117207  0.096433  0  0.969946  0
H  H22  1  0.44841372  0.91287936  0.17863125  1  0  0.120505  0  0.966446  0  0  0.129043  0  1.027518  0  0  0.132521  0  1.026928  0  0.122843  0  0.104476  0.126527  0  1.028165  0
H  H23  1  0.55158913  0.08712517  0.82136748  1  0  0.120439  0  0.966538  0  0  0.12901  0  1.027577  0  0  0.132504  0  1.026967  0  0.122825  0  0.104479  0.126494  0  1.028222  0
H  H24  1  0.38542675  0.08006779  0.14967108  1  0  0.100432  0  0.94002  0  0  0.108169  0  1.003841  0  0  0.111477  0  1.000321  0  0.118238  0  0.104227  0.105754  0  1.006299  0
H  H25  1  0.61457583  0.91993865  0.85032899  1  0  0.10002  0  0.940798  0  0  0.108178  0  1.003821  0  0  0.111485  0  1.0003  0  0.118262  0  0.104236  0.105764  0  1.00628  0
H  H26  1  0.54433367  0.33570096  0.48770472  1  0  0.089219  0  0.94063  0  0  0.091819  0  1.014731  0  0  0.095182  0  1.010724  0  0.134344  0  0.110235  0.089312  0  1.017708  0
H  H27  1  0.45566469  0.66430071  0.51229718  1  0  0.089227  0  0.940569  0  0  0.091793  0  1.014742  0  0  0.095182  0  1.010709  0  0.134229  0  0.110254  0.089288  0  1.017715  0
H  H28  1  0.59190476  0.39757833  0.83774858  1  0  0.032086  0  0.990616  0  0  0.04011  0  1.067718  0  0  0.04204  0  1.062399  0  0.089277  0  0.10168  0.038498  0  1.071775  0
H  H29  1  0.40810123  0.60241667  0.16225393  1  0  0.032116  0  0.990526  0  0  0.040051  0  1.067731  0  0  0.041971  0  1.062439  0  0.089227  0  0.101678  0.038441  0  1.071789  0
H  H30  1  0.36200835  0.17048151  0.90541501  1  0  0.09764  0  0.94288  0  0  0.113337  0  1.012493  0  0  0.11438  0  1.011186  0  0.063013  0  0.095561  0.112449  0  1.013533  0
H  H31  1  0.63799033  0.82952111  0.09459069  1  0  0.097009  0  0.943608  0  0  0.113361  0  1.012489  0  0  0.114406  0  1.01118  0  0.063047  0  0.095582  0.112472  0  1.01353  0
H  H32  1  0.38357812  0.31938685  0.01688598  1  0  0.104698  0  0.932325  0  0  0.124282  0  0.997149  0  0  0.124984  0  0.996941  0  0.052464  0  0.101746  0.123763  0  0.997227  0
H  H33  1  0.61642090  0.68061959  0.98311774  1  0  0.104283  0  0.933239  0  0  0.124297  0  0.997182  0  0  0.125  0  0.996971  0  0.052549  0  0.101737  0.123778  0  0.997263  0
H  H34  1  0.51318764  0.25915138  0.00300188  1  0  0.115582  0  0.936328  0  0  0.131827  0  1.001843  0  0  0.133769  0  0.999972  0  0.10534  0  0.106299  0.130354  0  1.003195  0
H  H35  1  0.48681072  0.74085030  0.99700618  1  0  0.115465  0  0.936599  0  0  0.131825  0  1.001837  0  0  0.133768  0  0.999967  0  0.104971  0  0.106289  0.130369  0  1.00317  0
H  H36  1  0.34178636  0.43865902  0.91811481  1  0  0.098439  0  0.966357  0  0  0.115926  0  1.035223  0  0  0.116816  0  1.035048  0  0.060123  0  0.092551  0.115117  0  1.035553  0
H  H37  1  0.65821730  0.56133980  0.08188400  1  0  0.098578  0  0.96634  0  0  0.116073  0  1.035182  0  0  0.116965  0  1.035008  0  0.060157  0  0.092613  0.115264  0  1.035513  0
H  H38  1  0.28867631  0.28842149  0.80094449  1  0  0.093508  0  0.951444  0  0  0.113964  0  1.018086  0  0  0.113906  0  1.019133  0  0.048032  0  0.097561  0.114104  0  1.016911  0
H  H39  1  0.71133061  0.71157638  0.19905371  1  0  0.093558  0  0.951502  0  0  0.114028  0  1.018133  0  0  0.113971  0  1.019179  0  0.047943  0  0.097559  0.114167  0  1.016959  0
H  H40  1  0.41144554  0.41654062  0.81261811  1  0  0.110793  0  0.936499  0  0  0.129653  0  0.999008  0  0  0.130931  0  0.99774  0  0.072422  0  0.104659  0.128422  0  1.000459  0
H  H41  1  0.58856404  0.58345724  0.18738249  1  0  0.110859  0  0.936441  0  0  0.129655  0  0.999085  0  0  0.130936  0  0.997815  0  0.07276  0  0.104651  0.128424  0  1.000535  0
C  C42  1  0.03699926  0.30960410  0.02062889  1  0  0.284252  0  3.779322  0  0  0.275481  0  4.04031  0  0  0.291212  0  4.056623  0  0.353874  0  0.111013  0.264786  0  4.029157  0
C  C43  1  0.96300178  0.69039757  0.97937336  1  0  0.284258  0  3.779589  0  0  0.275556  0  4.040339  0  0  0.291288  0  4.056651  0  0.353905  0  0.111052  0.264861  0  4.029187  0
C  C44  1  0.09269686  0.26509192  0.08506261  1  0  -0.136907  0  3.669288  0  0  -0.154292  0  3.929646  0  0  -0.163008  0  3.947989  0  0.037738  0  -0.090355  -0.148867  0  3.91753  0
C  C45  1  0.90730503  0.73490689  0.91493870  1  0  -0.137674  0  3.671107  0  0  -0.154313  0  3.929733  0  0  -0.163032  0  3.948078  0  0.037733  0  -0.090362  -0.14889  0  3.917618  0
C  C46  1  0.01650980  0.18750174  0.11278811  1  0  0.010781  0  3.692352  0  0  -0.023171  0  3.949357  0  0  -0.016596  0  3.96602  0  0.009415  0  -0.068237  -0.027184  0  3.937957  0
C  C47  1  0.98348822  0.81249612  0.88721237  1  0  0.011023  0  3.691637  0  0  -0.023133  0  3.949306  0  0  -0.016556  0  3.965973  0  0.009267  0  -0.068211  -0.027146  0  3.93791  0
C  C48  1  0.88504296  0.15507459  0.07641321  1  0  -0.214323  0  3.828255  0  0  -0.197842  0  4.081946  0  0  -0.211426  0  4.106436  0  -0.019677  0  -0.044647  -0.189003  0  4.065725  0
C  C49  1  0.11495656  0.84492518  0.92358815  1  0  -0.213356  0  3.826661  0  0  -0.197899  0  4.081951  0  0  -0.211493  0  4.106446  0  -0.019761  0  -0.04466  -0.189064  0  4.06573  0
C  C50  1  0.83594944  0.20386064  0.01464959  1  0  0.149563  0  3.697667  0  0  0.10128  0  3.957079  0  0  0.111492  0  3.973693  0  0.531677  0  0.045301  0.094623  0  3.945787  0
C  C51  1  0.16405159  0.79614103  0.98535128  1  0  0.149527  0  3.69769  0  0  0.10125  0  3.957214  0  0  0.111467  0  3.973828  0  0.532135  0  0.045265  0.094593  0  3.945921  0
C  C52  1  0.80108429  0.07097306  0.10482344  1  0  0.785165  0  3.660418  0  0  0.708712  0  4.000348  0  0  0.740846  0  3.975091  0  1.648569  0  0.300561  0.685922  0  4.018614  0
C  C53  1  0.19891496  0.92902862  0.89517926  1  0  0.786449  0  3.657566  0  0  0.708767  0  4.000237  0  0  0.740902  0  3.974979  0  1.648589  0  0.300576  0.685978  0  4.0185  0
C  C54  1  0.85599194  0.45027520  0.70288287  1  0  0.284494  0  3.789827  0  0  0.274986  0  4.052857  0  0  0.290497  0  4.070664  0  0.383015  0  0.110903  0.264582  0  4.040468  0
C  C55  1  0.14400759  0.54972457  0.29711986  1  0  0.284351  0  3.790124  0  0  0.274854  0  4.053057  0  0  0.290365  0  4.070866  0  0.38309  0  0.110821  0.264452  0  4.040666  0
C  C56  1  0.88560243  0.50026384  0.63593250  1  0  -0.148323  0  3.669409  0  0  -0.166404  0  3.930699  0  0  -0.176223  0  3.950345  0  -0.003519  0  -0.091424  -0.16025  0  3.917671  0
C  C57  1  0.11439531  0.49973592  0.36406863  1  0  -0.14816  0  3.669361  0  0  -0.16626  0  3.930626  0  0  -0.176081  0  3.950274  0  -0.003646  0  -0.091368  -0.160106  0  3.917597  0
C  C58  1  0.00992341  0.54275963  0.63883404  1  0  0.00345  0  3.729255  0  0  -0.033363  0  3.991448  0  0  -0.026508  0  4.008303  0  -0.035109  0  -0.074264  -0.037523  0  3.979873  0
C  C59  1  0.99007163  0.45723728  0.36116433  1  0  0.003444  0  3.729222  0  0  -0.033328  0  3.991397  0  0  -0.02647  0  4.008249  0  -0.037081  0  -0.07431  -0.037487  0  3.979826  0
C  C60  1  0.10410407  0.53262811  0.70666205  1  0  -0.211354  0  3.822481  0  0  -0.19687  0  4.080839  0  0  -0.209954  0  4.104163  0  0.017112  0  -0.044267  -0.18836  0  4.065302  0
C  C61  1  0.89589244  0.46736785  0.29333275  1  0  -0.211408  0  3.822725  0  0  -0.196947  0  4.081075  0  0  -0.210035  0  4.104407  0  0.019469  0  -0.044258  -0.188451  0  4.065536  0
C  C62  1  0.06883589  0.48167319  0.77038945  1  0  0.160261  0  3.689856  0  0  0.113796  0  3.94558  0  0  0.12435  0  3.96286  0  0.541212  0  0.049942  0.106994  0  3.93381  0
C  C63  1  0.93116510  0.51832562  0.22960902  1  0  0.160268  0  3.689971  0  0  0.113847  0  3.945639  0  0  0.124388  0  3.962913  0  0.541124  0  0.049965  0.10705  0  3.933871  0
C  C64  1  0.24000927  0.57652755  0.71388827  1  0  0.792914  0  3.647029  0  0  0.711657  0  3.993279  0  0  0.743826  0  3.967556  0  1.638315  0  0.300455  0.688917  0  4.011582  0
C  C65  1  0.75998724  0.42346840  0.28610380  1  0  0.792922  0  3.646952  0  0  0.711518  0  3.993545  0  0  0.743681  0  3.967826  0  1.638484  0  0.300503  0.688819  0  4.011791  0
C  C66  1  0.90850104  0.14331451  0.64382880  1  0  0.2701  0  3.7766  0  0  0.260549  0  4.044392  0  0  0.275408  0  4.061632  0  0.342036  0  0.105786  0.250743  0  4.03236  0
C  C67  1  0.09150142  0.85668335  0.35617157  1  0  0.270194  0  3.776462  0  0  0.260649  0  4.044238  0  0  0.27551  0  4.061468  0  0.342118  0  0.105836  0.250843  0  4.032206  0
C  C68  1  0.03276327  0.14017081  0.66292755  1  0  -0.155196  0  3.688763  0  0  -0.172325  0  3.951083  0  0  -0.181422  0  3.970004  0  0.022481  0  -0.091447  -0.166699  0  3.93847  0
C  C69  1  0.96723800  0.85982610  0.33706889  1  0  -0.155361  0  3.689085  0  0  -0.172325  0  3.951096  0  0  -0.181421  0  3.970011  0  0.022424  0  -0.091429  -0.166714  0  3.938468  0
C  C70  1  0.10459712  0.15913787  0.59990877  1  0  0.000493  0  3.718508  0  0  -0.03207  0  3.975321  0  0  -0.025784  0  3.992717  0  -0.068048  0  -0.071611  -0.036087  0  3.963065  0
C  C71  1  0.89540268  0.84085999  0.40008646  1  0  0.000489  0  3.718507  0  0  -0.032022  0  3.975236  0  0  -0.025727  0  3.992635  0  -0.068076  0  -0.071603  -0.036042  0  3.96299  0
C  C72  1  0.05211100  0.18170985  0.51884043  1  0  -0.207509  0  3.821121  0  0  -0.191944  0  4.075012  0  0  -0.20479  0  4.099069  0  0.021687  0  -0.042293  -0.183592  0  4.059297  0
C  C73  1  0.94788346  0.81828801  0.48115617  1  0  -0.207479  0  3.820668  0  0  -0.192034  0  4.074837  0  0  -0.204884  0  4.098898  0  0.02194  0  -0.042302  -0.183682  0  4.059123  0
C  C74  1  0.92820793  0.18270947  0.50368673  1  0  0.153215  0  3.696082  0  0  0.108351  0  3.957158  0  0  0.118029  0  3.973546  0  0.515596  0  0.049438  0.102149  0  3.945906  0
C  C75  1  0.07178800  0.81728744  0.49631313  1  0  0.153252  0  3.695628  0  0  0.108283  0  3.956873  0  0  0.117956  0  3.973267  0  0.515221  0  0.049455  0.102089  0  3.945612  0
C  C76  1  0.12579822  0.20866435  0.45099543  1  0  0.787166  0  3.655721  0  0  0.709436  0  3.996341  0  0  0.741691  0  3.970352  0  1.653243  0  0.299967  0.686653  0  4.014891  0
C  C77  1  0.87419418  0.79133542  0.54899954  1  0  0.787865  0  3.654618  0  0  0.709604  0  3.996171  0  0  0.741861  0  3.970181  0  1.652996  0  0.3  0.686821  0  4.01472  0
C  C78  1  0.52950332  0.03595299  0.34821654  1  0  0.274431  0  3.782386  0  0  0.267201  0  4.042737  0  0  0.281991  0  4.060383  0  0.35573  0  0.107499  0.257177  0  4.030777  0
C  C79  1  0.47049922  0.96405059  0.65178317  1  0  0.274433  0  3.782338  0  0  0.267233  0  4.042682  0  0  0.282023  0  4.060327  0  0.355921  0  0.107492  0.257198  0  4.030738  0
C  C80  1  0.46939532  0.00792359  0.24458246  1  0  -0.148761  0  3.674697  0  0  -0.162019  0  3.925051  0  0  -0.171518  0  3.944867  0  0.058385  0  -0.091922  -0.156222  0  3.912169  0
C  C81  1  0.53060784  0.99208190  0.75541734  1  0  -0.148788  0  3.674792  0  0  -0.16206  0  3.925141  0  0  -0.171566  0  3.944945  0  0.058437  0  -0.09196  -0.156259  0  3.912263  0
C  C82  1  0.43306420  0.10046520  0.22913277  1  0  0.01901  0  3.6985  0  0  -0.015331  0  3.955855  0  0  -0.008243  0  3.971645  0  -0.083789  0  -0.066428  -0.019513  0  3.944935  0
C  C83  1  0.56693687  0.89953934  0.77086847  1  0  0.018642  0  3.699672  0  0  -0.015323  0  3.955796  0  0  -0.008234  0  3.971593  0  -0.083879  0  -0.066433  -0.019504  0  3.944876  0
C  C84  1  0.45749595  0.22042251  0.31653614  1  0  -0.197328  0  3.807691  0  0  -0.186875  0  4.069965  0  0  -0.199017  0  4.091354  0  0.010213  0  -0.040036  -0.179088  0  4.055907  0
C  C85  1  0.54250481  0.77958106  0.68346539  1  0  -0.198154  0  3.809372  0  0  -0.186843  0  4.070089  0  0  -0.198991  0  4.091485  0  0.010139  0  -0.040063  -0.179056  0  4.056029  0
C  C86  1  0.52057843  0.24374731  0.41658711  1  0  0.161778  0  3.683291  0  0  0.113826  0  3.94239  0  0  0.124648  0  3.957848  0  0.538632  0  0.049986  0.106811  0  3.931959  0
C  C87  1  0.47942233  0.75625627  0.58341510  1  0  0.161767  0  3.683404  0  0  0.113854  0  3.942475  0  0  0.124652  0  3.957929  0  0.53885  0  0.049978  0.106839  0  3.932046  0
C  C88  1  0.41254533  0.31939447  0.30317184  1  0  0.789669  0  3.649253  0  0  0.710048  0  3.994405  0  0  0.742064  0  3.969063  0  1.642808  0  0.301266  0.687247  0  4.012924  0
C  C89  1  0.58745304  0.68060720  0.69682869  1  0  0.788021  0  3.652414  0  0  0.710026  0  3.994558  0  0  0.742051  0  3.9692  0  1.642743  0  0.301331  0.687225  0  4.013078  0
C  C90  1  0.57666378  0.34538651  0.88231809  1  0  0.3721  0  3.855948  0  0  0.293082  0  4.150868  0  0  0.321786  0  4.150996  0  1.373888  0  0.157346  0.273857  0  4.150323  0
C  C91  1  0.42334372  0.65461040  0.11768872  1  0  0.372095  0  3.855903  0  0  0.293091  0  4.150904  0  0  0.321794  0  4.151027  0  1.373584  0  0.157333  0.273863  0  4.15036  0
C  C92  1  0.42928914  0.26643174  0.96047788  1  0  -0.166952  0  3.641863  0  0  -0.267604  0  3.890357  0  0  -0.263831  0  3.89979  0  0.266845  0  -0.137114  -0.269823  0  3.88386  0
C  C93  1  0.57071162  0.73357184  0.03952707  1  0  -0.167517  0  3.643365  0  0  -0.267643  0  3.890312  0  0  -0.263873  0  3.899741  0  0.267238  0  -0.137125  -0.269877  0  3.883807  0
C  C94  1  0.37199493  0.37174066  0.85612490  1  0  -0.172869  0  3.667255  0  0  -0.27822  0  3.921362  0  0  -0.274871  0  3.932437  0  0.283345  0  -0.138048  -0.280086  0  3.913725  0
C  C95  1  0.62801109  0.62825720  0.14387523  1  0  -0.173081  0  3.667339  0  0  -0.278449  0  3.921529  0  0  -0.275109  0  3.932602  0  0.282944  0  -0.138071  -0.280314  0  3.913891  0
S  S96  1  0.12364495  0.40391053  0.97894117  1  0  -0.46717  0  2.107826  0  0  -0.435199  0  2.459389  0  0  -0.45769  0  2.45524  0  -0.331577  0  -0.210471  -0.418976  0  2.461542  0
S  S97  1  0.87635903  0.59608924  0.02106144  1  0  -0.467289  0  2.107995  0  0  -0.435238  0  2.459377  0  0  -0.457733  0  2.455233  0  -0.331605  0  -0.210495  -0.419014  0  2.46153  0
S  S98  1  0.70438828  0.40106699  0.70847546  1  0  -0.450362  0  2.111972  0  0  -0.421621  0  2.462738  0  0  -0.443069  0  2.456415  0  -0.317332  0  -0.214226  -0.406242  0  2.466668  0
S  S99  1  0.29561329  0.59893087  0.29152889  1  0  -0.450089  0  2.111523  0  0  -0.421612  0  2.462776  0  0  -0.443035  0  2.456425  0  -0.3174  0  -0.214231  -0.406236  0  2.466711  0
S  S100  1  0.80974292  0.11856605  0.71668383  1  0  -0.40003  0  2.136212  0  0  -0.366443  0  2.484966  0  0  -0.389858  0  2.483173  0  -0.281543  0  -0.201005  -0.350854  0  2.48573  0
S  S101  1  0.19026225  0.88143468  0.28331792  1  0  -0.400276  0  2.136485  0  0  -0.366508  0  2.48492  0  0  -0.389925  0  2.483124  0  -0.281552  0  -0.201031  -0.350922  0  2.485687  0
S  S102  1  0.57001191  0.92484908  0.37930839  1  0  -0.427986  0  2.033639  0  0  -0.38947  0  2.36338  0  0  -0.410371  0  2.358777  0  -0.326975  0  -0.215804  -0.374646  0  2.364967  0
S  S103  1  0.42999152  0.07515450  0.62069007  1  0  -0.427972  0  2.03361  0  0  -0.389464  0  2.363339  0  0  -0.410368  0  2.35874  0  -0.32707  0  -0.215783  -0.374637  0  2.364934  0
N  N104  1  0.90991678  0.27856727  0.98786539  1  0  -0.351114  0  3.229713  0  0  -0.273501  0  3.48486  0  0  -0.294891  0  3.503011  0  -1.219461  0  -0.335374  -0.258986  0  3.472409  0
N  N105  1  0.09008634  0.72143536  0.01213679  1  0  -0.351093  0  3.229683  0  0  -0.273501  0  3.484898  0  0  -0.294881  0  3.503023  0  -1.220042  0  -0.33535  -0.258982  0  3.472438  0
N  N106  1  0.94926225  0.44293575  0.76902544  1  0  -0.365963  0  3.256535  0  0  -0.285105  0  3.508617  0  0  -0.307214  0  3.528384  0  -1.222396  0  -0.335645  -0.270172  0  3.494868  0
N  N107  1  0.05074083  0.55706402  0.23097638  1  0  -0.365891  0  3.256451  0  0  -0.285068  0  3.508537  0  0  -0.30718  0  3.528313  0  -1.222377  0  -0.335635  -0.270142  0  3.4948  0
N  N108  1  0.85880488  0.16394348  0.56393862  1  0  -0.354113  0  3.193936  0  0  -0.285838  0  3.456903  0  0  -0.304847  0  3.474567  0  -1.200383  0  -0.332964  -0.273174  0  3.444538  0
N  N109  1  0.14119372  0.83605343  0.43606227  1  0  -0.354189  0  3.193628  0  0  -0.28591  0  3.456658  0  0  -0.304915  0  3.474319  0  -1.200334  0  -0.333022  -0.273245  0  3.444289  0
N  N110  1  0.55590938  0.15431034  0.43113212  1  0  -0.349616  0  3.231355  0  0  -0.269266  0  3.486088  0  0  -0.29085  0  3.504752  0  -1.223637  0  -0.337186  -0.254861  0  3.47335  0
N  N111  1  0.44409227  0.84569324  0.56886816  1  0  -0.34962  0  3.23125  0  0  -0.269262  0  3.485984  0  0  -0.290848  0  3.504661  0  -1.223922  0  -0.337162  -0.254855  0  3.473253  0
N  N112  1  0.46586167  0.33266970  0.90267470  1  0  -0.090842  0  3.523555  0  0  0.014988  0  3.755893  0  0  -0.005836  0  3.782235  0  -1.213246  0  -0.286453  0.028779  0  3.737794  0
N  N113  1  0.53414199  0.66732911  0.09732753  1  0  -0.090804  0  3.523451  0  0  0.01504  0  3.755884  0  0  -0.005784  0  3.782225  0  -1.213192  0  -0.286454  0.028828  0  3.73779  0
O  O114  1  0.65936855  0.30483089  0.91113779  1  0  -0.524848  0  2.09225  0  0  -0.463384  0  2.347342  0  0  -0.489187  0  2.341968  0  -1.165538  0  -0.309847  -0.445488  0  2.350268  0
O  O115  1  0.34063635  0.69517174  0.08887214  1  0  -0.524903  0  2.092186  0  0  -0.463345  0  2.347175  0  0  -0.48915  0  2.341799  0  -1.165245  0  -0.309823  -0.445448  0  2.350105  0
F  F116  1  0.67621062  0.03575382  0.05288076  1  0  -0.264544  0  1.131091  0  0  -0.220633  0  1.285481  0  0  -0.230913  0  1.269743  0  -0.62336  0  -0.100307  -0.213293  0  1.296414  0
F  F117  1  0.32378953  0.96424785  0.94712137  1  0  -0.263435  0  1.130571  0  0  -0.220584  0  1.285442  0  0  -0.230862  0  1.269703  0  -0.623365  0  -0.10025  -0.213242  0  1.296374  0
F  F118  1  0.81208356  0.12673358  0.21136568  1  0  -0.274998  0  1.114861  0  0  -0.235932  0  1.272378  0  0  -0.245603  0  1.256111  0  -0.623433  0  -0.117243  -0.22899  0  1.283716  0
F  F119  1  0.18791577  0.87327381  0.78863637  1  0  -0.273848  0  1.114306  0  0  -0.235949  0  1.272299  0  0  -0.245619  0  1.256033  0  -0.623349  0  -0.117272  -0.229006  0  1.283637  0
F  F120  1  0.82843664  0.96019982  0.08069211  1  0  -0.265229  0  1.121009  0  0  -0.227695  0  1.28408  0  0  -0.238537  0  1.269255  0  -0.620845  0  -0.107059  -0.219922  0  1.294386  0
F  F121  1  0.17156296  0.03980567  0.91931612  1  0  -0.272859  0  1.129085  0  0  -0.227733  0  1.284033  0  0  -0.238574  0  1.269209  0  -0.62091  0  -0.107079  -0.21996  0  1.294339  0
F  F122  1  0.31090970  0.67759119  0.81206579  1  0  -0.27799  0  1.131906  0  0  -0.236803  0  1.294251  0  0  -0.246981  0  1.2786  0  -0.618898  0  -0.112375  -0.229408  0  1.304998  0
F  F123  1  0.68908921  0.32240668  0.18792249  1  0  -0.277648  0  1.13147  0  0  -0.236756  0  1.294245  0  0  -0.246933  0  1.278597  0  -0.618979  0  -0.112398  -0.229372  0  1.304977  0
F  F124  1  0.29371028  0.48299585  0.69851892  1  0  -0.273525  0  1.144782  0  0  -0.229445  0  1.30566  0  0  -0.239375  0  1.289549  0  -0.61888  0  -0.107741  -0.222387  0  1.317091  0
F  F125  1  0.70628766  0.51699629  0.30147537  1  0  -0.273247  0  1.144511  0  0  -0.229339  0  1.305805  0  0  -0.239266  0  1.289695  0  -0.61887  0  -0.107697  -0.222292  0  1.317223  0
F  F126  1  0.25854692  0.61488573  0.64121269  1  0  -0.260534  0  1.160767  0  0  -0.215453  0  1.323399  0  0  -0.226219  0  1.30869  0  -0.625328  0  -0.098529  -0.207705  0  1.333579  0
F  F127  1  0.74144529  0.38509975  0.35877365  1  0  -0.260443  0  1.160627  0  0  -0.215432  0  1.323423  0  0  -0.226195  0  1.308713  0  -0.625453  0  -0.098565  -0.207695  0  1.333591  0
F  F128  1  0.14696519  0.33226471  0.46985005  1  0  -0.271164  0  1.148759  0  0  -0.238468  0  1.328924  0  0  -0.24917  0  1.31298  0  -0.615689  0  -0.1093  -0.230765  0  1.339934  0
F  F129  1  0.85302277  0.66773506  0.53014503  1  0  -0.271079  0  1.1484  0  0  -0.238476  0  1.3289  0  0  -0.249178  0  1.312956  0  -0.615454  0  -0.109283  -0.230773  0  1.339908  0
F  F130  1  0.24053612  0.19360905  0.46799508  1  0  -0.249957  0  1.160254  0  0  -0.204671  0  1.320539  0  0  -0.214636  0  1.305571  0  -0.624842  0  -0.096769  -0.197659  0  1.330959  0
F  F131  1  0.75945779  0.80639262  0.53199599  1  0  -0.249937  0  1.160025  0  0  -0.20471  0  1.320588  0  0  -0.214674  0  1.305616  0  -0.624899  0  -0.096755  -0.197698  0  1.331008  0
F  F132  1  0.06334558  0.13312772  0.34472738  1  0  -0.272294  0  1.143209  0  0  -0.233302  0  1.30982  0  0  -0.243158  0  1.293662  0  -0.614792  0  -0.10904  -0.226232  0  1.321042  0
F  F133  1  0.93664207  0.86687109  0.65526800  1  0  -0.272735  0  1.142755  0  0  -0.233383  0  1.309681  0  0  -0.243238  0  1.293524  0  -0.614753  0  -0.109089  -0.226311  0  1.320902  0
F  F134  1  0.47710509  0.43938515  0.38421192  1  0  -0.249457  0  1.158186  0  0  -0.219508  0  1.335143  0  0  -0.229094  0  1.317751  0  -0.615161  0  -0.100908  -0.212705  0  1.34751  0
F  F135  1  0.52289092  0.56061748  0.61578865  1  0  -0.250374  0  1.158925  0  0  -0.219447  0  1.335158  0  0  -0.229032  0  1.317765  0  -0.614877  0  -0.100889  -0.212644  0  1.347525  0
F  F136  1  0.28727263  0.29892465  0.29819438  1  0  -0.278611  0  1.142254  0  0  -0.230424  0  1.303425  0  0  -0.241343  0  1.287889  0  -0.61725  0  -0.108095  -0.222542  0  1.314261  0
F  F137  1  0.71272543  0.70107607  0.70180577  1  0  -0.279628  0  1.142795  0  0  -0.23047  0  1.303414  0  0  -0.241392  0  1.287874  0  -0.617201  0  -0.108144  -0.222589  0  1.314253  0
F  F138  1  0.42186118  0.31889990  0.21059041  1  0  -0.273891  0  1.135186  0  0  -0.231571  0  1.299437  0  0  -0.241654  0  1.2832  0  -0.619641  0  -0.107812  -0.224453  0  1.310945  0
F  F139  1  0.57813749  0.68110272  0.78941119  1  0  -0.266292  0  1.127745  0  0  -0.231566  0  1.299475  0  0  -0.241648  0  1.283233  0  -0.619657  0  -0.107828  -0.224448  0  1.310982  0
