# generated using pymatgen
data_TmH21(C9O2)3
_symmetry_space_group_name_H-M   'P 1'
_cell_length_a   7.84311822
_cell_length_b   11.34363009
_cell_length_c   12.92504212
_cell_angle_alpha   93.25536746
_cell_angle_beta   90.00000202
_cell_angle_gamma   89.99990582
_symmetry_Int_Tables_number   1
_chemical_formula_structural   TmH21(C9O2)3
_chemical_formula_sum   'Tm2 H42 C54 O12'
_cell_volume   1148.07806919
_cell_formula_units_Z   2
loop_
 _symmetry_equiv_pos_site_id
 _symmetry_equiv_pos_as_xyz
  1  'x, y, z'
loop_
 _atom_site_type_symbol
 _atom_site_label
 _atom_site_symmetry_multiplicity
 _atom_site_fract_x
 _atom_site_fract_y
 _atom_site_fract_z
 _atom_site_occupancy
 _atom_site_hle17_bader_spin_density
 _atom_site_hle17_ddec_charge
 _atom_site_hle17_ddec_spin_density
 _atom_site_hle17_ddec_sum_bond_order
 _atom_site_hle17_magmom
 _atom_site_hse06_10hf_bader_spin_density
 _atom_site_hse06_10hf_ddec_charge
 _atom_site_hse06_10hf_ddec_spin_density
 _atom_site_hse06_10hf_ddec_sum_bond_order
 _atom_site_hse06_10hf_magmom
 _atom_site_hse06_bader_spin_density
 _atom_site_hse06_ddec_charge
 _atom_site_hse06_ddec_spin_density
 _atom_site_hse06_ddec_sum_bond_order
 _atom_site_hse06_magmom
 _atom_site_pbe_bader_spin_density
 _atom_site_pbe_cm5_charge
 _atom_site_pbe_ddec_charge
 _atom_site_pbe_ddec_spin_density
 _atom_site_pbe_ddec_sum_bond_order
 _atom_site_pbe_magmom
Tm  Tm0  1  0.53432512  0.54023957  0.47411110  1  0  2.260733  0  1.719792  0  0  2.129746  0  2.197662  0  0  2.258126  0  2.010013  0  0  1.568152  2.091296  0  2.233043  0
Tm  Tm1  1  0.03433147  0.45976195  0.52588867  1  0  2.260727  0  1.719752  0  0  2.129807  0  2.197532  0  0  2.258139  0  2.00997  0  0  1.568141  2.091318  0  2.232983  0
H  H2  1  0.71076054  0.12714340  0.61010280  1  0  0.113096  0  0.95463  0  0  0.124686  0  1.011809  0  0  0.128586  0  1.010681  0  0  0.103051  0.12196  0  1.01251  0
H  H3  1  0.21075061  0.87285449  0.38988748  1  0  0.112997  0  0.954699  0  0  0.12463  0  1.011836  0  0  0.128531  0  1.010706  0  0  0.103017  0.121928  0  1.012512  0
H  H4  1  0.37230188  0.26549230  0.60432843  1  0  0.101939  0  0.962377  0  0  0.109359  0  1.029552  0  0  0.112415  0  1.026908  0  0  0.111228  0.10715  0  1.031526  0
H  H5  1  0.87229633  0.73450716  0.39566349  1  0  0.101985  0  0.962435  0  0  0.109385  0  1.029628  0  0  0.11244  0  1.026987  0  0  0.11121  0.107177  0  1.031599  0
H  H6  1  0.57672995  0.95962549  0.59692434  1  0  0.088988  0  0.957257  0  0  0.101381  0  1.016846  0  0  0.103983  0  1.015988  0  0  0.100127  0.099563  0  1.017404  0
H  H7  1  0.07671307  0.04037425  0.40307301  1  0  0.089004  0  0.957257  0  0  0.101331  0  1.016908  0  0  0.103927  0  1.016065  0  0  0.100131  0.099512  0  1.017468  0
H  H8  1  0.41375927  0.77869329  0.62556949  1  0  0.094214  0  0.98609  0  0  0.09826  0  1.058376  0  0  0.101812  0  1.056442  0  0  0.100676  0.095531  0  1.060415  0
H  H9  1  0.91373581  0.22130515  0.37443089  1  0  0.094168  0  0.986053  0  0  0.098274  0  1.058274  0  0  0.101821  0  1.056351  0  0  0.100705  0.095545  0  1.060313  0
H  H10  1  0.10430326  0.78922448  0.66449779  1  0  0.091416  0  0.97854  0  0  0.100653  0  1.041256  0  0  0.10286  0  1.041246  0  0  0.098201  0.099234  0  1.040941  0
H  H11  1  0.60428237  0.21077254  0.33550250  1  0  0.091394  0  0.978561  0  0  0.100606  0  1.04129  0  0  0.102814  0  1.041281  0  0  0.098199  0.099188  0  1.040976  0
H  H12  1  0.95459367  0.98363212  0.67075567  1  0  0.080606  0  0.954656  0  0  0.09327  0  1.012636  0  0  0.095853  0  1.01202  0  0  0.096171  0.091403  0  1.013167  0
H  H13  1  0.45457812  0.01636282  0.32923677  1  0  0.080619  0  0.954644  0  0  0.093325  0  1.012569  0  0  0.095901  0  1.011963  0  0  0.096192  0.091458  0  1.013101  0
H  H14  1  0.11765455  0.16692299  0.63894932  1  0  0.106737  0  0.952291  0  0  0.115473  0  1.016717  0  0  0.118995  0  1.014286  0  0  0.108461  0.112922  0  1.0186  0
H  H15  1  0.61764495  0.83307320  0.36104473  1  0  0.10682  0  0.952281  0  0  0.115518  0  1.016764  0  0  0.11904  0  1.014333  0  0  0.108478  0.112963  0  1.018652  0
H  H16  1  0.44405353  0.62488766  0.75625188  1  0  0.117993  0  0.957719  0  0  0.126736  0  1.019986  0  0  0.130329  0  1.019546  0  0  0.107073  0.124291  0  1.020051  0
H  H17  1  0.94405138  0.37511779  0.24375045  1  0  0.117973  0  0.957675  0  0  0.126714  0  1.019959  0  0  0.130308  0  1.019513  0  0  0.107048  0.124272  0  1.020026  0
H  H18  1  0.20984842  0.45175369  0.86510688  1  0  0.098663  0  0.94759  0  0  0.109281  0  1.009359  0  0  0.111839  0  1.007715  0  0  0.108411  0.107536  0  1.010255  0
H  H19  1  0.70984330  0.54825287  0.13489938  1  0  0.0987  0  0.947524  0  0  0.109319  0  1.009276  0  0  0.111881  0  1.007626  0  0  0.108403  0.107559  0  1.010213  0
H  H20  1  0.48194905  0.73132915  0.90168351  1  0  0.086183  0  0.959251  0  0  0.098599  0  1.019315  0  0  0.100855  0  1.01906  0  0  0.098919  0.096963  0  1.019601  0
H  H21  1  0.98194842  0.26867800  0.09832047  1  0  0.086167  0  0.959235  0  0  0.098587  0  1.019291  0  0  0.100828  0  1.019053  0  0  0.098892  0.096951  0  1.019577  0
H  H22  1  0.54411042  0.82648205  0.07393028  1  0  0.086823  0  0.978078  0  0  0.097145  0  1.039489  0  0  0.098904  0  1.041318  0  0  0.09646  0.095876  0  1.038323  0
H  H23  1  0.04410854  0.17352648  0.92607454  1  0  0.086894  0  0.978005  0  0  0.097185  0  1.039444  0  0  0.098943  0  1.041273  0  0  0.096514  0.095918  0  1.038274  0
H  H24  1  0.44164363  0.73517297  0.23393318  1  0  0.098943  0  0.96077  0  0  0.109174  0  1.020987  0  0  0.112226  0  1.018857  0  0  0.104426  0.107139  0  1.022198  0
H  H25  1  0.94163921  0.26483245  0.76607302  1  0  0.099007  0  0.960672  0  0  0.10923  0  1.020911  0  0  0.112286  0  1.018768  0  0  0.10443  0.107193  0  1.022125  0
H  H26  1  0.27383432  0.54980160  0.22003467  1  0  0.100738  0  0.952872  0  0  0.110347  0  1.012087  0  0  0.112847  0  1.011998  0  0  0.104858  0.108648  0  1.012027  0
H  H27  1  0.77382691  0.45020402  0.77997000  1  0  0.100766  0  0.952881  0  0  0.110394  0  1.012056  0  0  0.112907  0  1.011951  0  0  0.104873  0.10869  0  1.012  0
H  H28  1  0.21082250  0.45327537  0.04637654  1  0  0.085598  0  0.979694  0  0  0.094718  0  1.046855  0  0  0.096485  0  1.048235  0  0  0.095925  0.093432  0  1.045986  0
H  H29  1  0.71081487  0.54673032  0.95362890  1  0  0.085501  0  0.979815  0  0  0.094639  0  1.046961  0  0  0.096412  0  1.048335  0  0  0.095897  0.093367  0  1.046047  0
H  H30  1  0.67491684  0.81542616  0.73451420  1  0  0.111853  0  0.967342  0  0  0.120605  0  1.031798  0  0  0.124476  0  1.030564  0  0  0.102277  0.117984  0  1.032419  0
H  H31  1  0.17491746  0.18457255  0.26548618  1  0  0.111832  0  0.967329  0  0  0.120586  0  1.031783  0  0  0.124457  0  1.030548  0  0  0.102255  0.117965  0  1.032404  0
H  H32  1  0.97350999  0.66914624  0.81454601  1  0  0.096103  0  0.939754  0  0  0.106877  0  1.002095  0  0  0.109277  0  1.000215  0  0  0.108485  0.105243  0  1.003151  0
H  H33  1  0.47351154  0.33084951  0.18545190  1  0  0.096022  0  0.939748  0  0  0.106809  0  1.002069  0  0  0.109209  0  1.000188  0  0  0.108463  0.105179  0  1.003119  0
H  H34  1  0.72545270  0.95695531  0.85728824  1  0  0.086654  0  0.956578  0  0  0.09953  0  1.01568  0  0  0.102005  0  1.014861  0  0  0.099722  0.097739  0  1.0163  0
H  H35  1  0.22545492  0.04304157  0.14271282  1  0  0.086612  0  0.95658  0  0  0.099495  0  1.015689  0  0  0.101971  0  1.014867  0  0  0.099706  0.097704  0  1.016308  0
H  H36  1  0.71699408  0.07170816  0.02488862  1  0  0.087049  0  0.973059  0  0  0.096595  0  1.035073  0  0  0.098398  0  1.036415  0  0  0.096911  0.095296  0  1.034236  0
H  H37  1  0.21698277  0.92829048  0.97511331  1  0  0.087017  0  0.972995  0  0  0.096532  0  1.03506  0  0  0.098333  0  1.036398  0  0  0.096881  0.095233  0  1.034221  0
H  H38  1  0.85791143  0.99539860  0.18011445  1  0  0.079964  0  0.995978  0  0  0.08845  0  1.061391  0  0  0.089682  0  1.06332  0  0  0.093854  0.087452  0  1.060207  0
H  H39  1  0.35789338  0.00459727  0.81988424  1  0  0.079989  0  0.995964  0  0  0.088421  0  1.061438  0  0  0.089655  0  1.063363  0  0  0.093852  0.08742  0  1.060254  0
H  H40  1  0.01034698  0.80181136  0.16595563  1  0  0.089925  0  0.957865  0  0  0.09954  0  1.018043  0  0  0.101357  0  1.019252  0  0  0.098549  0.098237  0  1.01726  0
H  H41  1  0.51033890  0.19818138  0.83404208  1  0  0.089902  0  0.95786  0  0  0.099432  0  1.01811  0  0  0.10127  0  1.019297  0  0  0.098554  0.098127  0  1.017327  0
H  H42  1  0.02170613  0.68695109  0.99708991  1  0  0.086652  0  0.975977  0  0  0.095696  0  1.042001  0  0  0.097248  0  1.043426  0  0  0.096904  0.094552  0  1.041057  0
H  H43  1  0.52170667  0.31304164  0.00290781  1  0  0.086573  0  0.97588  0  0  0.095651  0  1.041864  0  0  0.097182  0  1.043311  0  0  0.096859  0.094521  0  1.040898  0
C  C44  1  0.69958109  0.31636548  0.59197331  1  0  0.761634  0  3.865471  0  0  0.721122  0  4.147601  0  0  0.75901  0  4.140001  0  0  0.226317  0.695691  0  4.155417  0
C  C45  1  0.19957543  0.68363061  0.40802074  1  0  0.761564  0  3.865453  0  0  0.721124  0  4.147481  0  0  0.759005  0  4.139892  0  0  0.226281  0.695695  0  4.155299  0
C  C46  1  0.62191568  0.20053837  0.60552823  1  0  -0.264809  0  3.679735  0  0  -0.276047  0  3.930005  0  0  -0.290059  0  3.945866  0  0  -0.104104  -0.266281  0  3.917849  0
C  C47  1  0.12191231  0.79946049  0.39446365  1  0  -0.264743  0  3.679421  0  0  -0.276043  0  3.929657  0  0  -0.290051  0  3.945518  0  0  -0.104135  -0.266298  0  3.91749  0
C  C48  1  0.45099134  0.18648631  0.60857317  1  0  -0.007232  0  3.69883  0  0  -0.033018  0  3.944635  0  0  -0.025909  0  3.960026  0  0  -0.061021  -0.03726  0  3.933074  0
C  C49  1  0.95098050  0.81351040  0.39141937  1  0  -0.007233  0  3.698645  0  0  -0.032988  0  3.944445  0  0  -0.025876  0  3.959833  0  0  -0.060901  -0.037229  0  3.93289  0
C  C50  1  0.35927284  0.07671423  0.61948780  1  0  0.062202  0  3.828285  0  0  0.084122  0  4.057399  0  0  0.081266  0  4.082642  0  0  -0.014554  0.085959  0  4.040121  0
C  C51  1  0.85926048  0.92328257  0.38050630  1  0  0.062248  0  3.828272  0  0  0.084146  0  4.057367  0  0  0.081292  0  4.082606  0  0  -0.014604  0.085981  0  4.040089  0
C  C52  1  0.44107854  0.96587078  0.61505875  1  0  -0.110305  0  3.728903  0  0  -0.127962  0  3.969576  0  0  -0.129581  0  3.990635  0  0  -0.086793  -0.126621  0  3.954995  0
C  C53  1  0.94105935  0.03412587  0.38493998  1  0  -0.11041  0  3.728903  0  0  -0.128021  0  3.969655  0  0  -0.129641  0  3.990713  0  0  -0.086817  -0.126678  0  3.955075  0
C  C54  1  0.34944801  0.86378525  0.63137688  1  0  -0.078315  0  3.778689  0  0  -0.090797  0  4.030184  0  0  -0.093539  0  4.050479  0  0  -0.094076  -0.088793  0  4.015959  0
C  C55  1  0.84942731  0.13620972  0.36862407  1  0  -0.078136  0  3.778717  0  0  -0.090655  0  4.0302  0  0  -0.093398  0  4.050499  0  0  -0.09403  -0.088653  0  4.015978  0
C  C56  1  0.17457878  0.86999181  0.65234011  1  0  -0.060001  0  3.74705  0  0  -0.072232  0  3.989198  0  0  -0.073755  0  4.011968  0  0  -0.087842  -0.070871  0  3.973094  0
C  C57  1  0.67456192  0.13000162  0.34765765  1  0  -0.059985  0  3.747143  0  0  -0.072188  0  3.989327  0  0  -0.073712  0  4.012096  0  0  -0.087824  -0.070828  0  3.973227  0
C  C58  1  0.09115265  0.97891370  0.65507656  1  0  -0.074584  0  3.793856  0  0  -0.08569  0  4.04091  0  0  -0.08899  0  4.064338  0  0  -0.092802  -0.083407  0  4.024863  0
C  C59  1  0.59113732  0.02108073  0.34492048  1  0  -0.074648  0  3.793875  0  0  -0.085795  0  4.040935  0  0  -0.089089  0  4.064362  0  0  -0.09282  -0.08351  0  4.024889  0
C  C60  1  0.18211243  0.08154443  0.63785278  1  0  -0.103525  0  3.69727  0  0  -0.12212  0  3.939391  0  0  -0.123772  0  3.960034  0  0  -0.079288  -0.120703  0  3.925055  0
C  C61  1  0.68210135  0.91845079  0.36214276  1  0  -0.103631  0  3.6974  0  0  -0.1222  0  3.939502  0  0  -0.123851  0  3.960137  0  0  -0.079359  -0.120777  0  3.925163  0
C  C62  1  0.27745030  0.49745695  0.67475765  1  0  0.717669  0  3.896846  0  0  0.675635  0  4.18084  0  0  0.711546  0  4.179285  0  0  0.198619  0.650432  0  4.188333  0
C  C63  1  0.77745040  0.50254868  0.32524546  1  0  0.717516  0  3.89715  0  0  0.67534  0  4.181327  0  0  0.71125  0  4.179789  0  0  0.198482  0.650131  0  4.188831  0
C  C64  1  0.35335372  0.55405284  0.76786872  1  0  -0.244095  0  3.650158  0  0  -0.255316  0  3.898816  0  0  -0.269466  0  3.914467  0  0  -0.09965  -0.245416  0  3.887141  0
C  C65  1  0.85334885  0.44595092  0.23213584  1  0  -0.243958  0  3.650176  0  0  -0.255147  0  3.898854  0  0  -0.269299  0  3.914512  0  0  -0.099566  -0.245248  0  3.887184  0
C  C66  1  0.29992730  0.52527562  0.86271848  1  0  -0.001006  0  3.688014  0  0  -0.024036  0  3.928798  0  0  -0.015536  0  3.943313  0  0  -0.055563  -0.029331  0  3.918162  0
C  C67  1  0.79992363  0.47472910  0.13728458  1  0  -0.001108  0  3.688126  0  0  -0.024097  0  3.928911  0  0  -0.0156  0  3.94343  0  0  -0.055556  -0.029395  0  3.918273  0
C  C68  1  0.34397986  0.58390864  0.96194475  1  0  0.046924  0  3.846044  0  0  0.068936  0  4.075263  0  0  0.065439  0  4.099938  0  0  -0.017934  0.071175  0  4.0585  0
C  C69  1  0.84397761  0.41609868  0.03805847  1  0  0.046938  0  3.846041  0  0  0.068864  0  4.075377  0  0  0.065368  0  4.100048  0  0  -0.017995  0.071102  0  4.058615  0
C  C70  1  0.43755094  0.69022365  0.97107661  1  0  -0.10515  0  3.729529  0  0  -0.122214  0  3.968803  0  0  -0.123603  0  3.989929  0  0  -0.085209  -0.121086  0  3.954445  0
C  C71  1  0.93755276  0.30978445  0.02892588  1  0  -0.105207  0  3.729667  0  0  -0.122251  0  3.968955  0  0  -0.123628  0  3.990083  0  0  -0.085171  -0.121124  0  3.9546  0
C  C72  1  0.47186119  0.74435018  0.06808863  1  0  -0.07558  0  3.778317  0  0  -0.086556  0  4.024218  0  0  -0.089773  0  4.046814  0  0  -0.090063  -0.084387  0  4.00883  0
C  C73  1  0.97186062  0.25565523  0.93191370  1  0  -0.075584  0  3.778512  0  0  -0.086526  0  4.024398  0  0  -0.089742  0  4.046991  0  0  -0.090088  -0.084358  0  4.009007  0
C  C74  1  0.41310018  0.69404621  0.15783224  1  0  -0.040827  0  3.715918  0  0  -0.058059  0  3.964713  0  0  -0.057923  0  3.983315  0  0  -0.078546  -0.057858  0  3.951563  0
C  C75  1  0.91309695  0.30595925  0.84217242  1  0  -0.040959  0  3.71596  0  0  -0.058209  0  3.96478  0  0  -0.058072  0  3.98339  0  0  -0.078607  -0.058008  0  3.951628  0
C  C76  1  0.31934041  0.58915089  0.15020941  1  0  -0.06629  0  3.74725  0  0  -0.079508  0  3.998314  0  0  -0.082513  0  4.020113  0  0  -0.087796  -0.07738  0  3.983141  0
C  C77  1  0.81933819  0.41085381  0.84979365  1  0  -0.066251  0  3.747285  0  0  -0.079471  0  3.998331  0  0  -0.082484  0  4.020129  0  0  -0.087746  -0.077343  0  3.983157  0
C  C78  1  0.28486566  0.53478435  0.05313919  1  0  -0.109427  0  3.725805  0  0  -0.127738  0  3.968687  0  0  -0.130129  0  3.991698  0  0  -0.085318  -0.125946  0  3.953056  0
C  C79  1  0.78486077  0.46522131  0.94686006  1  0  -0.109367  0  3.72568  0  0  -0.12766  0  3.968588  0  0  -0.13006  0  3.991599  0  0  -0.085311  -0.125861  0  3.952958  0
C  C80  1  0.79212039  0.67111542  0.64150356  1  0  0.764075  0  3.872762  0  0  0.72447  0  4.155185  0  0  0.76256  0  4.146919  0  0  0.229822  0.698851  0  4.163739  0
C  C81  1  0.29211940  0.32888139  0.35849673  1  0  0.764223  0  3.872539  0  0  0.724613  0  4.154972  0  0  0.762705  0  4.146697  0  0  0.229853  0.698997  0  4.16353  0
C  C82  1  0.77733664  0.75045596  0.73517222  1  0  -0.272345  0  3.667896  0  0  -0.284384  0  3.918591  0  0  -0.298319  0  3.932174  0  0  -0.105388  -0.274681  0  3.907817  0
C  C83  1  0.27733838  0.24954352  0.26482744  1  0  -0.272381  0  3.667875  0  0  -0.284414  0  3.918581  0  0  -0.298349  0  3.932161  0  0  -0.10537  -0.274712  0  3.907812  0
C  C84  1  0.87901687  0.74025812  0.81867429  1  0  -0.006174  0  3.710844  0  0  -0.029807  0  3.957596  0  0  -0.021066  0  3.971916  0  0  -0.059245  -0.035225  0  3.947005  0
C  C85  1  0.37901732  0.25973857  0.18132754  1  0  -0.005996  0  3.710815  0  0  -0.029629  0  3.957589  0  0  -0.020885  0  3.971908  0  0  -0.059194  -0.035045  0  3.947001  0
C  C86  1  0.87285215  0.81249224  0.91532156  1  0  0.05412  0  3.829632  0  0  0.074502  0  4.061638  0  0  0.070848  0  4.087128  0  0  -0.015629  0.076843  0  4.04431  0
C  C87  1  0.37285531  0.18750709  0.08468197  1  0  0.054045  0  3.829589  0  0  0.074384  0  4.061683  0  0  0.070722  0  4.087181  0  0  -0.015617  0.076722  0  4.04436  0
C  C88  1  0.78759511  0.92204375  0.92460075  1  0  -0.102493  0  3.71636  0  0  -0.120867  0  3.956562  0  0  -0.122444  0  3.978011  0  0  -0.083728  -0.119574  0  3.941923  0
C  C89  1  0.28759088  0.07795659  0.07540051  1  0  -0.102462  0  3.716401  0  0  -0.120841  0  3.956645  0  0  -0.122414  0  3.978094  0  0  -0.083757  -0.119547  0  3.942007  0
C  C90  1  0.78319116  0.98713664  0.01905208  1  0  -0.070124  0  3.776701  0  0  -0.080583  0  4.022679  0  0  -0.083008  0  4.044013  0  0  -0.089551  -0.078955  0  4.008143  0
C  C91  1  0.28318202  0.01286459  0.98094923  1  0  -0.070055  0  3.776798  0  0  -0.080492  0  4.022771  0  0  -0.082908  0  4.044092  0  0  -0.089531  -0.078863  0  4.008234  0
C  C92  1  0.86298728  0.94429435  0.10621679  1  0  -0.062947  0  3.749546  0  0  -0.076851  0  3.994267  0  0  -0.077616  0  4.015158  0  0  -0.085792  -0.076087  0  3.980023  0
C  C93  1  0.36297548  0.05570239  0.89378271  1  0  -0.063093  0  3.749773  0  0  -0.076947  0  3.994495  0  0  -0.077714  0  4.01539  0  0  -0.08587  -0.07618  0  3.980248  0
C  C94  1  0.94831316  0.83598070  0.09834711  1  0  -0.067758  0  3.76077  0  0  -0.077883  0  4.005007  0  0  -0.080597  0  4.026402  0  0  -0.089519  -0.076052  0  3.990426  0
C  C95  1  0.44830621  0.16401502  0.90165543  1  0  -0.067596  0  3.760856  0  0  -0.077642  0  4.00507  0  0  -0.080374  0  4.026456  0  0  -0.089423  -0.075813  0  3.990491  0
C  C96  1  0.95450338  0.77125491  0.00348901  1  0  -0.101896  0  3.715299  0  0  -0.120321  0  3.957815  0  0  -0.121993  0  3.979807  0  0  -0.083318  -0.118998  0  3.942929  0
C  C97  1  0.45449755  0.22873907  0.99651035  1  0  -0.101852  0  3.71525  0  0  -0.120257  0  3.957718  0  0  -0.121911  0  3.979722  0  0  -0.083279  -0.118943  0  3.942835  0
O  O98  1  0.60363954  0.40731526  0.58639129  1  0  -0.795569  0  2.078029  0  0  -0.741549  0  2.338332  0  0  -0.781767  0  2.325806  0  0  -0.432098  -0.722195  0  2.345454  0
O  O99  1  0.10364048  0.59268006  0.41360271  1  0  -0.795586  0  2.078252  0  0  -0.741572  0  2.338431  0  0  -0.781779  0  2.325907  0  0  -0.432086  -0.722214  0  2.34556  0
O  O100  1  0.86232630  0.32142672  0.58655654  1  0  -0.74019  0  1.998616  0  0  -0.689766  0  2.258696  0  0  -0.727039  0  2.242077  0  0  -0.410516  -0.671801  0  2.267567  0
O  O101  1  0.36232066  0.67857357  0.41344085  1  0  -0.740199  0  1.998666  0  0  -0.689767  0  2.258692  0  0  -0.727046  0  2.242077  0  0  -0.410513  -0.671811  0  2.267562  0
O  O102  1  0.30583309  0.54261758  0.58532411  1  0  -0.873323  0  2.12921  0  0  -0.814574  0  2.40145  0  0  -0.861907  0  2.387686  0  0  -0.46486  -0.795573  0  2.410716  0
O  O103  1  0.80582565  0.45738715  0.41467818  1  0  -0.873311  0  2.129271  0  0  -0.814496  0  2.401519  0  0  -0.861805  0  2.387703  0  0  -0.46486  -0.79549  0  2.410788  0
O  O104  1  0.17221929  0.41249290  0.67741371  1  0  -0.683267  0  1.96545  0  0  -0.635171  0  2.208891  0  0  -0.66882  0  2.198298  0  0  -0.375084  -0.618089  0  2.215406  0
O  O105  1  0.67222302  0.58751550  0.32258956  1  0  -0.683182  0  1.965653  0  0  -0.635022  0  2.209142  0  0  -0.668673  0  2.198549  0  0  -0.374974  -0.61794  0  2.215656  0
O  O106  1  0.67057179  0.67349816  0.57510903  1  0  -0.771569  0  2.008927  0  0  -0.721073  0  2.272207  0  0  -0.760252  0  2.253978  0  0  -0.424604  -0.703102  0  2.282482  0
O  O107  1  0.17057464  0.32649700  0.42489348  1  0  -0.771616  0  2.008838  0  0  -0.721166  0  2.272162  0  0  -0.760332  0  2.253922  0  0  -0.424614  -0.703188  0  2.282444  0
O  O108  1  0.92145934  0.60351813  0.62976203  1  0  -0.76863  0  2.04776  0  0  -0.720785  0  2.313733  0  0  -0.759839  0  2.297865  0  0  -0.413688  -0.702707  0  2.322426  0
O  O109  1  0.42145691  0.39648207  0.37023769  1  0  -0.768716  0  2.047723  0  0  -0.72085  0  2.31369  0  0  -0.759913  0  2.297813  0  0  -0.413718  -0.702781  0  2.322384  0
