# generated using pymatgen
data_MnH8(C2N)8
_symmetry_space_group_name_H-M   'P 1'
_cell_length_a   9.86046385
_cell_length_b   10.84025065
_cell_length_c   14.45879547
_cell_angle_alpha   89.96837234
_cell_angle_beta   98.30860600
_cell_angle_gamma   90.00623889
_symmetry_Int_Tables_number   1
_chemical_formula_structural   MnH8(C2N)8
_chemical_formula_sum   'Mn4 H32 C64 N32'
_cell_volume   1529.27755061
_cell_formula_units_Z   4
loop_
 _symmetry_equiv_pos_site_id
 _symmetry_equiv_pos_as_xyz
  1  'x, y, z'
loop_
 _atom_site_type_symbol
 _atom_site_label
 _atom_site_symmetry_multiplicity
 _atom_site_fract_x
 _atom_site_fract_y
 _atom_site_fract_z
 _atom_site_occupancy
 _atom_site_hle17_ddec_charge
 _atom_site_hle17_ddec_spin_density
 _atom_site_hle17_ddec_sum_bond_order
 _atom_site_hle17_magmom
 _atom_site_hse06_10hf_ddec_charge
 _atom_site_hse06_10hf_ddec_spin_density
 _atom_site_hse06_10hf_ddec_sum_bond_order
 _atom_site_hse06_10hf_magmom
 _atom_site_hse06_ddec_charge
 _atom_site_hse06_ddec_spin_density
 _atom_site_hse06_ddec_sum_bond_order
 _atom_site_hse06_magmom
 _atom_site_pbe_cm5_charge
 _atom_site_pbe_ddec_charge
 _atom_site_pbe_ddec_spin_density
 _atom_site_pbe_ddec_sum_bond_order
 _atom_site_pbe_magmom
Mn  Mn0  1  0.15158074  0.41277879  0.23660527  1  1.094803  4.757393  2.051737  4.636  0.933767  4.654453  2.593182  4.463  0.984559  4.714317  2.524672  4.542  0.668288  0.895715  4.591896  2.643398  4.383
Mn  Mn1  1  0.84870310  0.91262574  0.26299662  1  1.094837  4.759605  2.05138  4.636  0.933737  4.656584  2.593076  4.462  0.984672  4.716811  2.524341  4.541  0.668696  0.895559  4.592836  2.643521  4.382
Mn  Mn2  1  0.84871390  0.58732364  0.76311117  1  1.09458  -4.777059  2.053943  -4.635  0.933675  -4.667503  2.59608  -4.46  0.98457  -4.735806  2.527142  -4.54  0.669063  0.895347  -4.594867  2.647067  -4.378
Mn  Mn3  1  0.15155792  0.08726728  0.73674165  1  1.094854  4.759215  2.049069  4.637  0.933811  4.657624  2.589683  4.465  0.984561  4.716539  2.521464  4.543  0.667869  0.895933  4.596997  2.63939  4.387
H  H4  1  0.12120699  0.71078282  0.25793460  1  0.086328  -0.000315  0.958107  0.0  0.092247  8.3e-05  1.026039  0.0  0.093846  -0.000135  1.025078  0.0  0.120313  0.091069  0.00034  1.026967  0.001
H  H5  1  0.87877123  0.21072771  0.24212345  1  0.086274  -0.00026  0.958089  0.0  0.092175  0.000184  1.02602  0.0  0.093793  -6.2e-05  1.025028  0.0  0.120232  0.090993  0.000472  1.026939  0.001
H  H6  1  0.87882184  0.28924843  0.74214118  1  0.086184  -0.000473  0.958072  0.0  0.092053  -0.000857  1.026044  0.0  0.09366  -0.000689  1.025067  0.0  0.12022  0.090874  -0.001033  1.026963  -0.001
H  H7  1  0.12123340  0.78922051  0.75796897  1  0.08632  0.000505  0.957915  0.0  0.092211  0.000953  1.025908  0.0  0.093813  0.000758  1.024951  0.0  0.120291  0.091026  0.001169  1.026845  0.001
H  H8  1  0.26752635  0.88893005  0.32124743  1  0.103746  0.000188  0.962117  0.0  0.11553  0.000255  1.018639  0.0  0.117866  0.000178  1.019052  0.0  0.107635  0.113549  0.00041  1.019089  0.0
H  H9  1  0.73249819  0.38890345  0.17875624  1  0.103706  0.000152  0.961683  0.0  0.115409  0.000162  1.018282  0.0  0.117735  0.000111  1.01871  0.0  0.107552  0.113412  0.000298  1.018773  0.0
H  H10  1  0.73254321  0.11112243  0.67880944  1  0.103589  -0.000323  0.962393  0.0  0.115349  -0.000349  1.018923  0.0  0.117672  -0.000303  1.019362  0.0  0.107413  0.113358  -0.000474  1.019386  0.0
H  H11  1  0.26756212  0.61103187  0.82130031  1  0.104027  0.000353  0.961667  0.0  0.115659  0.000439  1.018303  0.0  0.117989  0.000367  1.018729  0.0  0.107706  0.113669  0.000585  1.018772  0.0
H  H12  1  0.50714738  0.84770459  0.40148978  1  0.103108  -0.000241  0.948293  0.0  0.115264  -0.00014  1.006638  0.0  0.117725  -0.000176  1.005129  0.0  0.108028  0.11345  -6.3e-05  1.00795  0.0
H  H13  1  0.49287053  0.34773046  0.09847979  1  0.103127  -0.000233  0.948143  0.0  0.115273  -0.000155  1.006488  0.0  0.117719  -0.000186  1.005007  0.0  0.108043  0.113452  -9.1e-05  1.007828  0.0
H  H14  1  0.49294018  0.15232669  0.59852002  1  0.103044  -8.4e-05  0.948494  0.0  0.11525  -0.000129  1.006783  0.0  0.117709  -0.000151  1.00528  0.0  0.108108  0.113432  -8.5e-05  1.008104  0.0
H  H15  1  0.50719735  0.65221594  0.90153403  1  0.10308  8.6e-05  0.948197  0.0  0.115132  0.000135  1.006654  0.0  0.117584  0.000149  1.005157  0.0  0.107974  0.113319  0.000104  1.007979  0.0
H  H16  1  0.68962213  0.69131347  0.45718798  1  0.100174  5.5e-05  0.955517  0.0  0.110528  0.000105  1.017751  0.0  0.112281  6.1e-05  1.018348  0.0  0.10523  0.109378  0.000164  1.017295  0.0
H  H17  1  0.31035795  0.19135203  0.04283687  1  0.09999  -5.8e-05  0.955877  0.0  0.110333  -7.6e-05  1.01816  0.0  0.112095  -9.7e-05  1.018753  0.0  0.105194  0.109167  -4.5e-05  1.017727  0.0
H  H18  1  0.31040531  0.30873624  0.54286758  1  0.100516  -0.000189  0.955564  0.0  0.110795  -0.000208  1.017814  0.0  0.112555  -0.000198  1.018403  0.0  0.105351  0.109631  -0.000216  1.017376  0.0
H  H19  1  0.68965680  0.80859620  0.95722904  1  0.100115  0.000143  0.955995  0.0  0.110667  0.000219  1.018073  0.0  0.112425  0.000186  1.018674  0.0  0.105233  0.109501  0.00026  1.017639  0.0
H  H20  1  0.76711200  0.47294437  0.46703091  1  0.103989  0.00016  0.963705  0.0  0.111137  0.000277  1.030177  0.0  0.113694  0.000224  1.029958  0.0  0.103593  0.109186  0.000333  1.030434  0.0
H  H21  1  0.23288370  0.97300423  0.03303966  1  0.103884  -7e-06  0.963143  0.0  0.11109  9e-06  1.029627  0.0  0.113651  -1.7e-05  1.029388  0.0  0.103635  0.109146  4.2e-05  1.029886  0.0
H  H22  1  0.23292318  0.52708780  0.53303937  1  0.103935  -0.000131  0.963305  0.0  0.111121  -0.000143  1.029747  0.0  0.113672  -0.000122  1.029538  0.0  0.103706  0.109184  -0.000165  1.029983  0.0
H  H23  1  0.76712780  0.02696152  0.96703141  1  0.104079  4.6e-05  0.963459  0.0  0.111218  0.000109  1.029982  0.0  0.113772  6.9e-05  1.029761  0.0  0.103566  0.109282  0.000158  1.030212  0.0
H  H24  1  0.71689055  0.24817608  0.43085252  1  0.103188  -0.000137  0.937101  0.0  0.112223  -1.4e-05  0.99959  0.0  0.114762  -4.1e-05  0.99854  0.0  0.109179  0.110615  6.9e-05  0.999916  0.0
H  H25  1  0.28313596  0.74816851  0.06922242  1  0.103005  -0.000176  0.937263  0.0  0.112075  -0.000141  0.999709  0.0  0.114611  -0.000133  0.998671  0.0  0.10914  0.110472  -9.5e-05  1.000032  0.0
H  H26  1  0.28317427  0.75186994  0.56919206  1  0.102999  6.4e-05  0.937191  0.0  0.112101  3.2e-05  0.999631  0.0  0.11464  2.3e-05  0.998582  0.0  0.10913  0.110487  1e-06  0.999981  0.0
H  H27  1  0.71689614  0.25177420  0.93081640  1  0.103025  -2.7e-05  0.937278  0.0  0.112077  9.5e-05  0.99973  0.0  0.114609  7.1e-05  0.998688  0.0  0.109151  0.110482  0.000166  1.000022  0.0
H  H28  1  0.54980291  0.08913731  0.36197148  1  0.111536  -0.000111  0.974212  0.0  0.120529  -2.9e-05  1.034875  0.0  0.123412  -0.000141  1.034388  0.0  0.104829  0.118506  0.000123  1.035369  0.0
H  H29  1  0.45025858  0.58910394  0.13806986  1  0.111379  -0.000151  0.974632  0.0  0.120377  -0.00011  1.035353  0.0  0.123254  -0.000202  1.034869  0.0  0.104764  0.118323  1.7e-05  1.035905  0.0
H  H30  1  0.45030540  0.91089765  0.63806420  1  0.111055  -0.000583  0.974408  0.0  0.120224  -0.000552  1.034898  0.0  0.123102  -0.000552  1.034417  0.0  0.104696  0.118157  -0.00053  1.035451  0.0
H  H31  1  0.54980351  0.41084523  0.86196405  1  0.111653  0.000619  0.974602  0.0  0.120611  0.000632  1.035276  0.0  0.123493  0.000611  1.034789  0.0  0.104822  0.118573  0.000636  1.035826  0.0
H  H32  1  0.31648498  0.15758247  0.28303266  1  0.080712  0.000271  0.929511  0.0  0.089591  0.000881  0.993118  0.001  0.091729  0.000611  0.991095  0.0  0.119367  0.087801  0.001216  0.995192  0.001
H  H33  1  0.68366029  0.65749422  0.21689631  1  0.080294  0.000222  0.929725  0.0  0.089577  0.000775  0.992976  0.001  0.091636  0.000529  0.991027  0.0  0.119231  0.08782  0.001091  0.995055  0.001
H  H34  1  0.68363256  0.84242944  0.71697225  1  0.080491  -0.000194  0.92984  0.0  0.089505  -0.000718  0.993408  -0.001  0.091678  -0.000491  0.991283  0.0  0.119349  0.087698  -0.001022  0.995541  -0.001
H  H35  1  0.31639770  0.34246601  0.78313714  1  0.080362  0.000237  0.929782  0.0  0.089573  0.000816  0.993074  0.001  0.091679  0.000567  0.991072  0.0  0.119238  0.087758  0.001146  0.995197  0.001
C  C36  1  0.22516135  0.69609650  0.29360957  1  0.150783  0.002037  3.675693  0.002  0.120612  0.004386  3.928535  0.004  0.128425  0.00352  3.946107  0.003  0.064462  0.115188  0.005382  3.916454  0.004
C  C37  1  0.77483489  0.19605033  0.20642620  1  0.15122  0.001947  3.675801  0.002  0.120993  0.004445  3.928701  0.004  0.128832  0.003568  3.946238  0.003  0.064676  0.115532  0.005422  3.91664  0.004
C  C38  1  0.77488210  0.30394860  0.70645957  1  0.151205  -0.002163  3.675528  -0.002  0.121104  -0.004536  3.928444  -0.004  0.128929  -0.003736  3.946003  -0.003  0.06479  0.115654  -0.005345  3.916334  -0.004
C  C39  1  0.22518779  0.80388591  0.79364890  1  0.151256  0.002192  3.675672  0.002  0.12099  0.004664  3.928587  0.004  0.12882  0.003814  3.946135  0.003  0.064567  0.115542  0.005592  3.916556  0.004
C  C40  1  0.30808455  0.79562592  0.32952686  1  -0.118688  -0.000393  3.733699  0.0  -0.132259  -0.000139  3.986302  0.0  -0.139458  -0.000491  4.008346  0.0  -0.083574  -0.127518  0.000211  3.972006  0.0
C  C41  1  0.69192742  0.29560304  0.17047756  1  -0.118585  -0.000287  3.733754  0.0  -0.13202  -0.000107  3.986291  0.0  -0.139222  -0.000468  4.008341  0.0  -0.083544  -0.127279  0.000294  3.972039  0.0
C  C42  1  0.69197675  0.20442563  0.67053115  1  -0.119023  0.000369  3.734281  0.0  -0.13257  8.2e-05  3.986833  0.0  -0.139772  0.000416  4.00888  0.0  -0.083703  -0.127813  -0.000187  3.972544  0.0
C  C43  1  0.30812051  0.70433413  0.82958035  1  -0.119415  -0.000333  3.734351  0.0  -0.132761  -1.5e-05  3.98695  0.0  -0.139962  -0.000387  4.008985  0.0  -0.08391  -0.128021  0.000315  3.972691  0.0
C  C44  1  0.43930432  0.77281434  0.37405741  1  -0.042398  0.0017  3.683186  0.002  -0.068056  0.003054  3.932891  0.002  -0.065437  0.002585  3.951171  0.002  -0.063548  -0.069729  0.003772  3.920796  0.003
C  C45  1  0.56070546  0.27281881  0.12594173  1  -0.042644  0.001621  3.683373  0.001  -0.068176  0.003074  3.93308  0.002  -0.065557  0.002616  3.951362  0.002  -0.063511  -0.069882  0.003752  3.921022  0.003
C  C46  1  0.56075763  0.22722616  0.62598062  1  -0.042214  -0.001985  3.683353  -0.002  -0.067751  -0.0033  3.933143  -0.003  -0.065124  -0.002863  3.951411  -0.002  -0.063483  -0.069455  -0.003793  3.921074  -0.003
C  C47  1  0.43934511  0.72712666  0.87409849  1  -0.042054  0.001976  3.683457  0.002  -0.06759  0.00341  3.933027  0.003  -0.064966  0.002943  3.951312  0.002  -0.063311  -0.069273  0.00405  3.920956  0.003
C  C48  1  0.48811768  0.65009261  0.38199675  1  0.020046  -0.000119  3.799423  0.0  0.037843  0.000216  4.02968  0.0  0.035076  -8.4e-05  4.054198  0.0  -0.001817  0.038953  0.000513  4.013842  0.0
C  C49  1  0.51189291  0.15009693  0.11802174  1  0.020288  -8.8e-05  3.798995  0.0  0.037726  0.00021  4.029532  0.0  0.034969  -9.3e-05  4.05402  0.0  -0.001855  0.038849  0.000511  4.013709  0.0
C  C50  1  0.51192947  0.34993957  0.61805344  1  0.020441  0.000207  3.799065  0.0  0.037748  -6.5e-05  4.02981  0.0  0.034981  0.000182  4.054314  0.0  -0.002021  0.038879  -0.000359  4.013986  0.0
C  C51  1  0.48814295  0.84985223  0.88202788  1  0.019491  -0.000181  3.800102  0.0  0.037328  7.5e-05  4.030464  0.0  0.034562  -0.000184  4.054999  0.0  -0.002021  0.038439  0.000374  4.014638  0.0
C  C52  1  0.62240927  0.61760603  0.42681479  1  -0.092753  -0.000317  3.734018  0.0  -0.116665  -0.000183  3.991272  0.0  -0.119914  -0.000288  4.015383  0.0  -0.082836  -0.114333  -4e-06  3.974824  0.0
C  C53  1  0.37758502  0.11763390  0.07321745  1  -0.09239  -0.000462  3.733356  0.0  -0.116261  -0.000357  3.990702  0.0  -0.119513  -0.000469  4.014782  0.0  -0.082709  -0.113942  -0.000183  3.974331  0.0
C  C54  1  0.37762956  0.38243445  0.57323861  1  -0.093515  -1.3e-05  3.734109  0.0  -0.117298  4.3e-05  3.991483  0.0  -0.120549  8.3e-05  4.015576  0.0  -0.083028  -0.114971  5.7e-05  3.97506  0.0
C  C55  1  0.62243733  0.88231526  0.92683617  1  -0.092182  -0.000166  3.734221  0.0  -0.116311  -0.000137  3.991366  0.0  -0.119577  -0.000207  4.015491  0.0  -0.082593  -0.113978  -8e-05  3.974953  0.0
C  C56  1  0.66521019  0.49751871  0.43199416  1  -0.098066  0.000223  3.724326  0.0  -0.119604  0.000216  3.978111  0.0  -0.122668  0.000181  4.000867  0.0  -0.084049  -0.116468  0.000249  3.961961  0.0
C  C57  1  0.33478856  0.99754500  0.06805615  1  -0.097753  8.5e-05  3.723787  0.0  -0.119322  -1.8e-05  3.977516  0.0  -0.122365  -5.2e-05  4.000263  0.0  -0.084037  -0.116231  5e-05  3.961451  0.0
C  C58  1  0.33482946  0.50251992  0.56806555  1  -0.09768  2.6e-05  3.724449  0.0  -0.119215  7.4e-05  3.978125  0.0  -0.12227  4.5e-05  4.000888  0.0  -0.084013  -0.116104  6.3e-05  3.961986  0.0
C  C59  1  0.66522856  0.00240600  0.93200033  1  -0.098039  -6.1e-05  3.724014  0.0  -0.119496  -0.000144  3.977706  0.0  -0.122552  -0.000149  4.000463  0.0  -0.083871  -0.116376  -7.2e-05  3.961585  0.0
C  C60  1  0.57664579  0.40028441  0.39284715  1  0.021818  -0.000441  3.795482  0.0  0.037622  2.3e-05  4.026482  0.0  0.035041  -0.000319  4.050962  0.0  -0.002932  0.039368  0.000351  4.009569  0.0
C  C61  1  0.42338116  0.90027366  0.10718181  1  0.021493  -0.000467  3.795571  0.0  0.037345  -1.6e-05  4.02666  0.0  0.034763  -0.000348  4.051137  0.0  -0.003026  0.039073  0.000291  4.009812  0.0
C  C62  1  0.42340550  0.59975516  0.60720212  1  0.021602  0.000374  3.795178  0.0  0.037452  1.6e-05  4.026181  0.0  0.034872  0.000323  4.050656  0.0  -0.00289  0.039197  -0.000204  4.009298  0.0
C  C63  1  0.57664448  0.09967089  0.89286596  1  0.021519  -0.000418  3.795657  0.0  0.037423  -9e-06  4.026716  0.0  0.034845  -0.000324  4.051178  0.0  -0.00317  0.039124  0.000227  4.009872  0.0
C  C64  1  0.61457470  0.27439921  0.39746542  1  -0.042992  0.002479  3.681176  0.002  -0.066783  0.003765  3.931334  0.003  -0.064607  0.003303  3.950026  0.003  -0.061905  -0.067898  0.004476  3.917825  0.004
C  C65  1  0.38546355  0.77438791  0.10257572  1  -0.042861  0.002428  3.681283  0.002  -0.066608  0.003711  3.931391  0.003  -0.064436  0.003253  3.950101  0.003  -0.061868  -0.067735  0.004415  3.917927  0.003
C  C66  1  0.38548908  0.72564497  0.60257973  1  -0.043046  -0.002373  3.681023  -0.002  -0.066864  -0.003709  3.931229  -0.003  -0.0647  -0.003298  3.949943  -0.003  -0.061937  -0.067984  -0.004307  3.917745  -0.003
C  C67  1  0.61456543  0.22555756  0.89746413  1  -0.04272  0.002451  3.681069  0.002  -0.066543  0.00385  3.931191  0.003  -0.064357  0.003379  3.949882  0.003  -0.061922  -0.067644  0.004516  3.917653  0.003
C  C68  1  0.52144894  0.18626083  0.35967250  1  -0.121883  -0.000906  3.733846  -0.001  -0.137486  -0.000416  3.993122  0.0  -0.144579  -0.000896  4.01467  -0.001  -0.086598  -0.13241  2.3e-05  3.978094  0.0
C  C69  1  0.47862491  0.68622226  0.14034504  1  -0.121498  -0.000905  3.733362  -0.001  -0.137165  -0.000419  3.992789  0.0  -0.144254  -0.000889  4.014314  -0.001  -0.086519  -0.132085  -6e-06  3.977863  0.0
C  C70  1  0.47863371  0.81377044  0.64036166  1  -0.120928  0.000621  3.733409  0.0  -0.136649  0.0004  3.99269  0.0  -0.143746  0.000731  4.01425  0.001  -0.086244  -0.131541  0.000136  3.977692  0.0
C  C71  1  0.52141546  0.31372691  0.85969264  1  -0.122231  -0.000534  3.73363  0.0  -0.137764  -0.000197  3.992996  0.0  -0.144869  -0.000574  4.014533  0.0  -0.086727  -0.132692  0.000144  3.978019  0.0
C  C72  1  0.39161254  0.22397782  0.31573851  1  0.151528  0.002964  3.701353  0.003  0.115459  0.005524  3.967735  0.004  0.124361  0.004616  3.983975  0.004  0.061463  0.109688  0.006529  3.956347  0.005
C  C73  1  0.60848551  0.72391406  0.18421488  1  0.151755  0.002986  3.70069  0.003  0.115376  0.005476  3.967265  0.004  0.124362  0.004571  3.983496  0.004  0.06146  0.109545  0.006427  3.95589  0.005
C  C74  1  0.60847680  0.77604607  0.68427980  1  0.151412  -0.002882  3.701335  -0.003  0.115175  -0.005304  3.967865  -0.004  0.124101  -0.004461  3.984108  -0.004  0.061213  0.109408  -0.006168  3.9564  -0.005
C  C75  1  0.39155613  0.27604064  0.81581533  1  0.152026  0.002882  3.701331  0.003  0.115633  0.00543  3.967858  0.004  0.124587  0.004525  3.984073  0.004  0.061541  0.109849  0.006395  3.95652  0.005
C  C76  1  0.44250056  0.42920828  0.34823878  1  0.132489  0.00154  3.746515  0.002  0.127225  0.003386  3.980806  0.003  0.131332  0.002751  4.003008  0.003  0.122615  0.124526  0.004189  3.96593  0.004
C  C77  1  0.55754547  0.92917319  0.15175334  1  0.132477  0.00156  3.746  0.002  0.126934  0.00339  3.980493  0.003  0.131035  0.002745  4.002704  0.003  0.122278  0.124245  0.004206  3.965623  0.004
C  C78  1  0.55755199  0.57082391  0.65180372  1  0.132522  -0.00146  3.745829  -0.002  0.127106  -0.003312  3.980111  -0.003  0.131204  -0.002684  4.002322  -0.003  0.122366  0.124413  -0.004046  3.96523  -0.004
C  C79  1  0.44248756  0.07077781  0.84828835  1  0.132793  0.001483  3.745617  0.002  0.127187  0.003324  3.980512  0.003  0.131301  0.002684  4.002706  0.003  0.122602  0.1245  0.004109  3.965672  0.004
C  C80  1  0.39735196  0.55574915  0.34317640  1  0.129164  0.001115  3.753943  0.001  0.123996  0.003066  3.98852  0.003  0.128285  0.002363  4.010172  0.002  0.123037  0.120588  0.003878  3.974355  0.003
C  C81  1  0.60267285  0.05572150  0.15684078  1  0.128439  0.001101  3.753729  0.001  0.123768  0.003113  3.987965  0.003  0.128072  0.002405  4.00959  0.002  0.122828  0.120324  0.003894  3.973855  0.003
C  C82  1  0.60269920  0.44428856  0.65687701  1  0.128626  -0.001178  3.754282  -0.001  0.123911  -0.003051  3.988601  -0.003  0.128211  -0.002386  4.010237  -0.002  0.123095  0.120469  -0.003727  3.97446  -0.003
C  C83  1  0.39736404  0.94422674  0.84320895  1  0.129498  0.001172  3.753563  0.001  0.124258  0.003129  3.988455  0.003  0.128549  0.002429  4.010094  0.002  0.123138  0.120841  0.003866  3.974319  0.003
C  C84  1  0.02470663  0.35234606  0.43169758  1  0.508603  0.018585  3.978053  0.019  0.469333  0.025155  4.267722  0.025  0.49519  0.021781  4.279597  0.022  0.313914  0.451624  0.028528  4.258746  0.027
C  C85  1  0.97514474  0.85208976  0.06811494  1  0.508485  0.017739  3.977908  0.019  0.468709  0.022071  4.267893  0.023  0.494716  0.020148  4.279736  0.021  0.313541  0.450802  0.02383  4.258971  0.024
C  C86  1  0.97513383  0.64795093  0.56819490  1  0.508854  -0.017843  3.977927  -0.019  0.469013  -0.02194  4.267822  -0.023  0.495009  -0.020149  4.279666  -0.021  0.313427  0.451082  -0.023542  4.258921  -0.024
C  C87  1  0.02460901  0.14765096  0.93178719  1  0.508723  0.018589  3.97848  0.019  0.469437  0.025121  4.268295  0.025  0.495299  0.021766  4.280132  0.022  0.313911  0.451711  0.028476  4.259349  0.027
C  C88  1  0.04293316  0.29306732  0.58694626  1  0.512431  0.025152  3.969808  0.025  0.473463  0.030922  4.253946  0.029  0.499787  0.027291  4.26649  0.026  0.317295  0.454777  0.034799  4.246251  0.032
C  C89  1  0.95650941  0.79269028  0.91284245  1  0.511367  -0.024595  3.970208  -0.024  0.471975  -0.02872  4.254514  -0.028  0.498429  -0.02602  4.267095  -0.025  0.316758  0.453104  -0.031725  4.246726  -0.03
C  C90  1  0.95671006  0.70730348  0.41287679  1  0.511674  0.024349  3.969547  0.024  0.472212  0.028657  4.25376  0.028  0.498667  0.025821  4.266316  0.025  0.316955  0.453323  0.031863  4.246003  0.031
C  C91  1  0.04299945  0.20697942  0.08696896  1  0.51277  0.025041  3.968925  0.025  0.473939  0.030811  4.253025  0.029  0.500236  0.027181  4.265561  0.026  0.317442  0.455292  0.034669  4.245207  0.032
C  C92  1  0.23561070  0.44459624  0.03213210  1  0.48556  0.019292  3.980555  0.019  0.451139  0.023586  4.263326  0.023  0.476773  0.020837  4.273958  0.02  0.305644  0.433044  0.026577  4.256482  0.025
C  C93  1  0.76426175  0.94463040  0.46798471  1  0.484854  0.020674  3.980804  0.02  0.450797  0.026583  4.263404  0.025  0.476276  0.022692  4.274118  0.021  0.304998  0.432897  0.030683  4.256503  0.028
C  C94  1  0.76441611  0.55542305  0.96784868  1  0.4851  -0.018882  3.980972  -0.018  0.450945  -0.023074  4.263776  -0.022  0.476486  -0.020469  4.274428  -0.02  0.305258  0.432936  -0.025921  4.256896  -0.025
C  C95  1  0.23576485  0.05536490  0.53200228  1  0.485657  0.021004  3.980105  0.02  0.451473  0.026844  4.262745  0.025  0.477016  0.022949  4.27341  0.022  0.305344  0.433546  0.03103  4.255886  0.028
C  C96  1  0.10413526  0.45324569  0.88677215  1  0.507665  -0.023918  3.978836  -0.024  0.470342  -0.028237  4.260568  -0.028  0.496228  -0.025787  4.27289  -0.025  0.317237  0.45217  -0.030829  4.252336  -0.03
C  C97  1  0.89571322  0.95327931  0.61337426  1  0.50752  0.026087  3.980046  0.026  0.470301  0.031971  4.261766  0.031  0.496115  0.028138  4.274104  0.027  0.31714  0.452213  0.036139  4.253675  0.034
C  C98  1  0.89591306  0.54697471  0.11321103  1  0.506778  0.023623  3.97989  0.024  0.469557  0.028027  4.261688  0.028  0.495403  0.025465  4.274015  0.025  0.316752  0.451396  0.030822  4.253529  0.03
C  C99  1  0.10428777  0.04653979  0.38664099  1  0.507608  0.025964  3.980788  0.026  0.470405  0.03188  4.262442  0.031  0.496223  0.028025  4.274821  0.027  0.317154  0.452343  0.036089  4.254245  0.034
N  N100  1  0.26813699  0.57971963  0.30076990  1  -0.341269  0.029837  3.239641  0.02  -0.278333  0.034776  3.509467  0.022  -0.297085  0.030725  3.525271  0.018  -0.305781  -0.263759  0.038602  3.49791  0.025
N  N101  1  0.73187636  0.07966135  0.19926160  1  -0.340921  0.02986  3.239771  0.02  -0.27808  0.034712  3.509554  0.021  -0.296831  0.030671  3.525289  0.018  -0.305658  -0.263509  0.038465  3.498103  0.025
N  N102  1  0.73191217  0.42033008  0.69928190  1  -0.340544  -0.02985  3.239672  -0.02  -0.277735  -0.034707  3.509383  -0.021  -0.2965  -0.03071  3.52513  -0.018  -0.305662  -0.263125  -0.038281  3.49794  -0.025
N  N103  1  0.26815117  0.92027305  0.80079122  1  -0.341708  0.029797  3.239478  0.02  -0.278734  0.034717  3.50951  0.021  -0.297472  0.030652  3.525284  0.018  -0.305877  -0.264199  0.038407  3.497978  0.025
N  N104  1  0.35313258  0.34161270  0.30992008  1  -0.345509  0.029004  3.247785  0.018  -0.281203  0.033597  3.521231  0.019  -0.300514  0.029732  3.537162  0.016  -0.309743  -0.267286  0.037204  3.509773  0.022
N  N105  1  0.64695656  0.84155328  0.19000755  1  -0.345076  0.029057  3.247421  0.018  -0.280866  0.033715  3.521367  0.019  -0.300191  0.02982  3.537268  0.016  -0.309245  -0.26692  0.037322  3.509912  0.022
N  N106  1  0.64694034  0.65841027  0.69009707  1  -0.34522  -0.02917  3.247323  -0.018  -0.280957  -0.033593  3.521022  -0.019  -0.300308  -0.029804  3.536946  -0.016  -0.309457  -0.266956  -0.036993  3.509526  -0.022
N  N107  1  0.35307909  0.15840235  0.81001714  1  -0.345467  0.02907  3.247169  0.018  -0.281189  0.033595  3.5212  0.019  -0.300479  0.029729  3.537066  0.016  -0.309543  -0.26732  0.037178  3.50975  0.022
N  N108  1  0.05404637  0.37017450  0.35657853  1  -0.586599  0.025194  2.830709  0.006  -0.543833  0.034247  3.130616  0.008  -0.566438  0.028937  3.130556  0.004  -0.367555  -0.527701  0.039395  3.130412  0.013
N  N109  1  0.94612377  0.87028447  0.14327442  1  -0.586697  0.018203  2.832158  -0.001  -0.543935  0.024597  3.132891  -0.001  -0.566582  0.020967  3.132657  -0.004  -0.368086  -0.527807  0.027747  3.132939  0.002
N  N110  1  0.94596450  0.62972490  0.64332368  1  -0.586772  -0.018173  2.832208  0.001  -0.544049  -0.024398  3.133083  0.001  -0.566704  -0.020909  3.132818  0.004  -0.368043  -0.527858  -0.027308  3.133214  -0.001
N  N111  1  0.05388098  0.12987782  0.85665748  1  -0.586452  0.025181  2.830088  0.006  -0.54371  0.034271  3.129943  0.009  -0.566287  0.028945  3.129908  0.004  -0.367431  -0.527616  0.039434  3.129687  0.013
N  N112  1  0.97821738  0.33733379  0.51008744  1  -0.463543  0.009304  3.303613  0.008  -0.408748  0.014806  3.565552  0.012  -0.433432  0.012105  3.570287  0.01  -0.302589  -0.39136  0.017631  3.562153  0.014
N  N113  1  0.02133738  0.83662658  0.98971639  1  -0.462944  -0.000403  3.304429  0.0  -0.407657  -0.000169  3.566324  0.0  -0.432473  -0.000383  3.570979  0.0  -0.301938  -0.390025  0.000101  3.562907  0.001
N  N114  1  0.02148397  0.66348069  0.48984450  1  -0.463178  0.000251  3.305438  0.0  -0.40771  0.000129  3.567223  0.0  -0.432515  0.000282  3.57186  0.0  -0.3019  -0.390091  -7.1e-05  3.563873  -0.001
N  N115  1  0.97822130  0.16258646  0.01020661  1  -0.464125  0.009215  3.303635  0.008  -0.409447  0.014568  3.565562  0.012  -0.434173  0.011891  3.570393  0.01  -0.302908  -0.392031  0.017384  3.56206  0.014
N  N116  1  0.09173193  0.25394135  0.66063283  1  -0.605168  0.016948  2.841934  -0.004  -0.560594  0.026744  3.138812  -0.001  -0.584449  0.021717  3.140744  -0.004  -0.373872  -0.543589  0.031618  3.138574  0.003
N  N117  1  0.90760354  0.75380884  0.83911293  1  -0.603511  -0.012574  2.843148  0.008  -0.558929  -0.019915  3.140631  0.007  -0.582839  -0.0162  3.142424  0.01  -0.373554  -0.541822  -0.023023  3.140589  0.005
N  N118  1  0.90785410  0.74610569  0.33908349  1  -0.603869  0.012261  2.841869  -0.008  -0.559282  0.019644  3.139278  -0.007  -0.583201  0.01582  3.141127  -0.01  -0.373753  -0.542187  0.022959  3.139181  -0.005
N  N119  1  0.09187961  0.24618747  0.16057305  1  -0.605178  0.01673  2.841871  -0.004  -0.560645  0.026519  3.138843  -0.001  -0.584468  0.02146  3.140713  -0.004  -0.37386  -0.543664  0.031398  3.138683  0.003
N  N120  1  0.26794973  0.45668491  0.11370699  1  -0.593114  0.009208  2.804846  -0.005  -0.558375  0.017118  3.087209  -0.001  -0.57813  0.013979  3.090273  -0.003  -0.364974  -0.544646  0.019981  3.085886  0.001
N  N121  1  0.73199608  0.95629674  0.38637307  1  -0.592735  0.014332  2.801987  0.001  -0.558209  0.025101  3.083804  0.007  -0.577933  0.020537  3.087022  0.003  -0.364345  -0.544525  0.029753  3.08233  0.01
N  N122  1  0.73201437  0.54311390  0.88630408  1  -0.593031  -0.009227  2.802891  0.005  -0.558476  -0.0171  3.084641  0.001  -0.578173  -0.014036  3.08778  0.003  -0.364734  -0.544792  -0.01978  3.083282  -0.001
N  N123  1  0.26800630  0.04384985  0.61363120  1  -0.593347  0.014259  2.803403  0.0  -0.558662  0.025167  3.085694  0.007  -0.578397  0.020541  3.088769  0.003  -0.364604  -0.544965  0.029774  3.084266  0.01
N  N124  1  0.21250004  0.42324231  0.94339016  1  -0.461475  -0.002053  3.322468  -0.002  -0.407862  -0.002747  3.585781  -0.002  -0.432305  -0.002344  3.590906  -0.002  -0.305859  -0.390743  -0.003085  3.582466  -0.003
N  N125  1  0.78708709  0.92380707  0.55684206  1  -0.462193  0.00827  3.321767  0.007  -0.408709  0.013868  3.584956  0.011  -0.433059  0.011389  3.590074  0.009  -0.306347  -0.391787  0.016373  3.581726  0.012
N  N126  1  0.78763585  0.57710263  0.05655727  1  -0.461407  0.001928  3.322529  0.002  -0.408069  0.002858  3.586053  0.003  -0.432442  0.00238  3.59117  0.002  -0.305959  -0.391029  0.003328  3.582771  0.003
N  N127  1  0.21298236  0.07596131  0.44312424  1  -0.461842  0.008267  3.322271  0.007  -0.408373  0.013794  3.585432  0.011  -0.432749  0.011312  3.590543  0.009  -0.306016  -0.391437  0.016454  3.582201  0.013
N  N128  1  0.01131425  0.47584397  0.82809803  1  -0.594429  -0.015192  2.870243  0.006  -0.548062  -0.021612  3.16709  0.006  -0.571433  -0.017673  3.168279  0.009  -0.374346  -0.531531  -0.02502  3.167008  0.004
N  N129  1  0.98862473  0.97549181  0.67205761  1  -0.594393  0.0185  2.869242  -0.003  -0.547991  0.027552  3.16559  0.0  -0.571343  0.022376  3.166979  -0.004  -0.373918  -0.531575  0.032584  3.165346  0.004
N  N130  1  0.98869186  0.52434505  0.17191772  1  -0.59412  0.014895  2.869739  -0.006  -0.547785  0.021381  3.166457  -0.006  -0.571105  0.017292  3.16775  -0.009  -0.374173  -0.531388  0.025063  3.166318  -0.003
N  N131  1  0.01132657  0.02432451  0.32799904  1  -0.59413  0.018238  2.869923  -0.003  -0.54772  0.027283  3.166448  0.0  -0.571126  0.022068  3.167802  -0.004  -0.373835  -0.531168  0.032251  3.166199  0.004
