# generated using pymatgen
data_CoH16C12N2O9
_symmetry_space_group_name_H-M   'P 1'
_cell_length_a   6.36036003
_cell_length_b   7.62681385
_cell_length_c   16.38072590
_cell_angle_alpha   105.52506669
_cell_angle_beta   90.71460893
_cell_angle_gamma   88.79112825
_symmetry_Int_Tables_number   1
_chemical_formula_structural   CoH16C12N2O9
_chemical_formula_sum   'Co2 H32 C24 N4 O18'
_cell_volume   765.43478694
_cell_formula_units_Z   2
loop_
 _symmetry_equiv_pos_site_id
 _symmetry_equiv_pos_as_xyz
  1  'x, y, z'
loop_
 _atom_site_type_symbol
 _atom_site_label
 _atom_site_symmetry_multiplicity
 _atom_site_fract_x
 _atom_site_fract_y
 _atom_site_fract_z
 _atom_site_occupancy
 _atom_site_hse06_10hf_ddec_charge
 _atom_site_hse06_10hf_ddec_spin_density
 _atom_site_hse06_10hf_ddec_sum_bond_order
 _atom_site_hse06_10hf_magmom
 _atom_site_hse06_ddec_charge
 _atom_site_hse06_ddec_spin_density
 _atom_site_hse06_ddec_sum_bond_order
 _atom_site_hse06_magmom
 _atom_site_pbe_cm5_charge
 _atom_site_pbe_ddec_charge
 _atom_site_pbe_ddec_spin_density
 _atom_site_pbe_ddec_sum_bond_order
 _atom_site_pbe_magmom
Co  Co0  1  0.99999487  0.49999920  0.00000037  1  1.10887  -2.853204  2.189302  -2.665  1.181581  -2.908175  2.122639  -2.735  0.63583  1.045309  -2.777295  2.241901  -2.579
Co  Co1  1  0.99999381  0.00000587  0.00000084  1  0.955627  -0.976175  2.463142  -0.942  1.05871  -0.954881  2.36323  -0.938  0.559567  0.88367  -1.020331  2.533978  -0.967
H  H2  1  0.45996844  0.20457598  0.78649233  1  0.117303  -0.000139  1.042317  0.0  0.120984  -8.5e-05  1.039227  0.0  0.114368  0.114651  -0.000207  1.044703  0.0
H  H3  1  0.45171517  0.28803610  0.20943911  1  0.119679  -5.4e-05  1.03229  0.0  0.123874  -5.3e-05  1.028699  0.0  0.11543  0.116329  -2.5e-05  1.035245  0.0
H  H4  1  0.54003353  0.79542546  0.21351165  1  0.117305  -0.000139  1.042397  0.0  0.120985  -8.4e-05  1.039306  0.0  0.114375  0.114663  -0.000207  1.04479  0.0
H  H5  1  0.54827558  0.71197076  0.79055574  1  0.119744  -5.5e-05  1.032273  0.0  0.123936  -5.4e-05  1.028689  0.0  0.115458  0.116399  -2.5e-05  1.035218  0.0
H  H6  1  0.20489271  0.21145298  0.74078928  1  0.117512  -3.6e-05  0.978546  0.0  0.119677  -1e-05  0.976278  0.0  0.11516  0.115956  -6.4e-05  0.980268  0.0
H  H7  1  0.19707897  0.29193302  0.25496803  1  0.118896  9.5e-05  0.980961  0.0  0.121766  5.2e-05  0.977914  0.0  0.11589  0.116617  0.000173  0.983393  0.0
H  H8  1  0.79509838  0.78853768  0.25921458  1  0.117544  -3.6e-05  0.978483  0.0  0.11971  -1e-05  0.976212  0.0  0.115169  0.116005  -6.4e-05  0.9802  0.0
H  H9  1  0.80292144  0.70806434  0.74503423  1  0.11894  9.5e-05  0.981086  0.0  0.121811  5.1e-05  0.978038  0.0  0.115899  0.116668  0.000173  0.983492  0.0
H  H10  1  0.58527352  0.32847164  0.68508011  1  0.271544  -4e-05  0.949648  0.0  0.277331  -2.6e-05  0.946241  0.0  0.316953  0.267357  -5.4e-05  0.952294  0.0
H  H11  1  0.58109587  0.16091267  0.31133106  1  0.274111  -4.3e-05  0.944736  0.0  0.279853  -2.8e-05  0.941564  0.0  0.319239  0.269921  -6e-05  0.947265  0.0
H  H12  1  0.41471734  0.67153668  0.31492285  1  0.271527  -4e-05  0.949587  0.0  0.277321  -2.6e-05  0.946183  0.0  0.316914  0.267339  -5.4e-05  0.952232  0.0
H  H13  1  0.41893405  0.83910334  0.68866135  1  0.274058  -4.2e-05  0.944961  0.0  0.279801  -2.8e-05  0.941793  0.0  0.319312  0.26986  -6e-05  0.947486  0.0
H  H14  1  0.74751702  0.43336429  0.60763347  1  0.113138  5e-06  1.01913  0.0  0.116752  4e-06  1.016418  0.0  0.106348  0.110556  7e-06  1.021131  0.0
H  H15  1  0.74327225  0.07842394  0.39736883  1  0.111494  1e-06  1.019195  0.0  0.115103  1e-06  1.016474  0.0  0.106332  0.108936  1e-06  1.021138  0.0
H  H16  1  0.25246757  0.56663998  0.39236776  1  0.113089  5e-06  1.019082  0.0  0.116702  4e-06  1.01637  0.0  0.106315  0.110509  7e-06  1.021086  0.0
H  H17  1  0.25676107  0.92158265  0.60263281  1  0.111546  1e-06  1.019051  0.0  0.115144  2e-06  1.016355  0.0  0.106346  0.108986  1e-06  1.02099  0.0
H  H18  1  0.11831339  0.51712089  0.52436497  1  0.108022  0.0  1.052329  0.0  0.111411  -0.0  1.050045  0.0  0.104596  0.105605  1e-06  1.053971  0.0
H  H19  1  0.11901614  0.97902254  0.47123756  1  0.109428  -1e-06  1.044097  0.0  0.112841  -0.0  1.041795  0.0  0.10543  0.107002  -2e-06  1.04573  0.0
H  H20  1  0.88167440  0.48287517  0.47563344  1  0.108082  0.0  1.05235  0.0  0.111477  0.0  1.05007  0.0  0.104654  0.105665  1e-06  1.053994  0.0
H  H21  1  0.88102192  0.02097579  0.52875943  1  0.109669  -1e-06  1.043787  0.0  0.113099  -1e-06  1.041475  0.0  0.105541  0.107243  -2e-06  1.04542  0.0
H  H22  1  0.22003845  0.79631239  0.05366619  1  0.391972  0.000398  0.950025  0.0  0.404801  0.00042  0.932108  0.0  0.300527  0.382991  0.000364  0.962555  0.0
H  H23  1  0.21934296  0.71097713  0.94492959  1  0.394521  -0.000368  0.944691  -0.001  0.407865  -0.000294  0.926103  -0.001  0.298949  0.385104  -0.000396  0.956907  -0.001
H  H24  1  0.77995405  0.20368774  0.94633517  1  0.392021  0.000398  0.949959  0.0  0.40485  0.000421  0.93204  0.0  0.30055  0.383041  0.000364  0.962487  0.0
H  H25  1  0.78064638  0.28902301  0.05507054  1  0.394561  -0.000368  0.944641  -0.001  0.407905  -0.000294  0.926053  -0.001  0.298919  0.385144  -0.000396  0.95686  -0.001
H  H26  1  0.21193312  0.34223183  0.09740963  1  0.404109  0.000196  0.928194  0.0  0.41567  0.000294  0.911848  0.0  0.300116  0.395721  7.4e-05  0.939987  0.0
H  H27  1  0.22393292  0.14438719  0.89738252  1  0.393881  0.000279  0.942385  0.0  0.405552  0.000429  0.925736  0.0  0.291485  0.385649  0.000105  0.954107  0.0
H  H28  1  0.78805780  0.65776831  0.90259112  1  0.404153  0.000196  0.928111  0.0  0.415713  0.000294  0.911765  0.0  0.300115  0.395768  7.5e-05  0.939902  0.0
H  H29  1  0.77605960  0.85561158  0.10261929  1  0.393915  0.000278  0.942335  0.0  0.405586  0.000429  0.925687  0.0  0.291525  0.385685  0.000105  0.954055  0.0
H  H30  1  0.20870517  0.55747920  0.14119541  1  0.414631  -0.000102  0.8612  0.0  0.422616  7.5e-05  0.853035  0.0  0.326475  0.408618  -0.000261  0.867263  -0.001
H  H31  1  0.20065443  0.93304772  0.85440459  1  0.397233  6.7e-05  0.883914  0.0  0.406315  0.000226  0.874052  0.0  0.314488  0.390726  -9.8e-05  0.891056  0.0
H  H32  1  0.79128737  0.44251959  0.85880761  1  0.414624  -0.000102  0.86125  0.0  0.422609  7.5e-05  0.853084  0.0  0.326433  0.408611  -0.000261  0.867311  -0.001
H  H33  1  0.79933020  0.06695109  0.14559475  1  0.397197  6.7e-05  0.883934  0.0  0.406278  0.000227  0.874073  0.0  0.314491  0.390693  -9.8e-05  0.891075  0.0
C  C34  1  0.34325559  0.29348472  0.76648322  1  -0.188077  -0.00188  3.969872  -0.002  -0.188281  -0.001353  3.97527  -0.002  -0.069808  -0.187923  -0.00237  3.966372  -0.003
C  C35  1  0.33516580  0.20482640  0.23035051  1  -0.184869  0.000304  3.957271  0.0  -0.18553  0.000173  3.961721  0.0  -0.065284  -0.184069  0.000406  3.954773  0.0
C  C36  1  0.65673375  0.70651405  0.23351614  1  -0.188065  -0.00188  3.969795  -0.002  -0.188274  -0.001354  3.975181  -0.002  -0.069836  -0.187967  -0.002371  3.966376  -0.003
C  C37  1  0.66483926  0.79516812  0.76964470  1  -0.185014  0.000305  3.957409  0.0  -0.185669  0.000175  3.961858  0.0  -0.065335  -0.184215  0.000407  3.954887  0.0
C  C38  1  0.41675791  0.46827324  0.57396053  1  -0.041495  -5.2e-05  4.009914  0.0  -0.046671  -3e-05  4.032744  0.0  -0.014712  -0.038125  -9.4e-05  3.994503  0.0
C  C39  1  0.41474325  0.03570432  0.42601722  1  -0.043406  1.9e-05  4.005363  0.0  -0.048728  6e-06  4.028389  0.0  -0.015744  -0.039972  2.7e-05  3.989845  0.0
C  C40  1  0.58321890  0.53172842  0.42604403  1  -0.04137  -5.1e-05  4.009718  0.0  -0.046553  -2.8e-05  4.032543  0.0  -0.014793  -0.038012  -9.4e-05  3.99432  0.0
C  C41  1  0.58528692  0.96430229  0.57398441  1  -0.043071  1.9e-05  4.005296  0.0  -0.048387  6e-06  4.028323  0.0  -0.015528  -0.039633  2.7e-05  3.98977  0.0
C  C42  1  0.63490088  0.46074057  0.56152708  1  -0.103502  -1.5e-05  3.985418  0.0  -0.104422  -8e-06  4.00558  0.0  -0.082194  -0.102751  -2.6e-05  3.971631  0.0
C  C43  1  0.63242354  0.04521578  0.44111650  1  -0.099703  2e-06  3.978043  0.0  -0.100656  2e-06  3.998403  0.0  -0.081449  -0.098911  1e-06  3.964098  0.0
C  C44  1  0.36507907  0.53925557  0.43847254  1  -0.103453  -1.5e-05  3.985075  0.0  -0.104377  -7e-06  4.005247  0.0  -0.082128  -0.102702  -2.6e-05  3.971295  0.0
C  C45  1  0.36761285  0.95479209  0.55888164  1  -0.09995  2e-06  3.978275  0.0  -0.100901  2e-06  3.998644  0.0  -0.081527  -0.099159  1e-06  3.964328  0.0
C  C46  1  0.30981530  0.42982471  0.64830309  1  0.483462  -0.00013  4.150499  0.0  0.511887  -6.9e-05  4.150046  0.0  0.23331  0.46428  -0.000215  4.150203  0.0
C  C47  1  0.30531018  0.07668779  0.35115693  1  0.481825  3e-05  4.14834  0.0  0.510401  4.2e-05  4.14805  0.0  0.233355  0.462614  2.5e-05  4.147778  0.0
C  C48  1  0.69014435  0.57015114  0.35169033  1  0.483331  -0.000129  4.150512  0.0  0.511775  -6.9e-05  4.150031  0.0  0.233406  0.464157  -0.000214  4.150207  0.0
C  C49  1  0.69475131  0.92332395  0.64884054  1  0.482497  2.9e-05  4.147927  0.0  0.511075  4.4e-05  4.147621  0.0  0.233612  0.463268  2.5e-05  4.147379  0.0
C  C50  1  0.27141807  0.43537513  0.84606994  1  0.644596  -0.000807  4.122164  -0.001  0.68  -0.000448  4.112832  -0.001  0.223223  0.619835  -0.001232  4.127798  -0.001
C  C51  1  0.26200494  0.06008558  0.15219675  1  0.639167  0.004172  4.093104  0.003  0.677169  0.002506  4.083844  0.002  0.226394  0.611465  0.006645  4.100381  0.004
C  C52  1  0.72857127  0.56462501  0.15393019  1  0.644587  -0.000807  4.122222  -0.001  0.680002  -0.000446  4.112874  -0.001  0.22324  0.619841  -0.001231  4.127866  -0.001
C  C53  1  0.73799228  0.93991176  0.84780184  1  0.639363  0.004171  4.093028  0.003  0.677362  0.002504  4.083768  0.002  0.226503  0.611659  0.006644  4.100303  0.004
C  C54  1  0.28567695  0.50866019  0.51199976  1  -0.086808  -3.9e-05  3.972017  0.0  -0.088323  -1.9e-05  3.992026  0.0  -0.080873  -0.085668  -7e-05  3.958377  0.0
C  C55  1  0.28610653  0.98921007  0.48542221  1  -0.088048  2e-06  3.968166  0.0  -0.089521  3e-06  3.98821  0.0  -0.080929  -0.086945  2e-06  3.954544  0.0
C  C56  1  0.71430462  0.49133460  0.48800214  1  -0.086913  -3.9e-05  3.972039  0.0  -0.088434  -2e-05  3.99205  0.0  -0.080922  -0.08577  -7e-05  3.958404  0.0
C  C57  1  0.71393462  0.01078820  0.51457111  1  -0.088469  2e-06  3.968052  0.0  -0.089968  3e-06  3.988114  0.0  -0.081099  -0.087362  2e-06  3.954428  0.0
N  N58  1  0.43425441  0.36375243  0.70180742  1  -0.352758  -0.000519  3.622676  -0.001  -0.373306  -0.000374  3.633337  -0.001  -0.427475  -0.338559  -0.00068  3.615032  -0.001
N  N59  1  0.42744722  0.13603856  0.29672511  1  -0.348894  5.2e-05  3.6165  0.0  -0.370091  -2e-05  3.627871  0.0  -0.424604  -0.334154  0.000112  3.608263  0.0
N  N60  1  0.56573651  0.63624770  0.29819271  1  -0.352676  -0.000519  3.622932  -0.001  -0.373229  -0.000374  3.633584  -0.001  -0.427421  -0.338455  -0.00068  3.615298  -0.001
N  N61  1  0.57256863  0.86397353  0.70326983  1  -0.349307  5.2e-05  3.616602  0.0  -0.370519  -2.2e-05  3.627974  0.0  -0.424862  -0.334537  0.000113  3.608337  0.0
O  O62  1  0.22622400  0.46597237  0.08731791  1  -0.761427  -0.026112  2.098864  -0.042  -0.787403  -0.021008  2.069018  -0.034  -0.561624  -0.740473  -0.030831  2.119516  -0.048
O  O63  1  0.24179940  0.02061340  0.90689715  1  -0.748485  -0.023409  2.048955  -0.039  -0.773168  -0.019224  2.016331  -0.034  -0.567735  -0.730396  -0.027258  2.071963  -0.044
O  O64  1  0.77377010  0.53402776  0.91268467  1  -0.761454  -0.026114  2.098861  -0.042  -0.78744  -0.021009  2.069033  -0.034  -0.561578  -0.740503  -0.030833  2.119513  -0.048
O  O65  1  0.75818998  0.97938402  0.09310326  1  -0.748455  -0.023409  2.048926  -0.039  -0.773137  -0.019225  2.016302  -0.034  -0.567773  -0.730367  -0.027257  2.071934  -0.044
O  O66  1  0.18289503  0.36444519  0.89987341  1  -0.622854  -0.023635  2.374178  -0.038  -0.659226  -0.01879  2.361241  -0.031  -0.319677  -0.594931  -0.027805  2.382125  -0.045
O  O67  1  0.16782292  0.12917723  0.09702087  1  -0.581011  0.006567  2.442234  0.003  -0.626829  0.005858  2.430436  0.003  -0.308279  -0.548811  0.005532  2.450484  0.003
O  O68  1  0.81710220  0.63555765  0.10013074  1  -0.622868  -0.023634  2.374318  -0.038  -0.65924  -0.01879  2.361367  -0.031  -0.319689  -0.594944  -0.027802  2.38226  -0.045
O  O69  1  0.83217113  0.87082424  0.90297943  1  -0.581069  0.006568  2.442147  0.003  -0.626884  0.005857  2.430346  0.003  -0.308299  -0.548873  0.005534  2.450398  0.003
O  O70  1  0.29815051  0.60267443  0.85606690  1  -0.533896  -0.001715  2.200166  -0.003  -0.559198  -0.001009  2.18963  -0.002  -0.299138  -0.516111  -0.002461  2.206898  -0.005
O  O71  1  0.29057263  0.89302127  0.14431863  1  -0.526428  0.001163  2.203061  0.001  -0.550417  0.000892  2.191637  0.0  -0.297351  -0.510636  0.001531  2.211691  0.001
O  O72  1  0.70183727  0.39732710  0.14393523  1  -0.533935  -0.001714  2.200173  -0.003  -0.559245  -0.001008  2.189635  -0.002  -0.299129  -0.516144  -0.00246  2.206899  -0.005
O  O73  1  0.70942777  0.10697608  0.85568302  1  -0.526548  0.001164  2.203261  0.001  -0.550537  0.000896  2.191837  0.0  -0.297462  -0.510758  0.001531  2.211893  0.001
O  O74  1  0.11713133  0.45344120  0.65979814  1  -0.511327  -0.000118  2.087968  0.0  -0.530091  -5.6e-05  2.080566  0.0  -0.311081  -0.49837  -0.000203  2.092779  0.0
O  O75  1  0.11217196  0.05945355  0.33985219  1  -0.511901  4.4e-05  2.082309  0.0  -0.530822  1.7e-05  2.074943  0.0  -0.312036  -0.498799  9.3e-05  2.087038  0.0
O  O76  1  0.88285358  0.54652216  0.34019138  1  -0.511349  -0.000119  2.087577  0.0  -0.530126  -5.7e-05  2.080167  0.0  -0.311126  -0.498385  -0.000204  2.092383  0.0
O  O77  1  0.88784089  0.94056279  0.66015548  1  -0.512092  4.5e-05  2.082782  0.0  -0.530996  1.6e-05  2.075384  0.0  -0.312087  -0.499002  9.3e-05  2.087528  0.0
O  O78  1  0.13063696  0.75819650  0.99905996  1  -0.803863  -0.019496  2.410134  -0.034  -0.849302  -0.016571  2.370153  -0.03  -0.545833  -0.768814  -0.021878  2.436935  -0.037
O  O79  1  0.86935560  0.24179956  0.00094212  1  -0.803959  -0.019495  2.410144  -0.034  -0.849399  -0.016569  2.370161  -0.03  -0.545821  -0.76891  -0.021877  2.436947  -0.037
