# generated using pymatgen
data_CuH20C20(NO2)2
_symmetry_space_group_name_H-M   'P 1'
_cell_length_a   8.73082910
_cell_length_b   13.93671764
_cell_length_c   14.65896171
_cell_angle_alpha   90.00259030
_cell_angle_beta   99.01211938
_cell_angle_gamma   89.99944920
_symmetry_Int_Tables_number   1
_chemical_formula_structural   CuH20C20(NO2)2
_chemical_formula_sum   'Cu2 H40 C40 N4 O8'
_cell_volume   1761.67002959
_cell_formula_units_Z   2
loop_
 _symmetry_equiv_pos_site_id
 _symmetry_equiv_pos_as_xyz
  1  'x, y, z'
loop_
 _atom_site_type_symbol
 _atom_site_label
 _atom_site_symmetry_multiplicity
 _atom_site_fract_x
 _atom_site_fract_y
 _atom_site_fract_z
 _atom_site_occupancy
 _atom_site_hle17_ddec_charge
 _atom_site_hle17_ddec_spin_density
 _atom_site_hle17_ddec_sum_bond_order
 _atom_site_hle17_magmom
 _atom_site_hse06_10hf_ddec_charge
 _atom_site_hse06_10hf_ddec_spin_density
 _atom_site_hse06_10hf_ddec_sum_bond_order
 _atom_site_hse06_10hf_magmom
 _atom_site_hse06_ddec_charge
 _atom_site_hse06_ddec_spin_density
 _atom_site_hse06_ddec_sum_bond_order
 _atom_site_hse06_magmom
 _atom_site_pbe_cm5_charge
 _atom_site_pbe_ddec_charge
 _atom_site_pbe_ddec_spin_density
 _atom_site_pbe_ddec_sum_bond_order
 _atom_site_pbe_magmom
Cu  Cu0  1  0.50000355  0.49999898  0.50000044  1  0.905759  -0.738849  1.8674  -0.524  0.896569  -0.829777  2.272771  -0.65  0.985098  -0.905259  2.208633  -0.744  0.704098  0.836865  -0.772313  2.326809  -0.586
Cu  Cu1  1  0.50000020  0.00000065  0.00000122  1  0.905759  0.738859  1.867525  0.524  0.896474  0.829792  2.272943  0.65  0.985063  0.905276  2.20871  0.744  0.704128  0.83687  0.772329  2.326833  0.586
H  H2  1  0.49635503  0.51545204  0.27293913  1  0.060952  7.9e-05  0.959513  0.0  0.067366  7.8e-05  1.027031  0.0  0.069704  6e-05  1.025567  0.0  0.104722  0.065627  9.3e-05  1.028153  0.0
H  H3  1  0.50361071  0.01543793  0.22702104  1  0.060832  -7.9e-05  0.959616  0.0  0.067221  -7.8e-05  1.027166  0.0  0.069559  -6e-05  1.025703  0.0  0.104674  0.065463  -9.3e-05  1.028296  0.0
H  H4  1  0.50363946  0.48455022  0.72706749  1  0.060916  7.9e-05  0.959472  0.0  0.067331  7.8e-05  1.027  0.0  0.06967  6e-05  1.025534  0.0  0.104685  0.065591  9.3e-05  1.028124  0.0
H  H5  1  0.49636118  0.98456290  0.77295703  1  0.06083  -7.7e-05  0.95953  0.0  0.067235  -7.8e-05  1.027098  0.0  0.069573  -6.1e-05  1.025633  0.0  0.104696  0.065498  -9.3e-05  1.028219  0.0
H  H6  1  0.53334375  0.73260093  0.46694536  1  0.065515  9.2e-05  0.944756  0.0  0.07184  8.7e-05  1.009894  0.0  0.074408  7e-05  1.008109  0.0  0.106815  0.069918  9.9e-05  1.011292  0.0
H  H7  1  0.46667810  0.23259217  0.03303783  1  0.065513  -9.5e-05  0.944838  0.0  0.071829  -8.7e-05  1.009969  0.0  0.074389  -7e-05  1.008197  0.0  0.106849  0.069909  -9.9e-05  1.011369  0.0
H  H8  1  0.46665884  0.26740277  0.53306127  1  0.065623  9e-05  0.944812  0.0  0.071927  8.7e-05  1.009953  0.0  0.074494  7e-05  1.008169  0.0  0.106817  0.070008  9.9e-05  1.011351  0.0
H  H9  1  0.53333687  0.76742230  0.96695213  1  0.067075  -9.4e-05  0.944838  0.0  0.071862  -8.7e-05  1.009864  0.0  0.074423  -7e-05  1.008089  0.0  0.106821  0.069934  -9.9e-05  1.011267  0.0
H  H10  1  0.11167732  0.33118570  0.35123446  1  0.131221  0.000472  0.944489  0.001  0.152286  7.6e-05  1.001657  0.0  0.154769  7.4e-05  1.000427  0.0  0.098974  0.150403  6.4e-05  1.002675  0.0
H  H11  1  0.88833747  0.83119514  0.14876669  1  0.131228  -0.000476  0.944522  -0.001  0.152295  -7.6e-05  1.001708  0.0  0.154778  -7.4e-05  1.000477  0.0  0.098985  0.150406  -6.4e-05  1.002726  0.0
H  H12  1  0.88833354  0.66880939  0.64877971  1  0.13126  0.000475  0.944472  0.001  0.152355  7.6e-05  1.00157  0.0  0.154838  7.4e-05  1.000341  0.0  0.099005  0.150471  6.4e-05  1.002591  0.0
H  H13  1  0.11165687  0.16879851  0.85123310  1  0.131182  -0.000472  0.944574  -0.001  0.152295  -7.6e-05  1.001685  0.0  0.154778  -7.4e-05  1.000454  0.0  0.098982  0.150409  -6.4e-05  1.002701  0.0
H  H14  1  0.20759064  0.26359014  0.27214938  1  0.119429  -0.000729  0.957168  -0.001  0.13786  -0.000764  1.015367  -0.001  0.139046  -0.000509  1.016221  0.0  0.091267  0.13701  -0.000975  1.014777  -0.001
H  H15  1  0.79242552  0.76360249  0.22784557  1  0.119413  0.000728  0.957318  0.001  0.137812  0.000764  1.015566  0.001  0.139001  0.000508  1.016418  0.0  0.091231  0.136953  0.000975  1.014983  0.001
H  H16  1  0.79241204  0.73640351  0.72786135  1  0.119527  -0.000728  0.957144  -0.001  0.137851  -0.000764  1.015454  -0.001  0.139039  -0.000509  1.016307  0.0  0.091222  0.137003  -0.000975  1.014862  -0.001
H  H17  1  0.20757460  0.23639261  0.77215335  1  0.119405  0.000729  0.957407  0.001  0.137788  0.000764  1.015657  0.001  0.138976  0.000508  1.01651  0.0  0.091204  0.136933  0.000975  1.015075  0.001
H  H18  1  0.15926940  0.38645013  0.25072496  1  0.125876  0.000474  0.9226  0.001  0.147441  0.000121  0.977315  0.0  0.149609  0.000123  0.976775  0.0  0.0998  0.145817  0.000111  0.977795  0.0
H  H19  1  0.84073349  0.88646392  0.24927413  1  0.125733  -0.000477  0.922733  -0.001  0.147312  -0.000121  0.977459  0.0  0.149477  -0.000123  0.976922  0.0  0.099769  0.145692  -0.000111  0.977933  0.0
H  H20  1  0.84072747  0.61354281  0.74928460  1  0.125864  0.000471  0.922647  0.001  0.147401  0.000121  0.977393  0.0  0.149567  0.000123  0.976855  0.0  0.099817  0.145781  0.000111  0.977873  0.0
H  H21  1  0.15927243  0.11352902  0.75072596  1  0.125769  -0.000471  0.922711  -0.001  0.147324  -0.000121  0.97744  0.0  0.149488  -0.000123  0.976905  0.0  0.099766  0.145706  -0.000111  0.977916  0.0
H  H22  1  0.80461829  0.34030860  0.29772440  1  0.125221  4.2e-05  0.927734  0.0  0.146447  -0.000205  0.983513  0.0  0.148172  -0.000108  0.983691  0.0  0.099021  0.145144  -0.000292  0.983502  0.0
H  H23  1  0.19539391  0.84031973  0.20226600  1  0.125226  -4.3e-05  0.927789  0.0  0.1464  0.000205  0.983633  0.0  0.148124  0.000108  0.983812  0.0  0.099018  0.145096  0.000293  0.983616  0.0
H  H24  1  0.19539224  0.65968793  0.70227405  1  0.125217  3.8e-05  0.927751  0.0  0.146415  -0.000205  0.98357  0.0  0.148138  -0.000108  0.98375  0.0  0.099014  0.145115  -0.000292  0.983558  0.0
H  H25  1  0.80460510  0.15968039  0.79773555  1  0.125164  -4.9e-05  0.92782  0.0  0.146359  0.000205  0.983636  0.0  0.148082  0.000108  0.983817  0.0  0.098989  0.145056  0.000293  0.983618  0.0
H  H26  1  0.78158132  0.23662153  0.36315103  1  0.118888  -0.000151  0.948417  0.0  0.138192  -0.000293  1.007554  0.0  0.139583  -0.000163  1.008151  0.0  0.093237  0.137204  -0.000399  1.007154  0.0
H  H27  1  0.21842667  0.73663013  0.13683455  1  0.118922  0.000152  0.948372  0.0  0.13823  0.000293  1.007512  0.0  0.139631  0.000162  1.008098  0.0  0.09325  0.137241  0.000399  1.007113  0.0
H  H28  1  0.21842344  0.76337643  0.63684897  1  0.118891  -0.000157  0.948529  0.0  0.138198  -0.000293  1.007652  0.0  0.139587  -0.000162  1.00825  0.0  0.093245  0.137209  -0.000399  1.007247  0.0
H  H29  1  0.78157232  0.26337213  0.86316563  1  0.118941  0.000143  0.948389  0.0  0.138239  0.000293  1.00753  0.0  0.139645  0.000162  1.008112  0.0  0.093241  0.137245  0.000399  1.00713  0.0
H  H30  1  0.88499461  0.33837029  0.41777105  1  0.137691  0.000406  0.928796  0.0  0.158897  5.6e-05  0.980714  0.0  0.162022  5.1e-05  0.978722  0.0  0.102975  0.156568  4.7e-05  0.982287  0.0
H  H31  1  0.11501530  0.83837836  0.08222044  1  0.137726  -0.000414  0.928755  0.0  0.158874  -5.6e-05  0.980746  0.0  0.161998  -5.1e-05  0.978756  0.0  0.102918  0.156548  -4.8e-05  0.982322  0.0
H  H32  1  0.11500782  0.66162839  0.58222806  1  0.137645  0.000403  0.928834  0.0  0.158847  5.6e-05  0.980764  0.0  0.161972  5.1e-05  0.978773  0.0  0.102939  0.156519  4.8e-05  0.982337  0.0
H  H33  1  0.88498606  0.16162463  0.91778268  1  0.137654  -0.000412  0.928785  0.0  0.158851  -5.6e-05  0.980721  0.0  0.16198  -5.1e-05  0.978725  0.0  0.102931  0.156527  -4.7e-05  0.982294  0.0
H  H34  1  0.48924527  0.63280228  0.14272238  1  0.097194  -2.2e-05  0.943532  0.0  0.108456  7e-06  0.999378  0.0  0.112047  6e-06  0.998421  0.0  0.101075  0.105784  7e-06  1.000387  0.0
H  H35  1  0.51073047  0.13278642  0.35724643  1  0.097178  2.2e-05  0.943645  0.0  0.108406  -7e-06  0.999537  0.0  0.111996  -7e-06  0.998577  0.0  0.10108  0.105705  -8e-06  1.000577  0.0
H  H36  1  0.51074109  0.36719927  0.85728286  1  0.097174  -2.3e-05  0.943545  0.0  0.108414  7e-06  0.999401  0.0  0.112006  6e-06  0.998444  0.0  0.101082  0.105748  8e-06  1.000408  0.0
H  H37  1  0.48925198  0.86720867  0.64273869  1  0.097166  2.2e-05  0.943612  0.0  0.108366  -7e-06  0.999536  0.0  0.111959  -7e-06  0.998584  0.0  0.101053  0.105693  -7e-06  1.000549  0.0
H  H38  1  0.52880932  0.85937826  0.34524105  1  0.096821  -1.3e-05  0.946004  0.0  0.108033  1.1e-05  1.002846  0.0  0.111617  9e-06  1.00189  0.0  0.100712  0.105357  1.2e-05  1.003864  0.0
H  H39  1  0.47121328  0.35936880  0.15475311  1  0.097015  1.9e-05  0.945781  0.0  0.10817  -1.1e-05  1.002667  0.0  0.111754  -9e-06  1.001711  0.0  0.100813  0.105524  -1.2e-05  1.003656  0.0
H  H40  1  0.47119324  0.14062472  0.65476422  1  0.096912  -1.4e-05  0.94601  0.0  0.108095  1.1e-05  1.002857  0.0  0.111674  9e-06  1.001905  0.0  0.100742  0.105427  1.2e-05  1.003865  0.0
H  H41  1  0.52879609  0.64063705  0.84524523  1  0.097073  2.1e-05  0.945707  0.0  0.108153  -1.1e-05  1.002702  0.0  0.11174  -9e-06  1.001741  0.0  0.100826  0.10549  -1.2e-05  1.003716  0.0
C  C42  1  0.35056317  0.36757468  0.35989301  1  0.460192  0.006094  3.76403  0.009  0.445906  0.001285  4.049608  0.004  0.475442  0.001584  4.055487  0.003  0.117815  0.425846  0.001016  4.044736  0.004
C  C43  1  0.64945125  0.86758156  0.14009944  1  0.460095  -0.006099  3.764451  -0.009  0.445992  -0.001283  4.049768  -0.004  0.475533  -0.001585  4.055649  -0.003  0.117822  0.425924  -0.001015  4.044908  -0.004
C  C44  1  0.64944278  0.63241970  0.64010777  1  0.460301  0.006085  3.76417  0.009  0.44601  0.001282  4.049733  0.004  0.475543  0.001585  4.055617  0.003  0.117858  0.42595  0.001015  4.044863  0.004
C  C45  1  0.35055011  0.13241569  0.85990368  1  0.460289  -0.006087  3.764289  -0.009  0.446051  -0.001284  4.049882  -0.004  0.475592  -0.001585  4.055766  -0.003  0.117842  0.42598  -0.001015  4.045029  -0.004
C  C46  1  0.63963508  0.35839736  0.39144761  1  0.470902  0.006431  3.747915  0.009  0.457293  0.001482  4.031001  0.004  0.487305  0.001775  4.035962  0.003  0.122156  0.436891  0.001204  4.026729  0.004
C  C47  1  0.36036882  0.85840807  0.10853808  1  0.470773  -0.006451  3.747909  -0.009  0.457284  -0.001481  4.030883  -0.004  0.487295  -0.001775  4.03585  -0.003  0.122245  0.436882  -0.001202  4.026607  -0.004
C  C48  1  0.36036838  0.64159845  0.60854545  1  0.47099  0.006442  3.747886  0.009  0.457391  0.00148  4.030979  0.004  0.487399  0.001775  4.035939  0.003  0.122168  0.43699  0.001202  4.026702  0.004
C  C49  1  0.63963021  0.14159277  0.89146416  1  0.470822  -0.006445  3.747776  -0.009  0.457257  -0.001481  4.030903  -0.004  0.487268  -0.001776  4.035874  -0.003  0.122217  0.436855  -0.001203  4.026633  -0.004
C  C50  1  0.50263842  0.59269075  0.28618061  1  0.126818  -0.000462  3.753525  0.0  0.106695  5.6e-05  4.008021  0.0  0.112982  -3e-06  4.025959  0.0  0.040051  0.102765  0.000115  3.99546  0.0
C  C51  1  0.49733861  0.09267964  0.21378453  1  0.126922  0.000481  3.753805  0.001  0.106788  -5.7e-05  4.008314  0.0  0.113075  5e-06  4.026254  0.0  0.040085  0.102877  -0.000115  3.995749  0.0
C  C52  1  0.49735490  0.40731151  0.71382522  1  0.126808  -0.00045  3.753584  0.0  0.10668  5.7e-05  4.008074  0.0  0.112966  -2e-06  4.026011  0.0  0.040056  0.102751  0.000115  3.995523  0.0
C  C53  1  0.50264496  0.90732478  0.78619864  1  0.127259  0.000474  3.753262  0.0  0.106857  -5.7e-05  4.0081  0.0  0.113145  4e-06  4.02604  0.0  0.040158  0.102924  -0.000115  3.995548  0.0
C  C54  1  0.52367202  0.71320369  0.39394892  1  0.128355  -0.000474  3.750301  0.0  0.109142  2.6e-05  4.003711  0.0  0.115646  -1.5e-05  4.021294  0.0  0.042773  0.10507  5.5e-05  3.991383  0.0
C  C55  1  0.47633718  0.21319691  0.10603371  1  0.128225  0.000521  3.750262  0.001  0.109033  -2.6e-05  4.003686  0.0  0.115542  1.8e-05  4.021267  0.0  0.042618  0.10496  -5.5e-05  3.991376  0.0
C  C56  1  0.47632817  0.28679714  0.60605341  1  0.128124  -0.000468  3.750291  0.0  0.108937  2.7e-05  4.003676  0.0  0.115441  -1.3e-05  4.021259  0.0  0.042736  0.10487  5.4e-05  3.991347  0.0
C  C57  1  0.52367093  0.78681181  0.89396043  1  0.126087  0.000513  3.752371  0.001  0.109021  -2.7e-05  4.003463  0.0  0.115529  1.7e-05  4.021046  0.0  0.042719  0.10496  -5.5e-05  3.99113  0.0
C  C58  1  0.19900613  0.33351273  0.30508478  1  -0.396623  -0.011816  3.690769  -0.013  -0.471448  -0.00679  3.922597  -0.008  -0.477882  -0.004442  3.926837  -0.005  -0.243004  -0.466794  -0.008695  3.919606  -0.009
C  C59  1  0.80100743  0.83352201  0.19491363  1  -0.396289  0.011833  3.69099  0.013  -0.471226  0.006792  3.922881  0.008  -0.477659  0.004446  3.927124  0.005  -0.242941  -0.466565  0.008697  3.919884  0.009
C  C60  1  0.80099653  0.66648237  0.69492459  1  -0.396724  -0.011817  3.690845  -0.013  -0.471473  -0.006791  3.922673  -0.008  -0.47791  -0.004443  3.926915  -0.005  -0.242991  -0.466824  -0.008698  3.919683  -0.009
C  C61  1  0.19899504  0.16647236  0.80508753  1  -0.396437  0.011813  3.691191  0.013  -0.471268  0.006792  3.922995  0.008  -0.477701  0.004446  3.927238  0.005  -0.242912  -0.466607  0.008698  3.920001  0.009
C  C62  1  0.49359533  0.32932019  0.34179801  1  -0.36945  -0.004491  3.766725  -0.007  -0.370577  -0.001924  4.040272  -0.004  -0.397275  -0.000635  4.067051  -0.002  -0.083393  -0.352743  -0.003177  4.02199  -0.005
C  C63  1  0.50641231  0.82932807  0.15819289  1  -0.369765  0.004501  3.766677  0.007  -0.370815  0.001925  4.039954  0.004  -0.39752  0.000638  4.066736  0.002  -0.083392  -0.352967  0.003181  4.021657  0.005
C  C64  1  0.50640824  0.67067777  0.65819983  1  -0.369558  -0.004503  3.766497  -0.007  -0.370727  -0.001925  4.040173  -0.004  -0.397427  -0.000639  4.066956  -0.002  -0.083417  -0.352891  -0.00318  4.021887  -0.005
C  C65  1  0.49358675  0.17067133  0.84181071  1  -0.369422  0.004502  3.766205  0.007  -0.370727  0.001927  4.040026  0.004  -0.397432  0.000638  4.066806  0.002  -0.083311  -0.352879  0.003181  4.021738  0.005
C  C66  1  0.78686629  0.31529292  0.36655638  1  -0.398745  -0.011788  3.688261  -0.013  -0.473324  -0.006785  3.919504  -0.008  -0.480164  -0.004437  3.923688  -0.005  -0.241068  -0.468397  -0.008701  3.916553  -0.01
C  C67  1  0.21313905  0.81529995  0.13343235  1  -0.39869  0.011817  3.688134  0.013  -0.473272  0.006787  3.91948  0.008  -0.480119  0.00444  3.923656  0.005  -0.241068  -0.468344  0.008704  3.916523  0.01
C  C68  1  0.21313959  0.68470576  0.63344166  1  -0.398732  -0.011779  3.688262  -0.013  -0.473305  -0.006787  3.919515  -0.008  -0.480143  -0.00444  3.923704  -0.005  -0.241056  -0.468378  -0.008704  3.916559  -0.01
C  C69  1  0.78685766  0.18470160  0.86656968  1  -0.398672  0.011831  3.688242  0.013  -0.473206  0.006787  3.919495  0.008  -0.480062  0.004441  3.923671  0.005  -0.241033  -0.468281  0.008704  3.916537  0.01
C  C70  1  0.49877047  0.65803514  0.21390936  1  -0.189365  0.001017  3.744464  0.001  -0.205673  0.000306  3.983332  0.0  -0.214017  0.000154  4.00453  0.0  -0.093948  -0.2003  0.00052  3.969159  0.001
C  C71  1  0.50121463  0.15801739  0.28606951  1  -0.189074  -0.001037  3.744272  -0.001  -0.205314  -0.000306  3.983083  0.0  -0.213652  -0.000157  4.004275  0.0  -0.093863  -0.199911  -0.000521  3.968909  -0.001
C  C72  1  0.50121940  0.34196569  0.78609754  1  -0.189209  0.001016  3.744483  0.001  -0.205417  0.000305  3.983319  0.0  -0.213762  0.000151  4.004522  0.0  -0.093849  -0.200042  0.000521  3.969147  0.001
C  C73  1  0.49877596  0.84197914  0.71391699  1  -0.189202  -0.00104  3.74416  -0.001  -0.205493  -0.000305  3.983276  0.0  -0.213842  -0.000154  4.004478  0.0  -0.093932  -0.200112  -0.000521  3.969093  -0.001
C  C74  1  0.52091145  0.78362183  0.32608182  1  -0.184449  0.000968  3.732752  0.001  -0.200555  0.000324  3.970571  0.0  -0.209261  0.000161  3.992389  0.0  -0.092321  -0.194917  0.000561  3.95596  0.001
C  C75  1  0.47910095  0.28360462  0.17390480  1  -0.1847  -0.001023  3.733037  -0.001  -0.200734  -0.000324  3.970871  0.0  -0.20944  -0.000164  3.992683  0.0  -0.092443  -0.195122  -0.000561  3.956257  -0.001
C  C76  1  0.47908771  0.21638044  0.67392656  1  -0.184552  0.000979  3.73276  0.001  -0.200554  0.000323  3.970557  0.0  -0.209257  0.000158  3.992374  0.0  -0.092322  -0.194927  0.000561  3.955948  0.001
C  C77  1  0.52090710  0.71639836  0.82608661  1  -0.184719  -0.001027  3.733469  -0.001  -0.200586  -0.000323  3.970816  0.0  -0.209293  -0.000161  3.992629  0.0  -0.092351  -0.194964  -0.000561  3.956207  -0.001
C  C78  1  0.49159690  0.25671667  0.26699016  1  0.148603  0.001184  3.814588  0.001  0.16739  0.000298  4.039648  0.0  0.174228  0.000268  4.065935  0.0  0.007606  0.162983  0.000269  4.021785  0.0
C  C79  1  0.50840516  0.75672092  0.23299373  1  0.148668  -0.001151  3.814511  -0.001  0.167437  -0.000298  4.039661  0.0  0.174276  -0.000265  4.065941  0.0  0.007354  0.16303  -0.00027  4.021792  0.0
C  C80  1  0.50840311  0.74328631  0.73300397  1  0.148935  0.001192  3.814269  0.001  0.167438  0.000297  4.039797  0.0  0.17428  0.000266  4.066072  0.0  0.007501  0.163032  0.000269  4.021929  0.0
C  C81  1  0.49158929  0.24328063  0.76701084  1  0.148573  -0.001163  3.814487  -0.001  0.167294  -0.000298  4.039714  0.0  0.174134  -0.000262  4.06599  0.0  0.007275  0.162886  -0.00027  4.021857  0.0
N  N82  1  0.51479793  0.61907637  0.37503433  1  -0.307807  0.002698  3.17377  0.002  -0.278127  0.0018  3.455562  0.001  -0.292404  0.001652  3.469341  0.001  -0.317918  -0.268303  0.001954  3.446303  0.001
N  N83  1  0.48519763  0.11906326  0.12493763  1  -0.307884  -0.002728  3.173892  -0.002  -0.278223  -0.001801  3.455714  -0.001  -0.292513  -0.001654  3.469491  -0.001  -0.318057  -0.268414  -0.001955  3.446458  -0.001
N  N84  1  0.48520353  0.38092805  0.62497357  1  -0.307818  0.002686  3.173851  0.002  -0.278128  0.0018  3.45562  0.001  -0.292405  0.001651  3.4694  0.001  -0.317922  -0.268306  0.001955  3.446369  0.001
N  N85  1  0.51479868  0.88094403  0.87504595  1  -0.308098  -0.002721  3.174472  -0.002  -0.278191  -0.0018  3.455541  -0.001  -0.29248  -0.001653  3.469322  -0.001  -0.318078  -0.268381  -0.001955  3.446278  -0.001
O  O86  1  0.33477484  0.43138028  0.42014586  1  -0.514391  -0.080457  2.096287  -0.106  -0.490411  -0.051881  2.36852  -0.075  -0.529068  -0.038924  2.360575  -0.06  -0.308192  -0.463857  -0.060566  2.373789  -0.084
O  O87  1  0.66523930  0.93137989  0.07984863  1  -0.514509  0.080452  2.096737  0.106  -0.490513  0.051876  2.368798  0.075  -0.529185  0.038917  2.360848  0.06  -0.30823  -0.463976  0.060564  2.374062  0.084
O  O88  1  0.66523466  0.56861769  0.57985864  1  -0.514541  -0.080448  2.096461  -0.106  -0.490543  -0.051875  2.368686  -0.075  -0.529197  -0.03892  2.360737  -0.06  -0.308283  -0.463986  -0.060563  2.373955  -0.084
O  O89  1  0.33475854  0.06861664  0.92015214  1  -0.514467  0.080455  2.096487  0.106  -0.490487  0.05188  2.368687  0.075  -0.52916  0.038921  2.360741  0.06  -0.308228  -0.463949  0.060566  2.373952  0.084
O  O90  1  0.66022088  0.42060070  0.45579792  1  -0.505606  -0.07961  2.088155  -0.104  -0.481366  -0.051649  2.356101  -0.075  -0.519008  -0.038705  2.347549  -0.06  -0.301001  -0.45547  -0.060484  2.361779  -0.084
O  O91  1  0.33978407  0.92060058  0.04419736  1  -0.505512  0.079583  2.088427  0.104  -0.481276  0.051633  2.356311  0.075  -0.518922  0.03869  2.347755  0.06  -0.301005  -0.455404  0.060468  2.361978  0.084
O  O92  1  0.33978154  0.57940156  0.54420051  1  -0.505615  -0.079597  2.08837  -0.104  -0.48137  -0.051639  2.356318  -0.075  -0.519006  -0.038697  2.347763  -0.06  -0.301001  -0.455474  -0.060476  2.361993  -0.084
O  O93  1  0.66021961  0.07939953  0.95580596  1  -0.505516  0.079588  2.088239  0.104  -0.481281  0.051637  2.356181  0.075  -0.518931  0.038693  2.347626  0.06  -0.301009  -0.455405  0.06047  2.361849  0.084
