# generated using pymatgen
data_CdH18C21N6O7
_symmetry_space_group_name_H-M   'P 1'
_cell_length_a   10.26787142
_cell_length_b   10.86728499
_cell_length_c   11.42305864
_cell_angle_alpha   78.12912783
_cell_angle_beta   85.80221904
_cell_angle_gamma   69.66333899
_symmetry_Int_Tables_number   1
_chemical_formula_structural   CdH18C21N6O7
_chemical_formula_sum   'Cd2 H36 C42 N12 O14'
_cell_volume   1169.61501453
_cell_formula_units_Z   2
loop_
 _symmetry_equiv_pos_site_id
 _symmetry_equiv_pos_as_xyz
  1  'x, y, z'
loop_
 _atom_site_type_symbol
 _atom_site_label
 _atom_site_symmetry_multiplicity
 _atom_site_fract_x
 _atom_site_fract_y
 _atom_site_fract_z
 _atom_site_occupancy
 _atom_site_hle17_bader_spin_density
 _atom_site_hle17_ddec_charge
 _atom_site_hle17_ddec_spin_density
 _atom_site_hle17_ddec_sum_bond_order
 _atom_site_hle17_magmom
 _atom_site_hse06_10hf_bader_spin_density
 _atom_site_hse06_10hf_ddec_charge
 _atom_site_hse06_10hf_ddec_spin_density
 _atom_site_hse06_10hf_ddec_sum_bond_order
 _atom_site_hse06_10hf_magmom
 _atom_site_hse06_bader_spin_density
 _atom_site_hse06_ddec_charge
 _atom_site_hse06_ddec_spin_density
 _atom_site_hse06_ddec_sum_bond_order
 _atom_site_hse06_magmom
 _atom_site_pbe_bader_spin_density
 _atom_site_pbe_cm5_charge
 _atom_site_pbe_ddec_charge
 _atom_site_pbe_ddec_spin_density
 _atom_site_pbe_ddec_sum_bond_order
 _atom_site_pbe_magmom
Cd  Cd0  1  0.35828345  0.86067409  0.87504276  1  0  1.142212  0  1.677232  0  0  0.953203  0  2.123125  0  0  1.009954  0  2.069254  0  0  0.773459  0.909974  0  2.162309  0
Cd  Cd1  1  0.64171767  0.13932575  0.12495731  1  0  1.142203  0  1.677281  0  0  0.953188  0  2.123163  0  0  1.009938  0  2.069294  0  0  0.773442  0.909958  0  2.162346  0
H  H2  1  0.20014880  0.47499537  0.85034322  1  0  0.105955  0  0.961795  0  0  0.110115  0  1.033918  0  0  0.114035  0  1.030814  0  0  0.105699  0.107616  0  1.035637  0
H  H3  1  0.79985162  0.52500648  0.14965737  1  0  0.105964  0  0.961799  0  0  0.110112  0  1.033935  0  0  0.114034  0  1.030829  0  0  0.105701  0.107613  0  1.035654  0
H  H4  1  0.03126841  0.59365122  0.58883552  1  0  0.095047  0  0.954603  0  0  0.105734  0  1.014534  0  0  0.107503  0  1.015651  0  0  0.10105  0.104249  0  1.014424  0
H  H5  1  0.96873370  0.40634862  0.41116450  1  0  0.095029  0  0.954588  0  0  0.105715  0  1.014514  0  0  0.107484  0  1.015631  0  0  0.101051  0.104233  0  1.014405  0
H  H6  1  0.89063166  0.86320122  0.83938968  1  0  0.114091  0  0.944115  0  0  0.120543  0  1.009755  0  0  0.125676  0  1.004116  0  0  0.108097  0.116893  0  1.013599  0
H  H7  1  0.10937071  0.13680063  0.16061078  1  0  0.114135  0  0.94412  0  0  0.120583  0  1.009759  0  0  0.12571  0  1.00413  0  0  0.108117  0.116933  0  1.013604  0
H  H8  1  0.76583246  0.52617285  0.83303360  1  0  0.104098  0  0.965069  0  0  0.10916  0  1.036751  0  0  0.112909  0  1.033339  0  0  0.106128  0.10645  0  1.039137  0
H  H9  1  0.23416790  0.47383198  0.16696463  1  0  0.10406  0  0.965052  0  0  0.1091  0  1.036763  0  0  0.112846  0  1.033357  0  0  0.106112  0.106391  0  1.039147  0
H  H10  1  0.62523680  0.66173064  0.29824350  1  0  0.09036  0  0.986845  0  0  0.096085  0  1.059878  0  0  0.098092  0  1.058449  0  0  0.12997  0.09473  0  1.06067  0
H  H11  1  0.37476405  0.33826720  0.70175701  1  0  0.090369  0  0.986833  0  0  0.096087  0  1.059878  0  0  0.098092  0  1.05845  0  0  0.129978  0.094733  0  1.060668  0
H  H12  1  0.50522167  0.07656667  0.69723810  1  0  0.120034  0  0.942117  0  0  0.124509  0  1.012654  0  0  0.127446  0  1.008292  0  0  0.143485  0.122088  0  1.015497  0
H  H13  1  0.49477922  0.92343110  0.30275717  1  0  0.119973  0  0.942132  0  0  0.124462  0  1.012658  0  0  0.127403  0  1.008295  0  0  0.143464  0.12204  0  1.015502  0
H  H14  1  0.58866350  0.43383578  0.36560865  1  0  0.090652  0  0.920614  0  0  0.106305  0  0.982519  0  0  0.106265  0  0.984387  0  0  0.114926  0.105934  0  0.981967  0
H  H15  1  0.41133867  0.56616107  0.63439285  1  0  0.090632  0  0.92063  0  0  0.106278  0  0.982553  0  0  0.106235  0  0.984421  0  0  0.114936  0.105908  0  0.982  0
H  H16  1  0.49555307  0.38693163  0.26798814  1  0  0.118447  0  0.963204  0  0  0.130181  0  1.027916  0  0  0.132438  0  1.025752  0  0  0.122412  0.128282  0  1.030091  0
H  H17  1  0.50444611  0.61306822  0.73201206  1  0  0.118441  0  0.963211  0  0  0.130171  0  1.027934  0  0  0.132426  0  1.025772  0  0  0.122417  0.128274  0  1.030108  0
H  H18  1  0.37163194  0.57295309  0.07664295  1  0  0.123813  0  0.931926  0  0  0.131746  0  0.996481  0  0  0.134827  0  0.992606  0  0  0.145491  0.129443  0  0.999178  0
H  H19  1  0.62836928  0.42704373  0.92335600  1  0  0.123854  0  0.931933  0  0  0.131797  0  0.996468  0  0  0.134879  0  0.992592  0  0  0.145502  0.129494  0  0.999165  0
H  H20  1  0.09763543  0.77495103  0.45603717  1  0  0.08894  0  0.944217  0  0  0.102766  0  0.997387  0  0  0.105371  0  0.996431  0  0  0.101183  0.101053  0  0.997791  0
H  H21  1  0.90236633  0.22504981  0.54396266  1  0  0.088932  0  0.944213  0  0  0.102757  0  0.997382  0  0  0.105362  0  0.996427  0  0  0.101185  0.101045  0  0.997785  0
H  H22  1  0.30756836  0.71754732  0.32872226  1  0  0.091283  0  0.964597  0  0  0.101821  0  1.024318  0  0  0.10457  0  1.023422  0  0  0.100647  0.099981  0  1.024697  0
H  H23  1  0.69243437  0.28245352  0.67127751  1  0  0.091301  0  0.964589  0  0  0.101842  0  1.024305  0  0  0.104591  0  1.02341  0  0  0.100657  0.100002  0  1.024683  0
H  H24  1  0.43087513  0.23731266  0.37745548  1  0  0.113628  0  0.961727  0  0  0.125028  0  1.027512  0  0  0.126706  0  1.025777  0  0  0.120592  0.123707  0  1.028204  0
H  H25  1  0.56912343  0.76268617  0.62254321  1  0  0.113657  0  0.961764  0  0  0.12505  0  1.027509  0  0  0.126727  0  1.025778  0  0  0.12061  0.123729  0  1.028202  0
H  H26  1  0.52299121  0.23863582  0.50251281  1  0  0.084423  0  0.913324  0  0  0.102546  0  0.974144  0  0  0.102712  0  0.973539  0  0  0.117765  0.102272  0  0.973752  0
H  H27  1  0.47700673  0.76136200  0.49748525  1  0  0.084421  0  0.913296  0  0  0.102481  0  0.974146  0  0  0.102646  0  0.973544  0  0  0.117755  0.10221  0  0.97375  0
H  H28  1  0.17646605  0.35736971  0.59478570  1  0  0.100224  0  0.977178  0  0  0.106238  0  1.044954  0  0  0.109131  0  1.043818  0  0  0.102064  0.104367  0  1.045556  0
H  H29  1  0.82353375  0.64263113  0.40521425  1  0  0.100253  0  0.977127  0  0  0.106254  0  1.044914  0  0  0.109147  0  1.04378  0  0  0.102058  0.104384  0  1.045515  0
H  H30  1  0.15294106  0.00458373  0.60792876  1  0  0.097355  0  0.918944  0  0  0.108185  0  0.975892  0  0  0.110373  0  0.97319  0  0  0.136687  0.106467  0  0.9778  0
H  H31  1  0.84705411  0.99541917  0.39207369  1  0  0.097387  0  0.918909  0  0  0.108212  0  0.975857  0  0  0.110398  0  0.973155  0  0  0.136678  0.106494  0  0.977764  0
H  H32  1  0.96653279  0.19113823  0.87574136  1  0  0.423291  0  0.768207  0  0  0.409778  0  0.815898  0  0  0.419315  0  0.806214  0  0  0.356598  0.402922  0  0.822903  0
H  H33  1  0.03346861  0.80886362  0.12425916  1  0  0.423277  0  0.76821  0  0  0.409763  0  0.815902  0  0  0.419301  0  0.806217  0  0  0.356577  0.402907  0  0.822907  0
H  H34  1  0.23135039  0.12073196  0.91159593  1  0  0.412604  0  0.895298  0  0  0.380037  0  0.963046  0  0  0.390198  0  0.948322  0  0  0.285531  0.37261  0  0.973845  0
H  H35  1  0.76864879  0.87926787  0.08840340  1  0  0.412616  0  0.895285  0  0  0.380059  0  0.963028  0  0  0.39022  0  0.948303  0  0  0.285521  0.372631  0  0.973829  0
H  H36  1  0.30788637  0.05213664  0.03600044  1  0  0.436187  0  0.863892  0  0  0.40417  0  0.928821  0  0  0.415449  0  0.912598  0  0  0.286664  0.395983  0  0.940578  0
H  H37  1  0.69211448  0.94786122  0.96400094  1  0  0.436204  0  0.863868  0  0  0.404179  0  0.928808  0  0  0.415457  0  0.912587  0  0  0.286653  0.395991  0  0.940566  0
C  C38  1  0.16921643  0.73308285  0.85105433  1  0  0.620729  0  3.973809  0  0  0.57544  0  4.261699  0  0  0.609677  0  4.256563  0  0  0.182526  0.552447  0  4.263736  0
C  C39  1  0.83078412  0.26691304  0.14894923  1  0  0.620883  0  3.973647  0  0  0.575616  0  4.261497  0  0  0.609855  0  4.256354  0  0  0.182584  0.552623  0  4.263537  0
C  C40  1  0.05700701  0.67540074  0.84393780  1  0  -0.062781  0  3.74571  0  0  -0.036821  0  3.982483  0  0  -0.047733  0  4.006094  0  0  -0.017219  -0.030004  0  3.966715  0
C  C41  1  0.94299377  0.32460010  0.15606210  1  0  -0.062821  0  3.745614  0  0  -0.036868  0  3.982393  0  0  -0.04778  0  4.006003  0  0  -0.01722  -0.030051  0  3.966627  0
C  C42  1  0.09169115  0.53912100  0.84462416  1  0  -0.045915  0  3.679311  0  0  -0.085446  0  3.931455  0  0  -0.080533  0  3.949521  0  0  -0.066473  -0.088787  0  3.919245  0
C  C43  1  0.90830926  0.46088086  0.15537643  1  0  -0.045908  0  3.679234  0  0  -0.085427  0  3.931389  0  0  -0.080514  0  3.949448  0  0  -0.066459  -0.088769  0  3.919179  0
C  C44  1  0.12466434  0.56925317  0.53398549  1  0  -0.057502  0  3.77199  0  0  -0.071995  0  4.022057  0  0  -0.074172  0  4.045157  0  0  -0.091399  -0.070492  0  4.007694  0
C  C45  1  0.87533713  0.43074570  0.46601651  1  0  -0.057499  0  3.771926  0  0  -0.071987  0  4.021988  0  0  -0.074164  0  4.045089  0  0  -0.091398  -0.07049  0  4.007632  0
C  C46  1  0.91713013  0.75721487  0.83899753  1  0  -0.041631  0  3.659311  0  0  -0.081633  0  3.906952  0  0  -0.076318  0  3.922914  0  0  -0.065673  -0.084004  0  3.895923  0
C  C47  1  0.08287092  0.24278797  0.16100194  1  0  -0.04162  0  3.659439  0  0  -0.081628  0  3.907083  0  0  -0.076309  0  3.923047  0  0  -0.065683  -0.083998  0  3.896056  0
C  C48  1  0.66126707  0.78954945  0.83321012  1  0  0.646064  0  3.916634  0  0  0.591765  0  4.212852  0  0  0.626087  0  4.206582  0  0  0.202066  0.568585  0  4.216007  0
C  C49  1  0.33873436  0.21045235  0.16678691  1  0  0.646127  0  3.916626  0  0  0.591818  0  4.212836  0  0  0.626143  0  4.206562  0  0  0.202065  0.568638  0  4.215993  0
C  C50  1  0.84779869  0.56696968  0.83650085  1  0  -0.038175  0  3.666166  0  0  -0.078952  0  3.917026  0  0  -0.073137  0  3.934042  0  0  -0.068649  -0.082369  0  3.905428  0
C  C51  1  0.15220201  0.43303416  0.16349843  1  0  -0.038133  0  3.665972  0  0  -0.0789  0  3.91685  0  0  -0.073086  0  3.933864  0  0  -0.068636  -0.082317  0  3.905251  0
C  C52  1  0.98727173  0.48460888  0.84027882  1  0  -0.098512  0  3.798502  0  0  -0.071366  0  4.035238  0  0  -0.083959  0  4.060385  0  0  -0.021676  -0.063105  0  4.018455  0
C  C53  1  0.01272836  0.51539394  0.15971896  1  0  -0.098467  0  3.798249  0  0  -0.071332  0  4.035022  0  0  -0.083919  0  4.060157  0  0  -0.021672  -0.06307  0  4.01824  0
C  C54  1  0.81207834  0.70355415  0.83576868  1  0  -0.066687  0  3.741491  0  0  -0.040097  0  3.979886  0  0  -0.050723  0  4.002789  0  0  -0.016146  -0.033608  0  3.964636  0
C  C55  1  0.18792335  0.29644967  0.16422967  1  0  -0.066819  0  3.741607  0  0  -0.040207  0  3.979971  0  0  -0.050835  0  4.002875  0  0  -0.016187  -0.033718  0  3.964722  0
C  C56  1  0.55800585  0.67214929  0.22541385  1  0  0.113884  0  3.692257  0  0  0.058346  0  3.973726  0  0  0.068438  0  3.98578  0  0  0.142351  0.051752  0  3.965441  0
C  C57  1  0.44199534  0.32784758  0.77458858  1  0  0.113907  0  3.692204  0  0  0.058378  0  3.973675  0  0  0.068469  0  3.985727  0  0  0.142349  0.051784  0  3.96539  0
C  C58  1  0.41524452  0.08057546  0.65002381  1  0  0.175406  0  3.620889  0  0  0.09698  0  3.88909  0  0  0.121738  0  3.903343  0  0  0.164734  0.087248  0  3.881537  0
C  C59  1  0.58475173  0.91942437  0.34997483  1  0  0.175575  0  3.620773  0  0  0.097201  0  3.88896  0  0  0.121905  0  3.903201  0  0  0.164839  0.087468  0  3.88141  0
C  C60  1  0.02906344  0.34019919  0.83986564  1  0  0.657742  0  3.792231  0  0  0.607472  0  4.088267  0  0  0.641036  0  4.080126  0  0  0.241943  0.58437  0  4.093696  0
C  C61  1  0.97094130  0.65979867  0.16013725  1  0  0.657922  0  3.792003  0  0  0.60762  0  4.088095  0  0  0.641186  0  4.079952  0  0  0.241988  0.584517  0  4.093525  0
C  C62  1  0.49286533  0.46797887  0.31266706  1  0  -0.051991  0  3.639996  0  0  -0.117744  0  3.885325  0  0  -0.11388  0  3.896068  0  0  -0.047271  -0.120434  0  3.878822  0
C  C63  1  0.50713552  0.53201898  0.68733432  1  0  -0.051968  0  3.640098  0  0  -0.117701  0  3.88539  0  0  -0.113829  0  3.896124  0  0  -0.047273  -0.120395  0  3.878887  0
C  C64  1  0.42866931  0.62355861  0.11333093  1  0  0.172801  0  3.610214  0  0  0.106295  0  3.878642  0  0  0.120192  0  3.890161  0  0  0.164171  0.097248  0  3.870306  0
C  C65  1  0.57133287  0.37643822  0.88666883  1  0  0.172712  0  3.610254  0  0  0.106193  0  3.878692  0  0  0.120088  0  3.890213  0  0  0.16412  0.097145  0  3.870356  0
C  C66  1  0.36454655  0.50438774  0.39089779  1  0  0.023138  0  3.7071  0  0  0.038457  0  3.949389  0  0  0.036612  0  3.975165  0  0  -0.013744  0.039687  0  3.93244  0
C  C67  1  0.63544962  0.49561511  0.60910110  1  0  0.023136  0  3.707244  0  0  0.038456  0  3.949555  0  0  0.036608  0  3.975331  0  0  -0.013805  0.039689  0  3.932602  0
C  C68  1  0.16195856  0.67053380  0.45972508  1  0  -0.075706  0  3.806007  0  0  -0.089443  0  4.055837  0  0  -0.091416  0  4.077625  0  0  -0.097136  -0.08783  0  4.040511  0
C  C69  1  0.83804061  0.32946605  0.54027512  1  0  -0.075639  0  3.805973  0  0  -0.08937  0  4.055796  0  0  -0.091342  0  4.077584  0  0  -0.097123  -0.087758  0  4.040471  0
C  C70  1  0.32707142  0.40181593  0.46675669  1  0  0.026911  0  3.700611  0  0  0.041698  0  3.944397  0  0  0.040346  0  3.966728  0  0  -0.011662  0.042052  0  3.928647  0
C  C71  1  0.67292840  0.59818489  0.53324152  1  0  0.027042  0  3.700647  0  0  0.041786  0  3.944407  0  0  0.040436  0  3.966743  0  0  -0.011602  0.042139  0  3.928661  0
C  C72  1  0.28099023  0.63768167  0.38862726  1  0  -0.133167  0  3.79563  0  0  -0.15633  0  4.051999  0  0  -0.158913  0  4.07417  0  0  -0.10271  -0.154122  0  4.036203  0
C  C73  1  0.71900825  0.36232016  0.61137170  1  0  -0.133293  0  3.795704  0  0  -0.156467  0  4.0521  0  0  -0.159051  0  4.074274  0  0  -0.102753  -0.154258  0  4.036301  0
C  C74  1  0.41853394  0.25770455  0.46897434  1  0  -0.06434  0  3.65414  0  0  -0.144223  0  3.905819  0  0  -0.131322  0  3.919076  0  0  -0.044234  -0.146179  0  3.89852  0
C  C75  1  0.58146365  0.74229427  0.53102354  1  0  -0.064481  0  3.6543  0  0  -0.144168  0  3.905828  0  0  -0.131309  0  3.91906  0  0  -0.044232  -0.146126  0  3.898528  0
C  C76  1  0.20712702  0.43576563  0.53694563  1  0  -0.128548  0  3.762365  0  0  -0.150074  0  4.01662  0  0  -0.152139  0  4.036809  0  0  -0.097458  -0.148848  0  4.003879  0
C  C77  1  0.79287314  0.56423421  0.46305363  1  0  -0.128619  0  3.76227  0  0  -0.150133  0  4.016539  0  0  -0.1522  0  4.03673  0  0  -0.097473  -0.148906  0  4.003798  0
C  C78  1  0.23630587  0.04550257  0.60218696  1  0  0.19225  0  3.734917  0  0  0.140354  0  4.024204  0  0  0.152532  0  4.033886  0  0  0.142916  0.13261  0  4.015577  0
C  C79  1  0.76369100  0.95449829  0.39781317  1  0  0.192279  0  3.73489  0  0  0.140392  0  4.024167  0  0  0.152571  0  4.033862  0  0  0.14294  0.132649  0  4.01554  0
N  N80  1  0.49718751  0.57990076  0.21949369  1  0  -0.075349  0  3.571351  0  0  0.017401  0  3.793896  0  0  0.001883  0  3.816955  0  0  -0.237157  0.027689  0  3.77819  0
N  N81  1  0.50281139  0.42009710  0.78050694  1  0  -0.075391  0  3.571183  0  0  0.017352  0  3.793753  0  0  0.001837  0  3.816797  0  0  -0.237196  0.027639  0  3.778049  0
N  N82  1  0.44617441  0.73666689  0.05939315  1  0  -0.26641  0  3.17518  0  0  -0.195989  0  3.461599  0  0  -0.21461  0  3.47917  0  0  -0.239803  -0.183307  0  3.449537  0
N  N83  1  0.55383008  0.26332893  0.94060667  1  0  -0.266343  0  3.175272  0  0  -0.195916  0  3.46169  0  0  -0.214538  0  3.479267  0  0  -0.239731  -0.183233  0  3.449628  0
N  N84  1  0.25169848  0.13803923  0.51145958  1  0  -0.275299  0  2.821746  0  0  -0.27622  0  3.084383  0  0  -0.274834  0  3.10334  0  0  -0.228587  -0.271263  0  3.075654  0
N  N85  1  0.74829607  0.86196265  0.48854137  1  0  -0.275512  0  2.821944  0  0  -0.276377  0  3.084608  0  0  -0.275039  0  3.10354  0  0  -0.228704  -0.27142  0  3.075878  0
N  N86  1  0.33485119  0.00696951  0.68894550  1  0  -0.399613  0  3.192656  0  0  -0.327441  0  3.481979  0  0  -0.34918  0  3.491456  0  0  -0.343939  -0.312371  0  3.472887  0
N  N87  1  0.66514736  0.99302933  0.31105407  1  0  -0.399723  0  3.192684  0  0  -0.327563  0  3.482006  0  0  -0.349302  0  3.491501  0  0  -0.343987  -0.312493  0  3.472915  0
N  N88  1  0.36634364  0.15946122  0.54395047  1  0  0.0406  0  3.56621  0  0  0.158763  0  3.75839  0  0  0.119103  0  3.818773  0  0  -0.137813  0.166075  0  3.741698  0
N  N89  1  0.63365395  0.84053761  0.45604829  1  0  0.040808  0  3.566377  0  0  0.158778  0  3.758708  0  0  0.11926  0  3.818927  0  0  -0.137755  0.16609  0  3.742015  0
N  N90  1  0.52882941  0.76815484  0.12961175  1  0  -0.20132  0  2.912503  0  0  -0.184724  0  3.189256  0  0  -0.191043  0  3.204403  0  0  -0.224678  -0.180793  0  3.179243  0
N  N91  1  0.47117313  0.23184099  0.87038818  1  0  -0.201298  0  2.91251  0  0  -0.184704  0  3.189255  0  0  -0.191024  0  3.204403  0  0  -0.224658  -0.180774  0  3.179243  0
O  O92  1  0.29196456  0.65325590  0.87579465  1  0  -0.642275  0  1.940104  0  0  -0.591068  0  2.175976  0  0  -0.617423  0  2.167956  0  0  -0.334952  -0.571422  0  2.180891  0
O  O93  1  0.70803510  0.34673696  0.12420783  1  0  -0.642319  0  1.94  0  0  -0.591116  0  2.175886  0  0  -0.617474  0  2.167866  0  0  -0.334956  -0.571469  0  2.180803  0
O  O94  1  0.13537107  0.86050511  0.83245238  1  0  -0.656158  0  1.923545  0  0  -0.59651  0  2.151002  0  0  -0.624527  0  2.139601  0  0  -0.351984  -0.576248  0  2.157856  0
O  O95  1  0.86463431  0.13949086  0.16755786  1  0  -0.65622  0  1.923576  0  0  -0.596592  0  2.151022  0  0  -0.624608  0  2.139616  0  0  -0.351991  -0.576331  0  2.157878  0
O  O96  1  0.62440376  0.90595470  0.85596573  1  0  -0.636032  0  1.977433  0  0  -0.580912  0  2.205979  0  0  -0.606296  0  2.195156  0  0  -0.31633  -0.562589  0  2.212691  0
O  O97  1  0.37559538  0.09404809  0.14402949  1  0  -0.636036  0  1.97744  0  0  -0.580935  0  2.205982  0  0  -0.606324  0  2.195164  0  0  -0.316351  -0.562613  0  2.212694  0
O  O98  1  0.57522361  0.73683959  0.80811473  1  0  -0.662202  0  2.060501  0  0  -0.597051  0  2.314711  0  0  -0.626167  0  2.305445  0  0  -0.332078  -0.575943  0  2.321074  0
O  O99  1  0.42477815  0.26316124  0.19188510  1  0  -0.662248  0  2.060518  0  0  -0.597057  0  2.314711  0  0  -0.626169  0  2.30544  0  0  -0.332062  -0.575948  0  2.321074  0
O  O100  1  0.14651665  0.27204827  0.81213161  1  0  -0.560005  0  1.99626  0  0  -0.511758  0  2.215745  0  0  -0.533168  0  2.208073  0  0  -0.276025  -0.497114  0  2.220918  0
O  O101  1  0.85347975  0.72795664  0.18787210  1  0  -0.560178  0  1.996067  0  0  -0.511884  0  2.21553  0  0  -0.533297  0  2.207856  0  0  -0.276063  -0.497239  0  2.220704  0
O  O102  1  0.92728663  0.28787737  0.87361930  1  0  -0.530686  0  2.059247  0  0  -0.483987  0  2.266346  0  0  -0.505064  0  2.25351  0  0  -0.315209  -0.469082  0  2.274344  0
O  O103  1  0.07271282  0.71212448  0.12638047  1  0  -0.530715  0  2.059278  0  0  -0.484009  0  2.266393  0  0  -0.505087  0  2.253555  0  0  -0.315199  -0.469104  0  2.274392  0
O  O104  1  0.25602075  0.03729882  0.97209238  1  0  -0.851851  0  1.862064  0  0  -0.791326  0  2.055603  0  0  -0.814044  0  2.020591  0  0  -0.599149  -0.774858  0  2.080663  0
O  O105  1  0.74397974  0.96270004  0.02790882  1  0  -0.85186  0  1.862045  0  0  -0.791352  0  2.05557  0  0  -0.814071  0  2.020555  0  0  -0.599133  -0.774884  0  2.080629  0
