# generated using pymatgen
data_DyH6C6SNO8
_symmetry_space_group_name_H-M   'P 1'
_cell_length_a   7.53610984
_cell_length_b   9.32645522
_cell_length_c   14.75509276
_cell_angle_alpha   89.99991018
_cell_angle_beta   89.99998946
_cell_angle_gamma   101.37124609
_symmetry_Int_Tables_number   1
_chemical_formula_structural   DyH6C6SNO8
_chemical_formula_sum   'Dy4 H24 C24 S4 N4 O32'
_cell_volume   1016.70719109
_cell_formula_units_Z   4
loop_
 _symmetry_equiv_pos_site_id
 _symmetry_equiv_pos_as_xyz
  1  'x, y, z'
loop_
 _atom_site_type_symbol
 _atom_site_label
 _atom_site_symmetry_multiplicity
 _atom_site_fract_x
 _atom_site_fract_y
 _atom_site_fract_z
 _atom_site_occupancy
 _atom_site_hle17_bader_spin_density
 _atom_site_hle17_ddec_charge
 _atom_site_hle17_ddec_spin_density
 _atom_site_hle17_ddec_sum_bond_order
 _atom_site_hle17_magmom
 _atom_site_hse06_10hf_bader_spin_density
 _atom_site_hse06_10hf_ddec_charge
 _atom_site_hse06_10hf_ddec_spin_density
 _atom_site_hse06_10hf_ddec_sum_bond_order
 _atom_site_hse06_10hf_magmom
 _atom_site_hse06_bader_spin_density
 _atom_site_hse06_ddec_charge
 _atom_site_hse06_ddec_spin_density
 _atom_site_hse06_ddec_sum_bond_order
 _atom_site_hse06_magmom
 _atom_site_pbe_bader_spin_density
 _atom_site_pbe_cm5_charge
 _atom_site_pbe_ddec_charge
 _atom_site_pbe_ddec_spin_density
 _atom_site_pbe_ddec_sum_bond_order
 _atom_site_pbe_magmom
Dy  Dy0  1  0.13747291  0.27791957  0.04402737  1  0  2.27267  0  1.726075  0  0  2.144474  0  2.197545  0  0  2.254151  0  2.032287  0  0  1.568915  2.108932  0  2.233871  0
Dy  Dy1  1  0.36253047  0.72208084  0.54402670  1  0  2.272649  0  1.72607  0  0  2.144489  0  2.197497  0  0  2.254132  0  2.032294  0  0  1.56891  2.108956  0  2.233831  0
Dy  Dy2  1  0.86252844  0.72207740  0.95597530  1  0  2.272638  0  1.726106  0  0  2.144438  0  2.197588  0  0  2.254108  0  2.032325  0  0  1.568917  2.10891  0  2.233922  0
Dy  Dy3  1  0.63747450  0.27792597  0.45596986  1  0  2.272616  0  1.726135  0  0  2.144377  0  2.197688  0  0  2.254103  0  2.032355  0  0  1.56891  2.108845  0  2.234022  0
H  H4  1  0.14880797  0.04604144  0.44824656  1  0  0.138697  0  0.930834  0  0  0.143901  0  0.993152  0  0  0.148414  0  0.988532  0  0  0.141436  0.14054  0  0.996549  0
H  H5  1  0.35118170  0.95395779  0.94824364  1  0  0.138656  0  0.930828  0  0  0.143879  0  0.99315  0  0  0.148391  0  0.988532  0  0  0.141443  0.140522  0  0.996548  0
H  H6  1  0.85119522  0.95395772  0.55175407  1  0  0.13859  0  0.930998  0  0  0.143865  0  0.993228  0  0  0.148366  0  0.988624  0  0  0.14141  0.140503  0  0.99663  0
H  H7  1  0.64881244  0.04604239  0.05175767  1  0  0.138568  0  0.930896  0  0  0.143831  0  0.993158  0  0  0.148343  0  0.98854  0  0  0.141402  0.140468  0  0.996559  0
H  H8  1  0.10324771  0.12094613  0.28885275  1  0  0.13419  0  0.958653  0  0  0.138336  0  1.021617  0  0  0.142829  0  1.018469  0  0  0.121851  0.135098  0  1.024002  0
H  H9  1  0.39675542  0.87905363  0.78885057  1  0  0.134224  0  0.958616  0  0  0.13836  0  1.021577  0  0  0.142857  0  1.018424  0  0  0.121868  0.135129  0  1.023962  0
H  H10  1  0.89675871  0.87904978  0.71114585  1  0  0.134189  0  0.958585  0  0  0.138326  0  1.021563  0  0  0.142819  0  1.018414  0  0  0.121823  0.135092  0  1.02395  0
H  H11  1  0.60324429  0.12094769  0.21114938  1  0  0.134217  0  0.958611  0  0  0.138363  0  1.021568  0  0  0.14286  0  1.018416  0  0  0.12186  0.135127  0  1.023953  0
H  H12  1  0.91742269  0.66425757  0.22292131  1  0  0.135298  0  0.937046  0  0  0.142625  0  0.996097  0  0  0.14668  0  0.993473  0  0  0.122353  0.139682  0  0.998082  0
H  H13  1  0.58257226  0.33574526  0.72292241  1  0  0.13528  0  0.937066  0  0  0.142605  0  0.996115  0  0  0.146663  0  0.99348  0  0  0.122345  0.139639  0  0.998133  0
H  H14  1  0.08257461  0.33574482  0.77707526  1  0  0.135285  0  0.937063  0  0  0.142617  0  0.996106  0  0  0.146676  0  0.993465  0  0  0.122342  0.139664  0  0.998106  0
H  H15  1  0.41742372  0.66425712  0.27707755  1  0  0.135293  0  0.937062  0  0  0.142618  0  0.996115  0  0  0.146674  0  0.993489  0  0  0.122355  0.139675  0  0.998101  0
H  H16  1  0.96028296  0.60696033  0.38813954  1  0  0.133714  0  0.933151  0  0  0.13877  0  0.996676  0  0  0.142926  0  0.992453  0  0  0.143464  0.135699  0  1.000059  0
H  H17  1  0.53969833  0.39303541  0.88813923  1  0  0.133653  0  0.933245  0  0  0.138726  0  0.996753  0  0  0.142879  0  0.992537  0  0  0.143453  0.135653  0  1.000136  0
H  H18  1  0.03970617  0.39303544  0.61185973  1  0  0.133587  0  0.933265  0  0  0.138713  0  0.996691  0  0  0.142866  0  0.992471  0  0  0.143449  0.135642  0  1.000074  0
H  H19  1  0.46029397  0.60696258  0.11186004  1  0  0.133714  0  0.933186  0  0  0.138767  0  0.996721  0  0  0.142922  0  0.992502  0  0  0.14347  0.135695  0  1.000104  0
H  H20  1  0.29030305  0.36371297  0.22410141  1  0  0.448102  0  0.845565  0  0  0.416581  0  0.908824  0  0  0.427071  0  0.893722  0  0  0.305224  0.409317  0  0.919396  0
H  H21  1  0.20970362  0.63628480  0.72410221  1  0  0.448016  0  0.845665  0  0  0.416496  0  0.908919  0  0  0.42699  0  0.893815  0  0  0.305216  0.409238  0  0.919482  0
H  H22  1  0.70970305  0.63628730  0.77590057  1  0  0.447962  0  0.845752  0  0  0.416468  0  0.908955  0  0  0.426953  0  0.893864  0  0  0.305194  0.409207  0  0.919523  0
H  H23  1  0.79030166  0.36371765  0.27589978  1  0  0.448088  0  0.845584  0  0  0.41655  0  0.908868  0  0  0.427048  0  0.893754  0  0  0.305234  0.409287  0  0.919437  0
H  H24  1  0.46692955  0.35186255  0.16435594  1  0  0.457832  0  0.832809  0  0  0.425604  0  0.896245  0  0  0.436905  0  0.87989  0  0  0.306325  0.417888  0  0.90745  0
H  H25  1  0.03307775  0.64813211  0.66435606  1  0  0.457729  0  0.832981  0  0  0.425542  0  0.896339  0  0  0.436831  0  0.880004  0  0  0.306323  0.417826  0  0.907543  0
H  H26  1  0.53307896  0.64813665  0.83564333  1  0  0.457708  0  0.833006  0  0  0.425508  0  0.89638  0  0  0.436807  0  0.880031  0  0  0.306325  0.417796  0  0.907579  0
H  H27  1  0.96692620  0.35187033  0.33564186  1  0  0.457687  0  0.833034  0  0  0.425503  0  0.896383  0  0  0.436795  0  0.880044  0  0  0.306305  0.417787  0  0.907587  0
C  C28  1  0.09343922  0.96759788  0.39613325  1  0  0.018799  0  3.558857  0  0  -0.023509  0  3.824559  0  0  -0.016396  0  3.833727  0  0  0.052899  -0.027772  0  3.818017  0
C  C29  1  0.40655690  0.03240045  0.89613056  1  0  0.018953  0  3.558885  0  0  -0.023434  0  3.82463  0  0  -0.016321  0  3.833801  0  0  0.052932  -0.0277  0  3.818096  0
C  C30  1  0.90655339  0.03239573  0.60386873  1  0  0.018911  0  3.559078  0  0  -0.023455  0  3.824758  0  0  -0.016337  0  3.833938  0  0  0.052908  -0.027718  0  3.818218  0
C  C31  1  0.59343857  0.96759975  0.10386939  1  0  0.019091  0  3.558815  0  0  -0.023271  0  3.824526  0  0  -0.016157  0  3.833696  0  0  0.053002  -0.027536  0  3.817984  0
C  C32  1  0.06877823  0.00597759  0.30736031  1  0  -0.079405  0  3.693363  0  0  -0.100636  0  3.945797  0  0  -0.103654  0  3.962408  0  0  -0.063137  -0.098541  0  3.933786  0
C  C33  1  0.43121715  0.99402315  0.80735802  1  0  -0.079578  0  3.693545  0  0  -0.100749  0  3.945953  0  0  -0.103768  0  3.962562  0  0  -0.063235  -0.09866  0  3.933954  0
C  C34  1  0.93122337  0.99402046  0.69263693  1  0  -0.079511  0  3.693304  0  0  -0.100713  0  3.945728  0  0  -0.103734  0  3.96234  0  0  -0.063136  -0.098621  0  3.933727  0
C  C35  1  0.56877857  0.00597814  0.19264329  1  0  -0.079581  0  3.693491  0  0  -0.100821  0  3.94597  0  0  -0.103841  0  3.962579  0  0  -0.063249  -0.098727  0  3.93396  0
C  C36  1  0.00809136  0.89794464  0.24268661  1  0  -0.047496  0  3.728565  0  0  -0.036506  0  3.965333  0  0  -0.039788  0  3.984835  0  0  -0.002861  -0.033717  0  3.950414  0
C  C37  1  0.49189852  0.10205514  0.74268587  1  0  -0.047584  0  3.728746  0  0  -0.036549  0  3.965539  0  0  -0.039836  0  3.985035  0  0  -0.00285  -0.033757  0  3.950622  0
C  C38  1  0.99190753  0.10205886  0.75730995  1  0  -0.047481  0  3.728611  0  0  -0.036525  0  3.96538  0  0  -0.039813  0  3.984872  0  0  -0.002927  -0.033735  0  3.950465  0
C  C39  1  0.50809081  0.89794718  0.25731476  1  0  -0.047582  0  3.728666  0  0  -0.036566  0  3.965419  0  0  -0.039848  0  3.984917  0  0  -0.002897  -0.033778  0  3.950501  0
C  C40  1  0.96469646  0.75188252  0.27106735  1  0  -0.076025  0  3.682722  0  0  -0.095734  0  3.929774  0  0  -0.098887  0  3.947717  0  0  -0.059073  -0.09351  0  3.917049  0
C  C41  1  0.53529635  0.24811689  0.77106651  1  0  -0.076012  0  3.682715  0  0  -0.095713  0  3.929746  0  0  -0.098869  0  3.947702  0  0  -0.05907  -0.093474  0  3.917047  0
C  C42  1  0.03530540  0.24811663  0.72892989  1  0  -0.07616  0  3.682879  0  0  -0.09591  0  3.929957  0  0  -0.099063  0  3.947906  0  0  -0.05912  -0.093683  0  3.917249  0
C  C43  1  0.46469513  0.75188327  0.22893277  1  0  -0.075999  0  3.682632  0  0  -0.095707  0  3.929673  0  0  -0.09886  0  3.947617  0  0  -0.059079  -0.093483  0  3.916947  0
C  C44  1  0.98822445  0.71716895  0.36077741  1  0  0.037332  0  3.528197  0  0  -0.001912  0  3.783935  0  0  0.004891  0  3.794111  0  0  0.061612  -0.006207  0  3.777213  0
C  C45  1  0.51176802  0.28282913  0.86077653  1  0  0.037469  0  3.528373  0  0  -0.001781  0  3.78407  0  0  0.005021  0  3.79425  0  0  0.061676  -0.006075  0  3.777342  0
C  C46  1  0.01176576  0.28282575  0.63922119  1  0  0.037529  0  3.528166  0  0  -0.001677  0  3.783738  0  0  0.00513  0  3.793911  0  0  0.061719  -0.005973  0  3.777016  0
C  C47  1  0.48822827  0.71716888  0.13922342  1  0  0.03735  0  3.528258  0  0  -0.001904  0  3.784003  0  0  0.004898  0  3.794184  0  0  0.061619  -0.006197  0  3.777275  0
C  C48  1  0.99709108  0.93904387  0.14506805  1  0  0.748394  0  3.849964  0  0  0.705781  0  4.134117  0  0  0.742372  0  4.122772  0  0  0.248361  0.681428  0  4.142519  0
C  C49  1  0.50290344  0.06095698  0.64506943  1  0  0.74852  0  3.849806  0  0  0.705729  0  4.134269  0  0  0.742336  0  4.122896  0  0  0.248291  0.681377  0  4.142672  0
C  C50  1  0.00291452  0.06095421  0.85492784  1  0  0.748513  0  3.84988  0  0  0.705968  0  4.133926  0  0  0.742585  0  4.122537  0  0  0.248417  0.681615  0  4.142334  0
C  C51  1  0.49708880  0.93904646  0.35493324  1  0  0.748564  0  3.849951  0  0  0.705918  0  4.134143  0  0  0.742517  0  4.122784  0  0  0.248426  0.681567  0  4.142544  0
S  S52  1  0.81543576  0.40079106  0.09423435  1  0  1.593436  0  5.859851  0  0  1.471061  0  6.403585  0  0  1.526375  0  6.377207  0  0  0.561094  1.431803  0  6.428333  0
S  S53  1  0.68456894  0.59920782  0.59423924  1  0  1.593765  0  5.859535  0  0  1.471462  0  6.403217  0  0  1.526746  0  6.376847  0  0  0.561313  1.432205  0  6.427975  0
S  S54  1  0.18456692  0.59920591  0.90576560  1  0  1.593481  0  5.859925  0  0  1.47111  0  6.40367  0  0  1.526423  0  6.377293  0  0  0.5612  1.43186  0  6.428413  0
S  S55  1  0.31543659  0.40079573  0.40576206  1  0  1.593532  0  5.859987  0  0  1.471211  0  6.40368  0  0  1.526494  0  6.377324  0  0  0.561194  1.431954  0  6.428429  0
N  N56  1  0.05798766  0.82432667  0.42087190  1  0  0.294333  0  3.7107  0  0  0.346981  0  3.973286  0  0  0.347187  0  3.997804  0  0  -0.107859  0.345861  0  3.958959  0
N  N57  1  0.44201216  0.17567053  0.92086906  1  0  0.29428  0  3.710895  0  0  0.346957  0  3.973472  0  0  0.347162  0  3.997993  0  0  -0.107864  0.345839  0  3.959144  0
N  N58  1  0.94200280  0.17566911  0.57912873  1  0  0.294429  0  3.71063  0  0  0.347063  0  3.973251  0  0  0.347269  0  3.997767  0  0  -0.107828  0.345945  0  3.958922  0
N  N59  1  0.55799077  0.82432754  0.07913089  1  0  0.294226  0  3.71089  0  0  0.346882  0  3.973478  0  0  0.347086  0  3.997999  0  0  -0.107883  0.345763  0  3.959151  0
O  O60  1  0.04650075  0.07345660  0.12464913  1  0  -0.77514  0  2.060817  0  0  -0.729258  0  2.327584  0  0  -0.764888  0  2.307198  0  0  -0.422645  -0.712612  0  2.338343  0
O  O61  1  0.45349236  0.92655115  0.62464487  1  0  -0.775146  0  2.060797  0  0  -0.729226  0  2.327686  0  0  -0.764852  0  2.307293  0  0  -0.422603  -0.712581  0  2.338451  0
O  O62  1  0.95348700  0.92654462  0.87534811  1  0  -0.77521  0  2.060743  0  0  -0.729363  0  2.327512  0  0  -0.765002  0  2.30711  0  0  -0.422634  -0.71272  0  2.338279  0
O  O63  1  0.54650248  0.07345777  0.37535305  1  0  -0.775181  0  2.060804  0  0  -0.72928  0  2.327583  0  0  -0.764923  0  2.307191  0  0  -0.422663  -0.712631  0  2.338339  0
O  O64  1  0.94037326  0.83788778  0.08900542  1  0  -0.744762  0  2.095407  0  0  -0.698727  0  2.358818  0  0  -0.733112  0  2.342465  0  0  -0.405389  -0.681732  0  2.367302  0
O  O65  1  0.55961789  0.16210991  0.58900399  1  0  -0.744773  0  2.095277  0  0  -0.698685  0  2.358817  0  0  -0.733087  0  2.342455  0  0  -0.405363  -0.681684  0  2.36729  0
O  O66  1  0.05961966  0.16210147  0.91099453  1  0  -0.744763  0  2.095404  0  0  -0.698776  0  2.358844  0  0  -0.733176  0  2.34248  0  0  -0.405399  -0.681761  0  2.367284  0
O  O67  1  0.44037067  0.83788913  0.41099393  1  0  -0.744825  0  2.095453  0  0  -0.698786  0  2.358878  0  0  -0.73317  0  2.342524  0  0  -0.405405  -0.681795  0  2.367368  0
O  O68  1  0.09568047  0.78859927  0.50430752  1  0  -0.638576  0  1.841848  0  0  -0.60629  0  2.104668  0  0  -0.640187  0  2.101859  0  0  -0.323975  -0.588272  0  2.104769  0
O  O69  1  0.40432669  0.21140018  0.00430551  1  0  -0.638578  0  1.841798  0  0  -0.60629  0  2.104587  0  0  -0.640192  0  2.101777  0  0  -0.32395  -0.588266  0  2.104677  0
O  O70  1  0.90432216  0.21140316  0.49569176  1  0  -0.638597  0  1.84173  0  0  -0.606324  0  2.104587  0  0  -0.640232  0  2.101773  0  0  -0.32396  -0.588304  0  2.104687  0
O  O71  1  0.59568765  0.78860125  0.99569648  1  0  -0.638507  0  1.841917  0  0  -0.606208  0  2.104712  0  0  -0.640105  0  2.101892  0  0  -0.323949  -0.588191  0  2.104816  0
O  O72  1  0.00462754  0.44582023  0.12984105  1  0  -0.802204  0  1.926309  0  0  -0.752344  0  2.185273  0  0  -0.782091  0  2.169067  0  0  -0.417291  -0.736628  0  2.196842  0
O  O73  1  0.49538050  0.55418326  0.62984664  1  0  -0.802338  0  1.926324  0  0  -0.752464  0  2.185268  0  0  -0.782205  0  2.169068  0  0  -0.417247  -0.736743  0  2.196838  0
O  O74  1  0.99537723  0.55418003  0.87016297  1  0  -0.802254  0  1.926361  0  0  -0.752361  0  2.185319  0  0  -0.782082  0  2.169061  0  0  -0.417291  -0.736649  0  2.1969  0
O  O75  1  0.50462922  0.44582687  0.37015941  1  0  -0.802254  0  1.926506  0  0  -0.752341  0  2.185392  0  0  -0.782089  0  2.169187  0  0  -0.417257  -0.736622  0  2.196961  0
O  O76  1  0.82211587  0.27704489  0.03053505  1  0  -0.786879  0  1.955393  0  0  -0.738635  0  2.217486  0  0  -0.767964  0  2.202212  0  0  -0.410754  -0.722528  0  2.228007  0
O  O77  1  0.67789206  0.72295636  0.53054185  1  0  -0.786847  0  1.955474  0  0  -0.738655  0  2.217563  0  0  -0.767992  0  2.202327  0  0  -0.410747  -0.722543  0  2.228088  0
O  O78  1  0.17789295  0.72294994  0.96946423  1  0  -0.786786  0  1.955361  0  0  -0.738597  0  2.217506  0  0  -0.767938  0  2.20226  0  0  -0.410771  -0.722483  0  2.228023  0
O  O79  1  0.32211031  0.27704497  0.46945810  1  0  -0.786911  0  1.955566  0  0  -0.73868  0  2.217632  0  0  -0.768037  0  2.202419  0  0  -0.41078  -0.722572  0  2.228158  0
O  O80  1  0.75742970  0.52300203  0.04531355  1  0  -0.822435  0  2.033344  0  0  -0.775021  0  2.326272  0  0  -0.806065  0  2.303043  0  0  -0.437428  -0.759815  0  2.341049  0
O  O81  1  0.74257295  0.47699369  0.54531247  1  0  -0.822589  0  2.03309  0  0  -0.775187  0  2.326033  0  0  -0.806245  0  2.302815  0  0  -0.437529  -0.75998  0  2.340813  0
O  O82  1  0.24257247  0.47699276  0.95469046  1  0  -0.822503  0  2.033284  0  0  -0.77509  0  2.326227  0  0  -0.806139  0  2.303  0  0  -0.437529  -0.759882  0  2.340998  0
O  O83  1  0.25743530  0.52300442  0.45468816  1  0  -0.822467  0  2.033333  0  0  -0.775083  0  2.326277  0  0  -0.806122  0  2.303066  0  0  -0.437448  -0.759879  0  2.341054  0
O  O84  1  0.68946836  0.35583485  0.17099364  1  0  -0.708651  0  1.988618  0  0  -0.635474  0  2.213302  0  0  -0.658024  0  2.195319  0  0  -0.321495  -0.618921  0  2.22491  0
O  O85  1  0.81053632  0.64415837  0.67099915  1  0  -0.708642  0  1.98852  0  0  -0.635589  0  2.213254  0  0  -0.658059  0  2.195219  0  0  -0.321636  -0.619029  0  2.22486  0
O  O86  1  0.31053381  0.64415994  0.82900767  1  0  -0.708607  0  1.988705  0  0  -0.635449  0  2.213384  0  0  -0.657996  0  2.195403  0  0  -0.321501  -0.618918  0  2.225012  0
O  O87  1  0.18946364  0.35584404  0.32900283  1  0  -0.708591  0  1.988552  0  0  -0.635512  0  2.213274  0  0  -0.657992  0  2.195246  0  0  -0.321572  -0.618957  0  2.224881  0
O  O88  1  0.33591086  0.35628524  0.16139968  1  0  -0.931225  0  1.837062  0  0  -0.880051  0  2.040979  0  0  -0.908732  0  2.002624  0  0  -0.661642  -0.866002  0  2.064201  0
O  O89  1  0.16409664  0.64371598  0.66140046  1  0  -0.931062  0  1.837309  0  0  -0.879923  0  2.041242  0  0  -0.908599  0  2.002897  0  0  -0.661632  -0.865866  0  2.064456  0
O  O90  1  0.66409100  0.64371391  0.83860095  1  0  -0.930969  0  1.837413  0  0  -0.879811  0  2.041324  0  0  -0.908487  0  2.002971  0  0  -0.661581  -0.865751  0  2.06453  0
O  O91  1  0.83591074  0.35628976  0.33860017  1  0  -0.931071  0  1.837274  0  0  -0.879903  0  2.041209  0  0  -0.908593  0  2.002852  0  0  -0.661653  -0.865853  0  2.064433  0
