# generated using pymatgen
data_BaH12(CO)8
_symmetry_space_group_name_H-M   'P 1'
_cell_length_a   6.95061005
_cell_length_b   7.57619525
_cell_length_c   12.17290442
_cell_angle_alpha   106.71200000
_cell_angle_beta   105.11317508
_cell_angle_gamma   94.57049284
_symmetry_Int_Tables_number   1
_chemical_formula_structural   BaH12(CO)8
_chemical_formula_sum   'Ba2 H24 C16 O16'
_cell_volume   584.35542945
_cell_formula_units_Z   2
loop_
 _symmetry_equiv_pos_site_id
 _symmetry_equiv_pos_as_xyz
  1  'x, y, z'
loop_
 _atom_site_type_symbol
 _atom_site_label
 _atom_site_symmetry_multiplicity
 _atom_site_fract_x
 _atom_site_fract_y
 _atom_site_fract_z
 _atom_site_occupancy
 _atom_site_hle17_bader_spin_density
 _atom_site_hle17_ddec_charge
 _atom_site_hle17_ddec_spin_density
 _atom_site_hle17_ddec_sum_bond_order
 _atom_site_hle17_magmom
 _atom_site_hse06_10hf_bader_spin_density
 _atom_site_hse06_10hf_ddec_charge
 _atom_site_hse06_10hf_ddec_spin_density
 _atom_site_hse06_10hf_ddec_sum_bond_order
 _atom_site_hse06_10hf_magmom
 _atom_site_hse06_bader_spin_density
 _atom_site_hse06_ddec_charge
 _atom_site_hse06_ddec_spin_density
 _atom_site_hse06_ddec_sum_bond_order
 _atom_site_hse06_magmom
 _atom_site_pbe_bader_spin_density
 _atom_site_pbe_cm5_charge
 _atom_site_pbe_ddec_charge
 _atom_site_pbe_ddec_spin_density
 _atom_site_pbe_ddec_sum_bond_order
 _atom_site_pbe_magmom
Ba  Ba0  1  0.79093776  0.04077851  0.08177857  1  0  1.623805  0  1.236013  0  0  1.484803  0  1.640882  0  0  1.525643  0  1.593929  0  0  0.943511  1.454798  0  1.674199  0
Ba  Ba1  1  0.20906289  0.95921249  0.91822170  1  0  1.623835  0  1.236068  0  0  1.484837  0  1.640941  0  0  1.525675  0  1.593988  0  0  0.943521  1.454853  0  1.674231  0
H  H2  1  0.08089481  0.67393517  0.07239081  1  0  0.420131  0  0.885191  0  0  0.388578  0  0.949734  0  0  0.39942  0  0.933719  0  0  0.300798  0.380897  0  0.961075  0
H  H3  1  0.50904229  0.60216197  0.92784549  1  0  0.418838  0  0.886862  0  0  0.38798  0  0.950299  0  0  0.398842  0  0.93424  0  0  0.300392  0.380294  0  0.961666  0
H  H4  1  0.91909946  0.32606148  0.92760788  1  0  0.419998  0  0.88538  0  0  0.388499  0  0.949853  0  0  0.399342  0  0.933836  0  0  0.300736  0.380814  0  0.961199  0
H  H5  1  0.49095051  0.39783470  0.07215052  1  0  0.41887  0  0.88683  0  0  0.38799  0  0.950305  0  0  0.398854  0  0.934241  0  0  0.30042  0.380307  0  0.961667  0
H  H6  1  0.92162149  0.61749661  0.94259443  1  0  0.418402  0  0.880098  0  0  0.387362  0  0.946348  0  0  0.398114  0  0.930261  0  0  0.304418  0.379699  0  0.957814  0
H  H7  1  0.47907689  0.67481645  0.05757223  1  0  0.418717  0  0.879647  0  0  0.387685  0  0.945727  0  0  0.398426  0  0.929659  0  0  0.30481  0.38007  0  0.957121  0
H  H8  1  0.07837820  0.38249719  0.05740784  1  0  0.418428  0  0.880011  0  0  0.387387  0  0.9463  0  0  0.398141  0  0.930211  0  0  0.304442  0.379726  0  0.957763  0
H  H9  1  0.52091388  0.32517743  0.94242544  1  0  0.418725  0  0.879745  0  0  0.387712  0  0.945706  0  0  0.398452  0  0.929639  0  0  0.304853  0.380092  0  0.957107  0
H  H10  1  0.99305803  0.47789494  0.24431901  1  0  0.412056  0  0.892461  0  0  0.380149  0  0.95915  0  0  0.39043  0  0.943957  0  0  0.295594  0.372846  0  0.969931  0
H  H11  1  0.24912518  0.23463865  0.75568882  1  0  0.41232  0  0.891983  0  0  0.379986  0  0.959445  0  0  0.390298  0  0.944212  0  0  0.295577  0.372655  0  0.970272  0
H  H12  1  0.00693261  0.52209053  0.75568288  1  0  0.412076  0  0.89246  0  0  0.380158  0  0.959164  0  0  0.39044  0  0.943969  0  0  0.295575  0.372857  0  0.969941  0
H  H13  1  0.75087032  0.76535658  0.24431062  1  0  0.412357  0  0.891928  0  0  0.380014  0  0.959407  0  0  0.390325  0  0.944176  0  0  0.295585  0.372686  0  0.97023  0
H  H14  1  0.76341467  0.46900010  0.23830490  1  0  0.407794  0  0.882231  0  0  0.380107  0  0.951735  0  0  0.389616  0  0.937574  0  0  0.300431  0.373301  0  0.961889  0
H  H15  1  0.02558911  0.23207657  0.76178649  1  0  0.40746  0  0.881565  0  0  0.379646  0  0.95226  0  0  0.389173  0  0.938067  0  0  0.299983  0.372822  0  0.962436  0
H  H16  1  0.23657934  0.53099515  0.76169432  1  0  0.407808  0  0.882271  0  0  0.38013  0  0.951715  0  0  0.38964  0  0.937551  0  0  0.300438  0.373318  0  0.961878  0
H  H17  1  0.97440665  0.76792007  0.23821406  1  0  0.407491  0  0.881535  0  0  0.379662  0  0.952247  0  0  0.389192  0  0.938046  0  0  0.299974  0.372835  0  0.962424  0
H  H18  1  0.84286461  0.71180804  0.62391133  1  0  0.107368  0  0.955912  0  0  0.118729  0  1.014833  0  0  0.121983  0  1.012864  0  0  0.11355  0.116369  0  1.016375  0
H  H19  1  0.71931315  0.08749495  0.37632999  1  0  0.107159  0  0.957851  0  0  0.118455  0  1.016622  0  0  0.121732  0  1.014626  0  0  0.113275  0.116099  0  1.018136  0
H  H20  1  0.15712996  0.28821380  0.37609439  1  0  0.10729  0  0.955711  0  0  0.118625  0  1.014692  0  0  0.12188  0  1.012726  0  0  0.113516  0.116266  0  1.016227  0
H  H21  1  0.28068802  0.91251426  0.62366295  1  0  0.107258  0  0.957909  0  0  0.118475  0  1.016754  0  0  0.121753  0  1.014755  0  0  0.113283  0.116121  0  1.018268  0
H  H22  1  0.73313886  0.59974357  0.40271746  1  0  0.087015  0  0.979088  0  0  0.097524  0  1.042212  0  0  0.100839  0  1.039952  0  0  0.101647  0.095128  0  1.043897  0
H  H23  1  0.83106070  0.19756988  0.59753060  1  0  0.087879  0  0.980345  0  0  0.098451  0  1.043364  0  0  0.101704  0  1.041172  0  0  0.102692  0.096086  0  1.045022  0
H  H24  1  0.26687405  0.40025712  0.59728886  1  0  0.087101  0  0.979048  0  0  0.097511  0  1.042253  0  0  0.100823  0  1.039994  0  0  0.101669  0.095115  0  1.04394  0
H  H25  1  0.16895226  0.80243083  0.40246505  1  0  0.087905  0  0.980404  0  0  0.098521  0  1.043385  0  0  0.101735  0  1.041234  0  0  0.102679  0.096154  0  1.045047  0
C  C26  1  0.63656538  0.88677972  0.77325233  1  0  0.683141  0  3.907827  0  0  0.63577  0  4.196012  0  0  0.670667  0  4.186704  0  0  0.22428  0.612047  0  4.201442  0
C  C27  1  0.36343086  0.11323511  0.22674828  1  0  0.683357  0  3.907357  0  0  0.635982  0  4.195547  0  0  0.670872  0  4.186243  0  0  0.224484  0.61226  0  4.200979  0
C  C28  1  0.56897639  0.81930294  0.63826058  1  0  -0.058931  0  3.731652  0  0  -0.040432  0  3.970568  0  0  -0.046929  0  3.992271  0  0  -0.007092  -0.036173  0  3.955928  0
C  C29  1  0.43105036  0.18071584  0.36175599  1  0  -0.058869  0  3.731757  0  0  -0.040355  0  3.970655  0  0  -0.04684  0  3.992357  0  0  -0.007114  -0.036102  0  3.956016  0
C  C30  1  0.69578575  0.73215695  0.57478235  1  0  -0.064149  0  3.714851  0  0  -0.086321  0  3.962034  0  0  -0.087442  0  3.982972  0  0  -0.075808  -0.085431  0  3.947768  0
C  C31  1  0.62139294  0.15717405  0.42533420  1  0  -0.063511  0  3.715786  0  0  -0.085594  0  3.963121  0  0  -0.086718  0  3.984036  0  0  -0.075112  -0.084725  0  3.948922  0
C  C32  1  0.30423160  0.26785913  0.42522000  1  0  -0.064109  0  3.714769  0  0  -0.086264  0  3.96192  0  0  -0.087389  0  3.982858  0  0  -0.075777  -0.085373  0  3.947656  0
C  C33  1  0.37860854  0.84284494  0.57467204  1  0  -0.063456  0  3.715423  0  0  -0.085468  0  3.962758  0  0  -0.086585  0  3.983659  0  0  -0.075073  -0.084596  0  3.94855  0
C  C34  1  0.63359750  0.67004837  0.44994583  1  0  -0.062788  0  3.730012  0  0  -0.085491  0  3.977155  0  0  -0.0871  0  3.999146  0  0  -0.079589  -0.084273  0  3.962189  0
C  C35  1  0.68411819  0.22037920  0.55017195  1  0  -0.064243  0  3.732002  0  0  -0.087363  0  3.980072  0  0  -0.088926  0  4.002053  0  0  -0.081702  -0.086184  0  3.965155  0
C  C36  1  0.36639715  0.32995808  0.55005302  1  0  -0.06294  0  3.730256  0  0  -0.08552  0  3.977382  0  0  -0.087124  0  3.999366  0  0  -0.079646  -0.084303  0  3.962423  0
C  C37  1  0.31588705  0.77962017  0.44982476  1  0  -0.064394  0  3.732392  0  0  -0.087585  0  3.980455  0  0  -0.089117  0  4.00245  0  0  -0.081802  -0.086397  0  3.965523  0
C  C38  1  0.44275017  0.69279248  0.38584896  1  0  -0.081915  0  3.767533  0  0  -0.062119  0  4.012195  0  0  -0.069793  0  4.036531  0  0  -0.019274  -0.05701  0  3.995633  0
C  C39  1  0.55723364  0.30721965  0.61414929  1  0  -0.081966  0  3.76733  0  0  -0.062187  0  4.012022  0  0  -0.069863  0  4.036364  0  0  -0.019363  -0.057083  0  3.995471  0
C  C40  1  0.37555251  0.62532247  0.25173621  1  0  0.69812  0  3.808188  0  0  0.634626  0  4.114925  0  0  0.669682  0  4.105499  0  0  0.236354  0.610899  0  4.120397  0
C  C41  1  0.62445719  0.37467687  0.74826199  1  0  0.698296  0  3.808092  0  0  0.634723  0  4.114983  0  0  0.669777  0  4.105549  0  0  0.236338  0.610988  0  4.120465  0
O  O42  1  0.81079011  0.86402597  0.82821164  1  0  -0.730699  0  1.999203  0  0  -0.664399  0  2.240914  0  0  -0.69298  0  2.233299  0  0  -0.404452  -0.644191  0  2.2455  0
O  O43  1  0.48254561  0.03561916  0.17171918  1  0  -0.730131  0  2.002957  0  0  -0.663939  0  2.2449  0  0  -0.692533  0  2.237279  0  0  -0.402834  -0.643738  0  2.249511  0
O  O44  1  0.18921531  0.13596640  0.17178138  1  0  -0.730668  0  1.999367  0  0  -0.664388  0  2.241118  0  0  -0.692972  0  2.233519  0  0  -0.404473  -0.644174  0  2.245689  0
O  O45  1  0.51745620  0.96438583  0.82828378  1  0  -0.729958  0  2.003212  0  0  -0.663757  0  2.245123  0  0  -0.692352  0  2.237505  0  0  -0.40272  -0.643559  0  2.249735  0
O  O46  1  0.50951873  0.59408475  0.19616404  1  0  -0.683061  0  2.02385  0  0  -0.602874  0  2.236897  0  0  -0.630117  0  2.225008  0  0  -0.299584  -0.583846  0  2.244691  0
O  O47  1  0.81407074  0.39929100  0.80379730  1  0  -0.682912  0  2.023012  0  0  -0.602835  0  2.23642  0  0  -0.629839  0  2.224266  0  0  -0.299496  -0.583863  0  2.244307  0
O  O48  1  0.49050182  0.40590890  0.80383395  1  0  -0.683045  0  2.023841  0  0  -0.602896  0  2.236961  0  0  -0.63014  0  2.225075  0  0  -0.299578  -0.583827  0  2.244716  0
O  O49  1  0.18593155  0.60069297  0.19620607  1  0  -0.68282  0  2.023058  0  0  -0.60276  0  2.236422  0  0  -0.629767  0  2.224272  0  0  -0.299504  -0.583788  0  2.244296  0
O  O50  1  0.00302871  0.72483064  0.01139617  1  0  -0.90328  0  1.884589  0  0  -0.846789  0  2.073951  0  0  -0.866879  0  2.042063  0  0  -0.632029  -0.832486  0  2.096342  0
O  O51  1  0.49176877  0.71368735  0.98884630  1  0  -0.902308  0  1.887177  0  0  -0.846446  0  2.076056  0  0  -0.866483  0  2.044176  0  0  -0.631844  -0.832189  0  2.098346  0
O  O52  1  0.99696448  0.27516041  0.98860710  1  0  -0.903228  0  1.884711  0  0  -0.846782  0  2.074008  0  0  -0.866876  0  2.04212  0  0  -0.632006  -0.832478  0  2.096399  0
O  O53  1  0.50821660  0.28630938  0.01114614  1  0  -0.902353  0  1.887247  0  0  -0.846491  0  2.076054  0  0  -0.866529  0  2.044173  0  0  -0.631924  -0.832231  0  2.098344  0
O  O54  1  0.87824594  0.40299826  0.25280285  1  0  -0.841278  0  1.805519  0  0  -0.79287  0  1.979401  0  0  -0.810657  0  1.94931  0  0  -0.614601  -0.780212  0  2.000611  0
O  O55  1  0.12578152  0.15145278  0.74728048  1  0  -0.841272  0  1.803596  0  0  -0.792566  0  1.978325  0  0  -0.810361  0  1.948153  0  0  -0.613915  -0.77991  0  1.999622  0
O  O56  1  0.12174010  0.59699426  0.74719468  1  0  -0.841378  0  1.805609  0  0  -0.792958  0  1.97946  0  0  -0.810745  0  1.949365  0  0  -0.614596  -0.780302  0  2.000676  0
O  O57  1  0.87421870  0.84854382  0.25272155  1  0  -0.841341  0  1.803527  0  0  -0.792626  0  1.978274  0  0  -0.810418  0  1.948093  0  0  -0.613917  -0.77996  0  1.99958  0
