# generated using pymatgen
data_TbH13(C9O7)2
_symmetry_space_group_name_H-M   'P 1'
_cell_length_a   9.35318132
_cell_length_b   10.45567356
_cell_length_c   11.10370205
_cell_angle_alpha   78.53118006
_cell_angle_beta   70.74675480
_cell_angle_gamma   92.70307147
_symmetry_Int_Tables_number   1
_chemical_formula_structural   TbH13(C9O7)2
_chemical_formula_sum   'Tb2 H26 C36 O28'
_cell_volume   997.18740171
_cell_formula_units_Z   2
loop_
 _symmetry_equiv_pos_site_id
 _symmetry_equiv_pos_as_xyz
  1  'x, y, z'
loop_
 _atom_site_type_symbol
 _atom_site_label
 _atom_site_symmetry_multiplicity
 _atom_site_fract_x
 _atom_site_fract_y
 _atom_site_fract_z
 _atom_site_occupancy
 _atom_site_hle17_bader_spin_density
 _atom_site_hle17_ddec_charge
 _atom_site_hle17_ddec_spin_density
 _atom_site_hle17_ddec_sum_bond_order
 _atom_site_hle17_magmom
 _atom_site_hse06_10hf_bader_spin_density
 _atom_site_hse06_10hf_ddec_charge
 _atom_site_hse06_10hf_ddec_spin_density
 _atom_site_hse06_10hf_ddec_sum_bond_order
 _atom_site_hse06_10hf_magmom
 _atom_site_hse06_bader_spin_density
 _atom_site_hse06_ddec_charge
 _atom_site_hse06_ddec_spin_density
 _atom_site_hse06_ddec_sum_bond_order
 _atom_site_hse06_magmom
 _atom_site_pbe_bader_spin_density
 _atom_site_pbe_cm5_charge
 _atom_site_pbe_ddec_charge
 _atom_site_pbe_ddec_spin_density
 _atom_site_pbe_ddec_sum_bond_order
 _atom_site_pbe_magmom
Tb  Tb0  1  0.76745151  0.03020664  0.49849325  1  0  2.328483  0  1.539409  0  0  2.253188  0  1.86441  0  0  2.298672  0  1.823626  0  0  1.48236  2.14697  0  2.028734  0
Tb  Tb1  1  0.23254131  0.96979550  0.50151004  1  0  2.328544  0  1.539285  0  0  2.253259  0  1.864271  0  0  2.298737  0  1.823486  0  0  1.482411  2.147007  0  2.028645  0
H  H2  1  0.01798806  0.62795216  0.32269332  1  0  0.109833  0  0.921677  0  0  0.122592  0  0.974093  0  0  0.126863  0  0.970833  0  0  0.11125  0.118933  0  0.977385  0
H  H3  1  0.98200421  0.37205576  0.67731452  1  0  0.109737  0  0.92171  0  0  0.122503  0  0.974112  0  0  0.126771  0  0.970856  0  0  0.111233  0.118846  0  0.977402  0
H  H4  1  0.94613894  0.53208323  0.16173026  1  0  0.127279  0  0.982772  0  0  0.133739  0  1.042083  0  0  0.138899  0  1.038762  0  0  0.111249  0.129714  0  1.044681  0
H  H5  1  0.05382563  0.46793074  0.83828776  1  0  0.12723  0  0.982867  0  0  0.133525  0  1.042349  0  0  0.138691  0  1.039024  0  0  0.111208  0.129519  0  1.044935  0
H  H6  1  0.66854522  0.34066043  0.17291659  1  0  0.137276  0  0.918086  0  0  0.146045  0  0.974764  0  0  0.150513  0  0.97119  0  0  0.121645  0.142531  0  0.978082  0
H  H7  1  0.33144851  0.65931752  0.82707354  1  0  0.137257  0  0.918107  0  0  0.146033  0  0.974758  0  0  0.150505  0  0.971178  0  0  0.121592  0.142507  0  0.978068  0
H  H8  1  0.35852220  0.54207233  0.03158375  1  0  0.13566  0  0.968097  0  0  0.141421  0  1.0314  0  0  0.145978  0  1.028331  0  0  0.116235  0.138459  0  1.032735  0
H  H9  1  0.64147698  0.45791447  0.96841055  1  0  0.135785  0  0.96799  0  0  0.141496  0  1.031343  0  0  0.146053  0  1.028275  0  0  0.116285  0.138535  0  1.032677  0
H  H10  1  0.28954827  0.74467425  0.29811918  1  0  0.394842  0  0.90093  0  0  0.363453  0  0.982656  0  0  0.374056  0  0.971891  0  0  0.304799  0.355705  0  0.99057  0
H  H11  1  0.71046918  0.25532479  0.70186885  1  0  0.394798  0  0.901042  0  0  0.363401  0  0.982756  0  0  0.374004  0  0.972002  0  0  0.304722  0.355651  0  0.990673  0
H  H12  1  0.73655892  0.73696306  0.42153364  1  0  0.439692  0  0.801692  0  0  0.426173  0  0.847411  0  0  0.432825  0  0.840397  0  0  0.337124  0.420786  0  0.852742  0
H  H13  1  0.26343805  0.26303534  0.57846555  1  0  0.439712  0  0.801653  0  0  0.426186  0  0.847386  0  0  0.432839  0  0.840369  0  0  0.33713  0.4208  0  0.852716  0
H  H14  1  0.68573781  0.84570724  0.33117601  1  0  0.449123  0  0.825134  0  0  0.418078  0  0.897943  0  0  0.426796  0  0.88514  0  0  0.322363  0.41173  0  0.907092  0
H  H15  1  0.31426017  0.15429016  0.66882577  1  0  0.44917  0  0.825021  0  0  0.418139  0  0.897826  0  0  0.426856  0  0.885026  0  0  0.322394  0.411788  0  0.906979  0
H  H16  1  0.68174218  0.76527762  0.70746749  1  0  0.454541  0  0.787771  0  0  0.437637  0  0.83863  0  0  0.445066  0  0.830625  0  0  0.339529  0.4318  0  0.844371  0
H  H17  1  0.31825266  0.23473329  0.29254092  1  0  0.454544  0  0.787771  0  0  0.437644  0  0.838616  0  0  0.445072  0  0.830617  0  0  0.339552  0.431808  0  0.844358  0
H  H18  1  0.79384092  0.84930514  0.74779485  1  0  0.46246  0  0.827445  0  0  0.428442  0  0.895247  0  0  0.438616  0  0.880251  0  0  0.321392  0.42104  0  0.905978  0
H  H19  1  0.20615020  0.15070273  0.25221511  1  0  0.462454  0  0.827392  0  0  0.428389  0  0.895275  0  0  0.438565  0  0.880273  0  0  0.321288  0.420983  0  0.906012  0
H  H20  1  0.93411652  0.27657236  0.30553050  1  0  0.447359  0  0.854275  0  0  0.413847  0  0.921542  0  0  0.426484  0  0.903311  0  0  0.291712  0.404726  0  0.934417  0
H  H21  1  0.06587617  0.72342873  0.69447750  1  0  0.447225  0  0.854463  0  0  0.413845  0  0.921541  0  0  0.426482  0  0.903304  0  0  0.291728  0.404724  0  0.934416  0
H  H22  1  0.04163503  0.22062407  0.38403465  1  0  0.428055  0  0.871107  0  0  0.402765  0  0.925827  0  0  0.41303  0  0.910513  0  0  0.298748  0.39503  0  0.937187  0
H  H23  1  0.95837354  0.77937669  0.61595553  1  0  0.428127  0  0.870987  0  0  0.402845  0  0.925693  0  0  0.41311  0  0.91038  0  0  0.29879  0.395112  0  0.937051  0
H  H24  1  0.51794224  0.20781816  0.51078494  1  0  0.436799  0  0.860357  0  0  0.408891  0  0.918703  0  0  0.419365  0  0.903236  0  0  0.302165  0.400957  0  0.930252  0
H  H25  1  0.48204831  0.79218394  0.48921807  1  0  0.43675  0  0.86045  0  0  0.408821  0  0.918819  0  0  0.419292  0  0.903357  0  0  0.302121  0.400886  0  0.93037  0
H  H26  1  0.64697148  0.28618025  0.53739722  1  0  0.441528  0  0.843279  0  0  0.417196  0  0.894465  0  0  0.42727  0  0.879456  0  0  0.31268  0.40967  0  0.905521  0
H  H27  1  0.35302447  0.71381913  0.46260028  1  0  0.441531  0  0.843274  0  0  0.417191  0  0.894479  0  0  0.427266  0  0.879468  0  0  0.312659  0.409663  0  0.905539  0
C  C28  1  0.08164474  0.88775031  0.31614998  1  0  0.732991  0  3.840694  0  0  0.678325  0  4.146347  0  0  0.715527  0  4.130745  0  0  0.235419  0.652165  0  4.150279  0
C  C29  1  0.91834972  0.11225673  0.68385471  1  0  0.733153  0  3.840453  0  0  0.67837  0  4.146292  0  0  0.715578  0  4.130692  0  0  0.235423  0.652209  0  4.150226  0
C  C30  1  0.03387285  0.82985225  0.21980485  1  0  -0.074799  0  3.722243  0  0  -0.064617  0  3.969245  0  0  -0.068862  0  3.988313  0  0  -0.007219  -0.06216  0  3.95786  0
C  C31  1  0.96612357  0.17016271  0.78019701  1  0  -0.074786  0  3.722231  0  0  -0.06461  0  3.969311  0  0  -0.068859  0  3.988383  0  0  -0.007206  -0.062151  0  3.957922  0
C  C32  1  0.00436541  0.69320966  0.23826065  1  0  -0.079309  0  3.709829  0  0  -0.10401  0  3.968065  0  0  -0.103006  0  3.983664  0  0  -0.077292  -0.104378  0  3.957984  0
C  C33  1  0.99560822  0.30680448  0.76175935  1  0  -0.079379  0  3.709916  0  0  -0.104079  0  3.968095  0  0  -0.103076  0  3.983701  0  0  -0.077371  -0.10445  0  3.95802  0
C  C34  1  0.96300234  0.63898617  0.14743638  1  0  -0.04475  0  3.631945  0  0  -0.068397  0  3.883321  0  0  -0.069217  0  3.898103  0  0  -0.0635  -0.067781  0  3.873336  0
C  C35  1  0.03697572  0.36102709  0.85258435  1  0  -0.044507  0  3.631854  0  0  -0.067963  0  3.883201  0  0  -0.068785  0  3.89798  0  0  -0.063286  -0.067367  0  3.873225  0
C  C36  1  0.94763634  0.71969214  0.03628188  1  0  0.011662  0  3.59721  0  0  0.018962  0  3.841663  0  0  0.020072  0  3.856293  0  0  0.022341  0.017925  0  3.832614  0
C  C37  1  0.05236645  0.28031897  0.96372520  1  0  0.011706  0  3.597186  0  0  0.018949  0  3.841696  0  0  0.020049  0  3.856327  0  0  0.022317  0.017914  0  3.832649  0
C  C38  1  0.96881710  0.85702924  0.02125162  1  0  -0.058027  0  3.718151  0  0  -0.05921  0  3.963655  0  0  -0.064093  0  3.983675  0  0  -0.005517  -0.056418  0  3.951153  0
C  C39  1  0.03117579  0.14298459  0.97875411  1  0  -0.057969  0  3.717841  0  0  -0.059121  0  3.963549  0  0  -0.064003  0  3.98357  0  0  -0.005579  -0.056329  0  3.951047  0
C  C40  1  0.01669540  0.91149820  0.11013075  1  0  -0.056363  0  3.744676  0  0  -0.059043  0  3.991089  0  0  -0.063636  0  4.012987  0  0  -0.008076  -0.056185  0  3.97692  0
C  C41  1  0.98331466  0.08851714  0.88986639  1  0  -0.056466  0  3.744623  0  0  -0.059189  0  3.990928  0  0  -0.063781  0  4.012818  0  0  -0.008137  -0.056335  0  3.976759  0
C  C42  1  0.92542808  0.66221057  0.92735013  1  0  0.644459  0  3.973136  0  0  0.588723  0  4.28857  0  0  0.622923  0  4.279934  0  0  0.201142  0.564641  0  4.294237  0
C  C43  1  0.07456774  0.33780931  0.07264834  1  0  0.644184  0  3.973366  0  0  0.588423  0  4.288862  0  0  0.622643  0  4.280187  0  0  0.201019  0.564339  0  4.294525  0
C  C44  1  0.06088167  0.05384046  0.08522071  1  0  0.417141  0  3.71835  0  0  0.388575  0  3.987959  0  0  0.414578  0  3.985714  0  0  0.169277  0.370044  0  3.990295  0
C  C45  1  0.93912415  0.94617766  0.91477982  1  0  0.417114  0  3.718311  0  0  0.388874  0  3.987401  0  0  0.414876  0  3.985136  0  0  0.1693  0.370353  0  3.989739  0
C  C46  1  0.60656169  0.08249254  0.28252395  1  0  0.746057  0  3.859297  0  0  0.694046  0  4.161722  0  0  0.731093  0  4.146171  0  0  0.239613  0.668265  0  4.166665  0
C  C47  1  0.39345303  0.91750236  0.71747456  1  0  0.745891  0  3.859929  0  0  0.693991  0  4.162149  0  0  0.731028  0  4.146606  0  0  0.239543  0.668209  0  4.167092  0
C  C48  1  0.60179891  0.14814122  0.15138713  1  0  -0.044685  0  3.685264  0  0  -0.033763  0  3.927642  0  0  -0.03747  0  3.946177  0  0  0.008425  -0.032411  0  3.917807  0
C  C49  1  0.39820898  0.85184200  0.84859908  1  0  -0.044905  0  3.685905  0  0  -0.034067  0  3.928256  0  0  -0.037777  0  3.946788  0  0  0.008213  -0.032713  0  3.918411  0
C  C50  1  0.63039493  0.28517438  0.11359630  1  0  -0.036538  0  3.634797  0  0  -0.06605  0  3.894004  0  0  -0.06521  0  3.908764  0  0  -0.059018  -0.067395  0  3.886465  0
C  C51  1  0.36959817  0.71480841  0.88639587  1  0  -0.036592  0  3.634741  0  0  -0.066076  0  3.893959  0  0  -0.06523  0  3.908711  0  0  -0.058954  -0.067402  0  3.886397  0
C  C52  1  0.55469782  0.07646168  0.07387829  1  0  -0.061207  0  3.714237  0  0  -0.064322  0  3.96136  0  0  -0.070001  0  3.984936  0  0  -0.008237  -0.062004  0  3.946886  0
C  C53  1  0.44531387  0.92351472  0.92611167  1  0  -0.061104  0  3.714047  0  0  -0.064131  0  3.960943  0  0  -0.069802  0  3.984509  0  0  -0.008098  -0.061809  0  3.946476  0
C  C54  1  0.53741611  0.93096329  0.11086756  1  0  0.403497  0  3.723193  0  0  0.378248  0  3.995841  0  0  0.401814  0  3.996796  0  0  0.161465  0.362117  0  3.995412  0
C  C55  1  0.46261251  0.06902337  0.88911595  1  0  0.403211  0  3.723572  0  0  0.378113  0  3.995923  0  0  0.401685  0  3.996878  0  0  0.161579  0.36197  0  3.995489  0
C  C56  1  0.46872507  0.85580643  0.04035139  1  0  -0.046984  0  3.714778  0  0  -0.04989  0  3.960761  0  0  -0.053589  0  3.982803  0  0  -0.005185  -0.046883  0  3.945269  0
C  C57  1  0.53129754  0.14416629  0.95963980  1  0  -0.047259  0  3.7154  0  0  -0.050165  0  3.961389  0  0  -0.05387  0  3.983439  0  0  -0.0052  -0.047133  0  3.945867  0
C  C58  1  0.43567931  0.71759675  0.07981441  1  0  -0.056264  0  3.672075  0  0  -0.044596  0  3.912019  0  0  -0.049256  0  3.932142  0  0  0.00697  -0.040583  0  3.897714  0
C  C59  1  0.56432953  0.28237452  0.92018713  1  0  -0.056067  0  3.672071  0  0  -0.044424  0  3.912036  0  0  -0.049049  0  3.932105  0  0  0.007106  -0.040412  0  3.897714  0
C  C60  1  0.38729924  0.64857703  0.00165480  1  0  -0.027672  0  3.631896  0  0  -0.053744  0  3.884884  0  0  -0.053602  0  3.901979  0  0  -0.054337  -0.05371  0  3.872754  0
C  C61  1  0.61269535  0.35140954  0.99834710  1  0  -0.027863  0  3.632236  0  0  -0.053851  0  3.885159  0  0  -0.053711  0  3.902257  0  0  -0.054433  -0.05382  0  3.873036  0
C  C62  1  0.43640563  0.63479302  0.20749126  1  0  0.664331  0  3.799187  0  0  0.611071  0  4.1106  0  0  0.643912  0  4.099205  0  0  0.233727  0.588207  0  4.118526  0
C  C63  1  0.56357709  0.36518838  0.79251211  1  0  0.664398  0  3.798098  0  0  0.611102  0  4.109595  0  0  0.643937  0  4.098211  0  0  0.233733  0.588229  0  4.117528  0
O  O64  1  0.98702481  0.93699811  0.40077778  1  0  -0.79396  0  2.136763  0  0  -0.756698  0  2.406403  0  0  -0.781551  0  2.394  0  0  -0.403687  -0.723266  0  2.414065  0
O  O65  1  0.01297481  0.06301495  0.59922444  1  0  -0.794037  0  2.136568  0  0  -0.756752  0  2.406303  0  0  -0.781607  0  2.393895  0  0  -0.403675  -0.723317  0  2.413966  0
O  O66  1  0.21644762  0.87711849  0.31905495  1  0  -0.714622  0  2.08368  0  0  -0.668626  0  2.333696  0  0  -0.694575  0  2.323821  0  0  -0.358002  -0.641808  0  2.341103  0
O  O67  1  0.78354652  0.12289635  0.68095026  1  0  -0.714648  0  2.083824  0  0  -0.66861  0  2.333963  0  0  -0.694531  0  2.324019  0  0  -0.357958  -0.641792  0  2.341366  0
O  O68  1  0.05301385  0.66242358  0.83637770  1  0  -0.643237  0  1.971728  0  0  -0.585143  0  2.192254  0  0  -0.615437  0  2.183882  0  0  -0.318778  -0.560988  0  2.196966  0
O  O69  1  0.94698121  0.33758932  0.16362850  1  0  -0.643375  0  1.971572  0  0  -0.585131  0  2.192056  0  0  -0.615431  0  2.183666  0  0  -0.318753  -0.560962  0  2.196764  0
O  O70  1  0.79526559  0.62136091  0.93374918  1  0  -0.59969  0  1.913273  0  0  -0.561667  0  2.138359  0  0  -0.590015  0  2.132669  0  0  -0.324381  -0.54076  0  2.141036  0
O  O71  1  0.20471945  0.37865369  0.06625858  1  0  -0.599546  0  1.913699  0  0  -0.561507  0  2.138756  0  0  -0.58986  0  2.133052  0  0  -0.324336  -0.540601  0  2.141429  0
O  O72  1  0.13276682  0.09433871  0.14954152  1  0  -0.472184  0  2.058305  0  0  -0.410146  0  2.27155  0  0  -0.42907  0  2.267441  0  0  -0.228785  -0.397502  0  2.27451  0
O  O73  1  0.86724405  0.90567367  0.85045862  1  0  -0.47204  0  2.05807  0  0  -0.410135  0  2.271161  0  0  -0.429055  0  2.267041  0  0  -0.228773  -0.397512  0  2.274147  0
O  O74  1  0.58835084  0.87280740  0.19442345  1  0  -0.465989  0  1.973622  0  0  -0.414656  0  2.186323  0  0  -0.432919  0  2.182526  0  0  -0.238224  -0.402643  0  2.189368  0
O  O75  1  0.41169313  0.12717396  0.80554684  1  0  -0.465908  0  1.973885  0  0  -0.414688  0  2.186574  0  0  -0.432965  0  2.182789  0  0  -0.238427  -0.402664  0  2.18961  0
O  O76  1  0.33402860  0.65966699  0.31689227  1  0  -0.585024  0  2.102424  0  0  -0.533353  0  2.316452  0  0  -0.55421  0  2.298467  0  0  -0.345526  -0.518861  0  2.329594  0
O  O77  1  0.66597675  0.34033561  0.68310027  1  0  -0.585127  0  2.102137  0  0  -0.533415  0  2.316195  0  0  -0.554276  0  2.298208  0  0  -0.345523  -0.518922  0  2.329345  0
O  O78  1  0.50835487  0.54137480  0.21506978  1  0  -0.497158  0  1.890798  0  0  -0.467496  0  2.097227  0  0  -0.486427  0  2.088485  0  0  -0.277008  -0.454809  0  2.103447  0
O  O79  1  0.49162854  0.45861269  0.78492063  1  0  -0.497221  0  1.890245  0  0  -0.467553  0  2.096707  0  0  -0.486485  0  2.087967  0  0  -0.277087  -0.454866  0  2.102928  0
O  O80  1  0.68417025  0.81529194  0.42162700  1  0  -0.85053  0  1.876995  0  0  -0.805356  0  2.05206  0  0  -0.822302  0  2.028743  0  0  -0.560511  -0.786409  0  2.07168  0
O  O81  1  0.31582670  0.18470640  0.57837581  1  0  -0.850572  0  1.876918  0  0  -0.805387  0  2.05201  0  0  -0.822337  0  2.028686  0  0  -0.560516  -0.786439  0  2.07163  0
O  O82  1  0.77096480  0.83150157  0.67083824  1  0  -0.893814  0  1.87643  0  0  -0.852296  0  2.061896  0  0  -0.869705  0  2.034893  0  0  -0.589811  -0.831446  0  2.084633  0
O  O83  1  0.22903294  0.16850452  0.32917021  1  0  -0.893665  0  1.876178  0  0  -0.852144  0  2.061735  0  0  -0.869554  0  2.034738  0  0  -0.589718  -0.83129  0  2.084479  0
O  O84  1  0.93326592  0.22572719  0.39547617  1  0  -0.932792  0  1.855131  0  0  -0.890128  0  2.036959  0  0  -0.910906  0  2.005013  0  0  -0.668406  -0.866131  0  2.065402  0
O  O85  1  0.06673908  0.77428310  0.60452414  1  0  -0.932836  0  1.855324  0  0  -0.890225  0  2.036948  0  0  -0.910999  0  2.005011  0  0  -0.668477  -0.866222  0  2.065397  0
O  O86  1  0.62957909  0.22048032  0.48997666  1  0  -0.888625  0  1.870463  0  0  -0.8458  0  2.039096  0  0  -0.864481  0  2.009195  0  0  -0.640177  -0.824161  0  2.065892  0
O  O87  1  0.37041403  0.77951401  0.51002700  1  0  -0.888578  0  1.870528  0  0  -0.845714  0  2.039149  0  0  -0.864387  0  2.00925  0  0  -0.640107  -0.824072  0  2.065949  0
O  O88  1  0.73443400  0.07168043  0.29709217  1  0  -0.701068  0  2.031101  0  0  -0.66271  0  2.286512  0  0  -0.688646  0  2.275414  0  0  -0.390792  -0.634798  0  2.29576  0
O  O89  1  0.26558997  0.92831587  0.70289273  1  0  -0.700933  0  2.031245  0  0  -0.662602  0  2.286568  0  0  -0.68852  0  2.27547  0  0  -0.39075  -0.634685  0  2.295814  0
O  O90  1  0.47832784  0.05018599  0.37491648  1  0  -0.787499  0  2.124009  0  0  -0.749676  0  2.395435  0  0  -0.776153  0  2.382719  0  0  -0.419054  -0.717897  0  2.403593  0
O  O91  1  0.52169374  0.94979917  0.62508994  1  0  -0.787414  0  2.124118  0  0  -0.749586  0  2.395389  0  0  -0.776104  0  2.382762  0  0  -0.419087  -0.717815  0  2.403545  0
