# generated using pymatgen
data_GdH8C8NO9
_symmetry_space_group_name_H-M   'P 1'
_cell_length_a   7.15600402
_cell_length_b   11.94850333
_cell_length_c   13.50500000
_cell_angle_alpha   96.23138869
_cell_angle_beta   90.00000000
_cell_angle_gamma   90.00000000
_symmetry_Int_Tables_number   1
_chemical_formula_structural   GdH8C8NO9
_chemical_formula_sum   'Gd4 H32 C32 N4 O36'
_cell_volume   1147.90275712
_cell_formula_units_Z   4
loop_
 _symmetry_equiv_pos_site_id
 _symmetry_equiv_pos_as_xyz
  1  'x, y, z'
loop_
 _atom_site_type_symbol
 _atom_site_label
 _atom_site_symmetry_multiplicity
 _atom_site_fract_x
 _atom_site_fract_y
 _atom_site_fract_z
 _atom_site_occupancy
 _atom_site_hle17_bader_spin_density
 _atom_site_hle17_ddec_charge
 _atom_site_hle17_ddec_spin_density
 _atom_site_hle17_ddec_sum_bond_order
 _atom_site_hle17_magmom
 _atom_site_hse06_10hf_bader_spin_density
 _atom_site_hse06_10hf_ddec_charge
 _atom_site_hse06_10hf_ddec_spin_density
 _atom_site_hse06_10hf_ddec_sum_bond_order
 _atom_site_hse06_10hf_magmom
 _atom_site_hse06_bader_spin_density
 _atom_site_hse06_ddec_charge
 _atom_site_hse06_ddec_spin_density
 _atom_site_hse06_ddec_sum_bond_order
 _atom_site_hse06_magmom
 _atom_site_pbe_bader_charge
 _atom_site_pbe_bader_spin_density
 _atom_site_pbe_cm5_charge
 _atom_site_pbe_ddec_charge
 _atom_site_pbe_ddec_spin_density
 _atom_site_pbe_ddec_sum_bond_order
 _atom_site_pbe_magmom
Gd  Gd0  1  0.73375448  0.71794212  0.29220040  1  0  2.146953  0  1.760234  0  0  2.044874  0  2.115753  0  0  2.098024  0  2.06293  0  2.181173  0  1.452486  2.005477  0  2.155182  0
Gd  Gd1  1  0.23375476  0.28205810  0.20780391  1  0  2.146944  0  1.760251  0  0  2.044856  0  2.115792  0  0  2.09802  0  2.062944  0  2.181173  0  1.452486  2.00546  0  2.155221  0
Gd  Gd2  1  0.26624496  0.28205558  0.70779997  1  0  2.146918  0  1.76026  0  0  2.044874  0  2.115729  0  0  2.09799  0  2.062967  0  2.181202  0  1.452493  2.005472  0  2.155165  0
Gd  Gd3  1  0.76624747  0.71793959  0.79219572  1  0  2.147014  0  1.760156  0  0  2.045006  0  2.115588  0  0  2.098084  0  2.06287  0  2.181096  0  1.452482  2.005601  0  2.15503  0
H  H4  1  0.97392902  0.56292828  0.16500430  1  0  0.432285  0  0.864636  0  0  0.402847  0  0.9268  0  0  0.41364  0  0.911054  0  0.655789  0  0.301207  0.395173  0  0.937999  0
H  H5  1  0.47392791  0.43707110  0.33499623  1  0  0.432261  0  0.864659  0  0  0.402824  0  0.926822  0  0  0.413616  0  0.911078  0  0.655799  0  0.301199  0.395151  0  0.938018  0
H  H6  1  0.02607321  0.43707194  0.83499557  1  0  0.432222  0  0.864714  0  0  0.40279  0  0.926873  0  0  0.413581  0  0.911129  0  0.655791  0  0.301183  0.395116  0  0.938069  0
H  H7  1  0.52606874  0.56292660  0.66500414  1  0  0.432289  0  0.864611  0  0  0.402866  0  0.92675  0  0  0.413656  0  0.911007  0  0.65575  0  0.301217  0.395194  0  0.937945  0
H  H8  1  0.90076528  0.63609689  0.07797766  1  0  0.437417  0  0.859912  0  0  0.40727  0  0.922448  0  0  0.418127  0  0.906749  0  0.648113  0  0.296294  0.399596  0  0.933524  0
H  H9  1  0.40076417  0.36390417  0.42202378  1  0  0.437392  0  0.859937  0  0  0.407206  0  0.922516  0  0  0.41806  0  0.906824  0  0.648092  0  0.296283  0.399532  0  0.933593  0
H  H10  1  0.09923276  0.36390417  0.92202378  1  0  0.437454  0  0.859854  0  0  0.407334  0  0.922365  0  0  0.418195  0  0.906659  0  0.648111  0  0.296335  0.399658  0  0.933446  0
H  H11  1  0.59923527  0.63609437  0.57797741  1  0  0.437401  0  0.859919  0  0  0.407223  0  0.922486  0  0  0.418077  0  0.906794  0  0.648122  0  0.296279  0.399549  0  0.933563  0
H  H12  1  0.05343345  0.87940575  0.30458088  1  0  0.434834  0  0.864302  0  0  0.404365  0  0.926341  0  0  0.416056  0  0.909169  0  0.650442  0  0.296415  0.396069  0  0.938514  0
H  H13  1  0.55343736  0.12059363  0.19542188  1  0  0.434801  0  0.864357  0  0  0.40435  0  0.926372  0  0  0.416043  0  0.909197  0  0.650431  0  0.296403  0.396054  0  0.938546  0
H  H14  1  0.94656319  0.12059447  0.69541826  1  0  0.434817  0  0.864322  0  0  0.404375  0  0.92633  0  0  0.416071  0  0.909151  0  0.650445  0  0.296398  0.39608  0  0.938503  0
H  H15  1  0.44656347  0.87940490  0.80457857  1  0  0.434805  0  0.86436  0  0  0.404349  0  0.926387  0  0  0.416043  0  0.909209  0  0.65044  0  0.296388  0.396054  0  0.938559  0
H  H16  1  0.16111087  0.76539661  0.30187426  1  0  0.439983  0  0.850334  0  0  0.412105  0  0.908305  0  0  0.422696  0  0.892942  0  0.642671  0  0.298428  0.404572  0  0.919212  0
H  H17  1  0.66111478  0.23460361  0.19812709  1  0  0.439893  0  0.850454  0  0  0.412048  0  0.908375  0  0  0.422627  0  0.893026  0  0.642577  0  0.298406  0.404515  0  0.919283  0
H  H18  1  0.83888718  0.23460446  0.69812569  1  0  0.439965  0  0.850358  0  0  0.412087  0  0.908328  0  0  0.422678  0  0.892965  0  0.642574  0  0.298418  0.404554  0  0.919235  0
H  H19  1  0.33888606  0.76539576  0.80187122  1  0  0.439942  0  0.850397  0  0  0.412073  0  0.908349  0  0  0.422661  0  0.89299  0  0.642597  0  0.298418  0.404541  0  0.919254  0
H  H20  1  0.84078069  0.93565555  0.41772656  1  0  0.445464  0  0.852205  0  0  0.411475  0  0.921047  0  0  0.422544  0  0.904851  0  0.663956  0  0.302559  0.403656  0  0.932464  0
H  H21  1  0.34078516  0.06434551  0.08227487  1  0  0.445429  0  0.852269  0  0  0.411454  0  0.921085  0  0  0.422518  0  0.904894  0  0.663946  0  0.302544  0.403644  0  0.932493  0
H  H22  1  0.15921735  0.06434383  0.58227175  1  0  0.445485  0  0.852178  0  0  0.411496  0  0.921019  0  0  0.422563  0  0.904826  0  0.66396  0  0.302581  0.403687  0  0.932427  0
H  H23  1  0.65921567  0.93565471  0.91772278  1  0  0.445449  0  0.852237  0  0  0.411474  0  0.921056  0  0  0.42254  0  0.904863  0  0.664202  0  0.30255  0.403665  0  0.932464  0
H  H24  1  0.71726762  0.87365389  0.49365531  1  0  0.440735  0  0.817343  0  0  0.422457  0  0.869171  0  0  0.430046  0  0.858225  0  0.598638  0  0.327419  0.417084  0  0.87694  0
H  H25  1  0.21727210  0.12634717  0.00634613  1  0  0.440729  0  0.817263  0  0  0.422467  0  0.869138  0  0  0.430055  0  0.858193  0  0.598612  0  0.327446  0.417094  0  0.876907  0
H  H26  1  0.28273042  0.12634633  0.50634531  1  0  0.440713  0  0.817293  0  0  0.422437  0  0.86918  0  0  0.430026  0  0.858234  0  0.598581  0  0.327429  0.417065  0  0.876948  0
H  H27  1  0.78273153  0.87365305  0.99365004  1  0  0.440737  0  0.81721  0  0  0.422475  0  0.869121  0  0  0.430062  0  0.858176  0  0.598665  0  0.327445  0.417102  0  0.87689  0
H  H28  1  0.21999149  0.52201451  0.02343358  1  0  0.132177  0  0.942255  0  0  0.138819  0  1.006966  0  0  0.143283  0  1.003757  0  0.121041  0  0.121744  0.13553  0  1.009478  0
H  H29  1  0.71999121  0.47798739  0.47656498  1  0  0.132168  0  0.942314  0  0  0.138817  0  1.00703  0  0  0.143275  0  1.003827  0  0.120999  0  0.121741  0.135528  0  1.009542  0
H  H30  1  0.77999956  0.47798739  0.97656942  1  0  0.132162  0  0.942285  0  0  0.138814  0  1.006965  0  0  0.143267  0  1.003769  0  0.121034  0  0.12175  0.135525  0  1.009476  0
H  H31  1  0.28001242  0.52201704  0.52343456  1  0  0.132209  0  0.942276  0  0  0.138852  0  1.006977  0  0  0.143318  0  1.003766  0  0.121037  0  0.121759  0.135563  0  1.009489  0
H  H32  1  0.30274578  0.87759482  0.99990419  1  0  0.128795  0  0.937957  0  0  0.135565  0  1.001427  0  0  0.140221  0  0.998064  0  0.105458  0  0.121419  0.132158  0  1.004051  0
H  H33  1  0.80274130  0.12240708  0.50009362  1  0  0.128809  0  0.937985  0  0  0.135592  0  1.001429  0  0  0.140248  0  0.998065  0  0.105131  0  0.121434  0.132186  0  1.004052  0
H  H34  1  0.69726484  0.12240456  0.00009338  1  0  0.128779  0  0.937932  0  0  0.135565  0  1.001373  0  0  0.14022  0  0.99801  0  0.105368  0  0.121393  0.132158  0  1.004  0
H  H35  1  0.19725534  0.87759650  0.49990435  1  0  0.128778  0  0.937948  0  0  0.135554  0  1.001419  0  0  0.140208  0  0.998057  0  0.105398  0  0.121415  0.132148  0  1.004043  0
C  C36  1  0.42665571  0.60959475  0.11826632  1  0  0.131692  0  3.703839  0  0  0.135631  0  3.949941  0  0  0.136181  0  3.966415  0  0.496188  0  0.134195  0.134908  0  3.93908  0
C  C37  1  0.92665403  0.39040631  0.38173216  1  0  0.131689  0  3.7038  0  0  0.135639  0  3.949918  0  0  0.13619  0  3.966392  0  0.496205  0  0.13419  0.134916  0  3.939058  0
C  C38  1  0.57334652  0.39040294  0.88173405  1  0  0.131714  0  3.703797  0  0  0.135449  0  3.950152  0  0  0.135997  0  3.966626  0  0.496209  0  0.134134  0.134727  0  3.93929  0
C  C39  1  0.07334540  0.60959559  0.61826936  1  0  0.131611  0  3.704008  0  0  0.135546  0  3.950078  0  0  0.136093  0  3.966554  0  0.496197  0  0.13416  0.134823  0  3.939217  0
C  C40  1  0.28839559  0.60234011  0.04513127  1  0  -0.082793  0  3.601129  0  0  -0.11797  0  3.848823  0  0  -0.118324  0  3.863754  0  0.004331  0  -0.052788  -0.117766  0  3.839261  0
C  C41  1  0.78839391  0.39766348  0.45486967  1  0  -0.082793  0  3.601058  0  0  -0.118015  0  3.848758  0  0  -0.118365  0  3.863693  0  0.004301  0  -0.052772  -0.117811  0  3.839195  0
C  C42  1  0.71160245  0.39766180  0.95487173  1  0  -0.082693  0  3.601135  0  0  -0.117838  0  3.848796  0  0  -0.118183  0  3.863736  0  0.004308  0  -0.052782  -0.117637  0  3.839237  0
C  C43  1  0.21160553  0.60233926  0.54513193  1  0  -0.082793  0  3.60119  0  0  -0.118022  0  3.848853  0  0  -0.118378  0  3.863784  0  0.007515  0  -0.052787  -0.117819  0  3.83929  0
C  C44  1  0.24092496  0.70019489  0.00263972  1  0  0.010713  0  3.689315  0  0  0.031406  0  3.92671  0  0  0.029224  0  3.943212  0  -0.016259  0  0.017834  0.032584  0  3.915833  0
C  C45  1  0.74092468  0.29980702  0.49735958  1  0  0.010818  0  3.689399  0  0  0.031546  0  3.926728  0  0  0.029366  0  3.94323  0  -0.016245  0  0.017885  0.032726  0  3.915848  0
C  C46  1  0.75907448  0.29980533  0.99736090  1  0  0.01058  0  3.689582  0  0  0.031419  0  3.926766  0  0  0.029239  0  3.943266  0  -0.011157  0  0.017858  0.032598  0  3.915887  0
C  C47  1  0.25908035  0.70019404  0.50264260  1  0  0.01069  0  3.689647  0  0  0.031535  0  3.926841  0  0  0.029353  0  3.943346  0  -0.014355  0  0.01788  0.032713  0  3.915963  0
C  C48  1  0.33449115  0.80063093  0.03297065  1  0  -0.087663  0  3.618567  0  0  -0.124398  0  3.868036  0  0  -0.12476  0  3.88254  0  0.082998  0  -0.052401  -0.124189  0  3.858707  0
C  C49  1  0.83448807  0.19937182  0.46702872  1  0  -0.087742  0  3.61867  0  0  -0.124492  0  3.868063  0  0  -0.124859  0  3.88257  0  0.083376  0  -0.052446  -0.124282  0  3.858736  0
C  C50  1  0.66551248  0.19937014  0.96702930  1  0  -0.087601  0  3.618637  0  0  -0.124368  0  3.868062  0  0  -0.124731  0  3.882568  0  0.077968  0  -0.052394  -0.12416  0  3.85873  0
C  C51  1  0.16551276  0.80063009  0.53297131  1  0  -0.087624  0  3.618617  0  0  -0.124419  0  3.868052  0  0  -0.124783  0  3.882559  0  0.07833  0  -0.052415  -0.124208  0  3.858723  0
C  C52  1  0.46806849  0.80056021  0.10799163  1  0  0.115881  0  3.747065  0  0  0.119244  0  4.000254  0  0  0.120111  0  4.016898  0  0.461532  0  0.126852  0.1183  0  3.989205  0
C  C53  1  0.96806821  0.19944170  0.39200618  1  0  0.115873  0  3.747042  0  0  0.119285  0  4.000163  0  0  0.120159  0  4.016809  0  0.461744  0  0.126862  0.118337  0  3.989122  0
C  C54  1  0.53192955  0.19944001  0.89201047  1  0  0.115864  0  3.746935  0  0  0.119194  0  4.000179  0  0  0.12006  0  4.016822  0  0.461537  0  0.126798  0.118256  0  3.989119  0
C  C55  1  0.03193123  0.80055937  0.60799377  1  0  0.115818  0  3.747037  0  0  0.119214  0  4.000229  0  0  0.120083  0  4.016869  0  0.461239  0  0.126861  0.118267  0  3.989183  0
C  C56  1  0.47853942  0.51249347  0.17532412  1  0  0.679602  0  3.855241  0  0  0.629877  0  4.151412  0  0  0.665113  0  4.14041  0  1.623187  0  0.23846  0.605981  0  4.158139  0
C  C57  1  0.97853914  0.48750843  0.32467813  1  0  0.679562  0  3.855148  0  0  0.629796  0  4.151388  0  0  0.665032  0  4.140389  0  1.623163  0  0.23844  0.6059  0  4.158113  0
C  C58  1  0.52146142  0.48750338  0.82467617  1  0  0.679584  0  3.855139  0  0  0.629984  0  4.151203  0  0  0.665217  0  4.140202  0  1.623221  0  0.238547  0.606087  0  4.15793  0
C  C59  1  0.02146310  0.51249011  0.67531861  1  0  0.679601  0  3.855436  0  0  0.629977  0  4.151431  0  0  0.665215  0  4.140426  0  1.623146  0  0.238523  0.606081  0  4.158162  0
C  C60  1  0.08276267  0.70293779  0.93047514  1  0  0.654987  0  3.90274  0  0  0.603498  0  4.201768  0  0  0.637264  0  4.193325  0  1.592799  0  0.214762  0.580633  0  4.206613  0
C  C61  1  0.58276379  0.29706411  0.56952564  1  0  0.654861  0  3.902795  0  0  0.603362  0  4.201814  0  0  0.637128  0  4.193376  0  1.592797  0  0.214725  0.580498  0  4.206658  0
C  C62  1  0.91723956  0.29706243  0.06952474  1  0  0.654962  0  3.902756  0  0  0.6034  0  4.201815  0  0  0.637166  0  4.193381  0  1.592716  0  0.214728  0.580536  0  4.206659  0
C  C63  1  0.41723845  0.70294032  0.43047612  1  0  0.654908  0  3.902905  0  0  0.603375  0  4.201921  0  0  0.637142  0  4.193487  0  1.592705  0  0.214719  0.580512  0  4.206765  0
C  C64  1  0.57202316  0.90418621  0.15215946  1  0  0.640418  0  3.921  0  0  0.586821  0  4.225811  0  0  0.620836  0  4.216104  0  1.609322  0  0.226554  0.563833  0  4.231673  0
C  C65  1  0.07202204  0.09581317  0.34784182  1  0  0.640409  0  3.921051  0  0  0.586782  0  4.225885  0  0  0.620797  0  4.216181  0  1.609201  0  0.226531  0.563797  0  4.231744  0
C  C66  1  0.42797349  0.09581570  0.84784280  1  0  0.640203  0  3.921176  0  0  0.586623  0  4.225981  0  0  0.620638  0  4.216274  0  1.609669  0  0.226411  0.563638  0  4.231838  0
C  C67  1  0.92797600  0.90418705  0.65215732  1  0  0.64049  0  3.920822  0  0  0.586853  0  4.22569  0  0  0.620869  0  4.215981  0  1.609342  0  0.226547  0.563868  0  4.23155  0
N  N68  1  0.51202179  0.70694187  0.14892186  1  0  -0.400309  0  3.323279  0  0  -0.361706  0  3.570867  0  0  -0.372899  0  3.589904  0  -1.214487  0  -0.385481  -0.353719  0  3.55809  0
N  N69  1  0.01202207  0.29305920  0.35107661  1  0  -0.400305  0  3.323355  0  0  -0.361712  0  3.570924  0  0  -0.37291  0  3.589964  0  -1.21455  0  -0.385487  -0.353724  0  3.558148  0
N  N70  1  0.48797485  0.29305836  0.85107949  1  0  -0.40029  0  3.323264  0  0  -0.361629  0  3.570909  0  0  -0.372817  0  3.589946  0  -1.214492  0  -0.385405  -0.353644  0  3.558129  0
N  N71  1  0.98797597  0.70694187  0.64892334  1  0  -0.40026  0  3.323479  0  0  -0.36169  0  3.571081  0  0  -0.372874  0  3.590116  0  -1.214538  0  -0.385508  -0.353703  0  3.558305  0
O  O72  1  0.57108688  0.53601866  0.25557889  1  0  -0.682674  0  2.059011  0  0  -0.634122  0  2.293608  0  0  -0.660865  0  2.285377  0  -1.177136  0  -0.347781  -0.615329  0  2.298746  0
O  O73  1  0.07108576  0.46398409  0.24442048  1  0  -0.682678  0  2.058847  0  0  -0.634123  0  2.29347  0  0  -0.660867  0  2.285232  0  -1.17704  0  -0.347804  -0.615333  0  2.298613  0
O  O74  1  0.42891116  0.46398409  0.74442344  1  0  -0.682622  0  2.059055  0  0  -0.634111  0  2.293624  0  0  -0.660847  0  2.285383  0  -1.177169  0  -0.347803  -0.615322  0  2.298769  0
O  O75  1  0.92891787  0.53601529  0.75557709  1  0  -0.682655  0  2.05878  0  0  -0.634145  0  2.293329  0  0  -0.66088  0  2.285095  0  -1.176953  0  -0.347779  -0.615351  0  2.298462  0
O  O76  1  0.42238098  0.41513205  0.14244358  1  0  -0.694716  0  2.052594  0  0  -0.652046  0  2.303273  0  0  -0.678647  0  2.294539  0  -1.191493  0  -0.395048  -0.633252  0  2.308852  0
O  O77  1  0.92238210  0.58486986  0.35755572  1  0  -0.694691  0  2.052656  0  0  -0.651982  0  2.303318  0  0  -0.678579  0  2.294584  0  -1.191534  0  -0.395009  -0.633187  0  2.308888  0
O  O78  1  0.57761846  0.58486902  0.85755638  1  0  -0.694816  0  2.052533  0  0  -0.652171  0  2.303128  0  0  -0.678757  0  2.294395  0  -1.191424  0  -0.395099  -0.633372  0  2.308701  0
O  O79  1  0.07762293  0.41513373  0.64243930  1  0  -0.694701  0  2.052942  0  0  -0.652102  0  2.303623  0  0  -0.678696  0  2.294887  0  -1.191594  0  -0.395069  -0.633303  0  2.309192  0
O  O80  1  0.92346091  0.66672603  0.95566548  1  0  -0.667901  0  1.984039  0  0  -0.612798  0  2.209334  0  0  -0.639192  0  2.200184  0  -1.182257  0  -0.327997  -0.594131  0  2.215044  0
O  O81  1  0.42346119  0.33327672  0.54433389  1  0  -0.667806  0  1.983975  0  0  -0.612675  0  2.209249  0  0  -0.639072  0  2.200104  0  -1.182271  0  -0.327963  -0.59401  0  2.214958  0
O  O82  1  0.07654272  0.33327504  0.04433373  1  0  -0.667889  0  1.984032  0  0  -0.612772  0  2.209354  0  0  -0.639178  0  2.200205  0  -1.182236  0  -0.327992  -0.594104  0  2.215066  0
O  O83  1  0.57653964  0.66672434  0.45566680  1  0  -0.667852  0  1.983965  0  0  -0.61274  0  2.209281  0  0  -0.639142  0  2.200135  0  -1.182175  0  -0.327995  -0.594075  0  2.21499  0
O  O84  1  0.10698988  0.74521123  0.84924049  1  0  -0.651123  0  2.002509  0  0  -0.603089  0  2.2263  0  0  -0.629649  0  2.218856  0  -1.174206  0  -0.325066  -0.584347  0  2.230867  0
O  O85  1  0.60699379  0.25479320  0.65076053  1  0  -0.651126  0  2.002599  0  0  -0.603079  0  2.226393  0  0  -0.629643  0  2.21895  0  -1.174172  0  -0.325086  -0.584337  0  2.230961  0
O  O86  1  0.89301235  0.25478815  0.15075857  1  0  -0.651076  0  2.002551  0  0  -0.603027  0  2.226362  0  0  -0.629592  0  2.218913  0  -1.174159  0  -0.325032  -0.584284  0  2.230929  0
O  O87  1  0.39301403  0.74521207  0.34924205  1  0  -0.651097  0  2.002599  0  0  -0.603064  0  2.226417  0  0  -0.629629  0  2.218972  0  -1.174162  0  -0.325062  -0.584322  0  2.230984  0
O  O88  1  0.69575981  0.88842585  0.21659928  1  0  -0.660483  0  1.984357  0  0  -0.617438  0  2.220261  0  0  -0.64224  0  2.209254  0  -1.159548  0  -0.378251  -0.599986  0  2.227367  0
O  O89  1  0.19576987  0.11157605  0.28340076  1  0  -0.660491  0  1.984067  0  0  -0.617441  0  2.219989  0  0  -0.642247  0  2.208984  0  -1.159572  0  -0.378234  -0.599987  0  2.227094  0
O  O90  1  0.30423683  0.11157184  0.78340628  1  0  -0.660351  0  1.984556  0  0  -0.617315  0  2.220463  0  0  -0.64211  0  2.209456  0  -1.159852  0  -0.378155  -0.599863  0  2.227567  0
O  O91  1  0.80422537  0.88841996  0.71660167  1  0  -0.66057  0  1.983848  0  0  -0.617523  0  2.219788  0  0  -0.642319  0  2.208786  0  -1.1596  0  -0.378274  -0.600065  0  2.22689  0
O  O92  1  0.53248153  0.99776750  0.12129379  1  0  -0.623259  0  2.033473  0  0  -0.560794  0  2.254139  0  0  -0.586256  0  2.242091  0  -1.19223  0  -0.296422  -0.543088  0  2.261962  0
O  O93  1  0.03247623  0.00223693  0.37870279  1  0  -0.623207  0  2.033771  0  0  -0.560743  0  2.254489  0  0  -0.586204  0  2.242439  0  -1.192215  0  -0.296411  -0.543044  0  2.262323  0
O  O94  1  0.46751511  0.00222851  0.87870642  1  0  -0.623138  0  2.033391  0  0  -0.560676  0  2.254056  0  0  -0.586142  0  2.242012  0  -1.192235  0  -0.296337  -0.542983  0  2.261889  0
O  O95  1  0.96751483  0.99775993  0.62129602  1  0  -0.623221  0  2.033806  0  0  -0.560734  0  2.254483  0  0  -0.586196  0  2.242432  0  -1.19217  0  -0.296398  -0.543045  0  2.262325  0
O  O96  1  0.87485837  0.61402988  0.14557710  1  0  -0.910503  0  1.906751  0  0  -0.870142  0  2.095022  0  0  -0.890797  0  2.064802  0  -1.301569  0  -0.640081  -0.855289  0  2.116164  0
O  O97  1  0.37485865  0.38596950  0.35442196  1  0  -0.91043  0  1.906762  0  0  -0.870042  0  2.095138  0  0  -0.890695  0  2.064916  0  -1.30156  0  -0.640059  -0.855189  0  2.116279  0
O  O98  1  0.12513967  0.38597034  0.85442278  1  0  -0.91048  0  1.906741  0  0  -0.870162  0  2.094947  0  0  -0.890811  0  2.064721  0  -1.301555  0  -0.640106  -0.855307  0  2.116091  0
O  O99  1  0.62513939  0.61402903  0.64557850  1  0  -0.910471  0  1.906761  0  0  -0.870107  0  2.095144  0  0  -0.890742  0  2.064911  0  -1.30156  0  -0.640067  -0.855253  0  2.116284  0
O  O100  1  0.04307013  0.79792422  0.27956374  1  0  -0.911817  0  1.848369  0  0  -0.871506  0  2.029039  0  0  -0.891108  0  1.996013  0  -1.28501  0  -0.649781  -0.857379  0  2.05228  0
O  O101  1  0.54307264  0.20207432  0.22043672  1  0  -0.911708  0  1.848499  0  0  -0.871446  0  2.02911  0  0  -0.891036  0  1.996114  0  -1.284939  0  -0.649758  -0.857319  0  2.05235  0
O  O102  1  0.95692931  0.20207600  0.72043614  1  0  -0.91177  0  1.848393  0  0  -0.871486  0  2.02901  0  0  -0.891088  0  1.995983  0  -1.284918  0  -0.649762  -0.857359  0  2.05225  0
O  O103  1  0.45692819  0.79792422  0.77956151  1  0  -0.911803  0  1.848459  0  0  -0.871527  0  2.02912  0  0  -0.89112  0  1.996102  0  -1.284964  0  -0.649782  -0.857394  0  2.052348  0
O  O104  1  0.74389282  0.87650119  0.42355481  1  0  -0.898698  0  1.8637  0  0  -0.860269  0  2.046389  0  0  -0.878644  0  2.016797  0  -1.243482  0  -0.62552  -0.8471  0  2.067189  0
O  O105  1  0.24389869  0.12349650  0.07644778  1  0  -0.898654  0  1.8637  0  0  -0.860249  0  2.046433  0  0  -0.878623  0  2.016846  0  -1.243431  0  -0.625547  -0.847093  0  2.067207  0
O  O106  1  0.25610522  0.12349650  0.57644556  1  0  -0.898692  0  1.863655  0  0  -0.860273  0  2.046397  0  0  -0.878643  0  2.016809  0  -1.243436  0  -0.625552  -0.847114  0  2.067173  0
O  O107  1  0.75610215  0.87650204  0.92354971  1  0  -0.898699  0  1.863616  0  0  -0.860312  0  2.046368  0  0  -0.878673  0  2.016788  0  -1.243751  0  -0.625555  -0.847153  0  2.06714  0
