# generated using pymatgen
data_ZnH13C25NO10
_symmetry_space_group_name_H-M   'P 1'
_cell_length_a   16.59539529
_cell_length_b   17.49660992
_cell_length_c   17.84423163
_cell_angle_alpha   90.79724130
_cell_angle_beta   92.79614951
_cell_angle_gamma   100.73014444
_symmetry_Int_Tables_number   1
_chemical_formula_structural   ZnH13C25NO10
_chemical_formula_sum   'Zn2 H26 C50 N2 O20'
_cell_volume   5083.25497662
_cell_formula_units_Z   2
loop_
 _symmetry_equiv_pos_site_id
 _symmetry_equiv_pos_as_xyz
  1  'x, y, z'
loop_
 _atom_site_type_symbol
 _atom_site_label
 _atom_site_symmetry_multiplicity
 _atom_site_fract_x
 _atom_site_fract_y
 _atom_site_fract_z
 _atom_site_occupancy
 _atom_site_pbe_bader_charge
 _atom_site_pbe_bader_spin_density
 _atom_site_pbe_cm5_charge
 _atom_site_pbe_ddec_charge
 _atom_site_pbe_ddec_spin_density
 _atom_site_pbe_ddec_sum_bond_order
 _atom_site_pbe_magmom
Zn  Zn0  1  0.58739788  0.50461484  0.50556517  1  1.286743  0  0.671198  0.825533  0  2.413917  0
Zn  Zn1  1  0.41353053  0.49030482  0.49894083  1  1.290096  0  0.673903  0.82914  0  2.403761  0
H  H2  1  0.68719350  0.41442736  0.43751680  1  0.143382  0  0.131371  0.115166  0  0.97766  0
H  H3  1  0.31451487  0.56310391  0.58693956  1  0.148646  0  0.130196  0.113861  0  0.997385  0
H  H4  1  0.83437457  0.40025562  0.42905093  1  0.089855  0  0.123575  0.132378  0  0.96535  0
H  H5  1  0.16730197  0.57220911  0.60493493  1  0.097671  0  0.122089  0.130048  0  0.968419  0
H  H6  1  0.41208897  0.25831141  0.37685244  1  0.103139  0  0.112111  0.124307  0  0.975335  0
H  H7  1  0.60441090  0.73851004  0.40502968  1  0.095188  0  0.111706  0.123978  0  0.978777  0
H  H8  1  0.60950215  0.87873259  0.38074221  1  0.070041  0  0.107834  0.104613  0  0.989053  0
H  H9  1  0.41516129  0.11930184  0.35187121  1  0.08351  0  0.10858  0.104463  0  0.989441  0
H  H10  1  0.61700979  0.46324204  0.12311538  1  0.073141  0  0.101431  0.107886  0  0.997906  0
H  H11  1  0.39284236  0.56668640  0.87113626  1  0.079465  0  0.100303  0.106076  0  1.000289  0
H  H12  1  0.62017147  0.45840732  0.26341378  1  0.094986  0  0.104588  0.108265  0  0.995382  0
H  H13  1  0.39420135  0.55538705  0.73118537  1  0.094899  0  0.104338  0.107838  0  1.006935  0
H  H14  1  0.40236836  0.56902805  0.12732285  1  0.056514  0  0.104502  0.117135  0  1.004011  0
H  H15  1  0.61323276  0.46971040  0.88890580  1  0.050775  0  0.102837  0.113954  0  1.006294  0
H  H16  1  0.37976469  0.77431582  0.61900182  1  -0.007695  0  0.091113  -0.001084  0  0.987067  0
H  H17  1  0.55529662  0.21502159  0.65990708  1  -0.00438  0  0.091427  -0.000867  0  0.991287  0
H  H18  1  0.96360825  0.58227563  0.59873924  1  0.598361  0  0.327152  0.350213  0  0.902891  0
H  H19  1  0.03603285  0.42641688  0.40869463  1  0.58765  0  0.327518  0.35134  0  0.900991  0
H  H20  1  0.67356415  0.61145334  0.59956369  1  0.122619  0  0.113819  0.072643  0  1.012475  0
H  H21  1  0.33040074  0.41736776  0.38218004  1  0.117567  0  0.111876  0.068748  0  1.03074  0
H  H22  1  0.34215555  0.01279797  0.40447667  1  0.041109  0  0.099942  0.033939  0  0.975253  0
H  H23  1  0.66686727  0.98431108  0.45567509  1  0.04167  0  0.098328  0.031079  0  0.97513  0
H  H24  1  0.54919268  0.12015626  0.62751772  1  0.610924  0  0.326255  0.348347  0  0.919918  0
H  H25  1  0.41077962  0.87365373  0.60476272  1  0.585754  0  0.326944  0.349043  0  0.917828  0
H  H26  1  0.35913143  0.59085580  0.23956601  1  0.581228  0  0.338082  0.35956  0  0.87615  0
H  H27  1  0.66359742  0.44064063  0.78337667  1  0.600389  0  0.334884  0.354523  0  0.880964  0
C  C28  1  0.49938212  0.50188168  0.64721813  1  1.528358  0  0.224818  0.630251  0  4.128764  0
C  C29  1  0.51722617  0.50069250  0.35750406  1  1.584101  0  0.213856  0.614664  0  4.156374  0
C  C30  1  0.57105764  0.48482383  0.15475443  1  -0.009317  0  -0.099076  -0.162927  0  3.984625  0
C  C31  1  0.44083594  0.54316241  0.84430600  1  -0.056917  0  -0.099828  -0.165252  0  3.985941  0
C  C32  1  0.57239176  0.48185655  0.23238692  1  0.005851  0  -0.0861  -0.075291  0  4.033966  0
C  C33  1  0.44154202  0.53645704  0.76683046  1  0.018583  0  -0.08078  -0.063133  0  4.011551  0
C  C34  1  0.51287808  0.50788340  0.27424020  1  -0.012785  0  -0.026505  -0.142562  0  3.924785  0
C  C35  1  0.50308551  0.50694585  0.73086017  1  0.031121  0  -0.0178  -0.131202  0  3.889592  0
C  C36  1  0.45094061  0.53965870  0.23542455  1  0.497277  0  0.088069  0.307059  0  4.071305  0
C  C37  1  0.56660495  0.48394962  0.77583308  1  0.521951  0  0.092808  0.313946  0  4.054853  0
C  C38  1  0.44990284  0.54403663  0.15729720  1  -0.020902  0  -0.107218  -0.28858  0  3.960616  0
C  C39  1  0.56529929  0.48899978  0.85394691  1  -0.101295  0  -0.108344  -0.288959  0  3.956286  0
C  C40  1  0.50905345  0.51645438  0.11600674  1  0.061886  0  -0.00097  0.17343  0  4.147485  0
C  C41  1  0.50306754  0.51827398  0.88911625  1  0.135926  0  -0.001517  0.170827  0  4.149206  0
C  C42  1  0.50603098  0.51986848  0.03683777  1  -0.038067  0  -0.049202  -0.114513  0  4.119278  0
C  C43  1  0.50378219  0.52073925  0.96838480  1  -0.316009  0  -0.044423  -0.101698  0  4.114209  0
C  C44  1  0.85332946  0.54467991  0.56408183  1  0.543507  0  0.11844  0.231738  0  3.982616  0
C  C45  1  0.14628131  0.45531473  0.44681851  1  0.612252  0  0.119772  0.233141  0  3.980286  0
C  C46  1  0.76920426  0.54889273  0.56496783  1  0.563923  0  0.116887  0.066398  0  3.886745  0
C  C47  1  0.23034274  0.45288075  0.44118744  1  0.505592  0  0.114563  0.064201  0  3.890687  0
C  C48  1  0.73627326  0.45040750  0.47193271  1  0.532873  0  0.052388  0.084056  0  3.938832  0
C  C49  1  0.26496119  0.53350158  0.54862605  1  0.520484  0  0.053785  0.086666  0  3.924831  0
C  C50  1  0.51323475  0.64886049  0.49929598  1  1.645338  0  0.22016  0.601495  0  4.176555  0
C  C51  1  0.47356193  0.34566191  0.49740453  1  1.621544  0  0.217504  0.598847  0  4.195867  0
C  C52  1  0.81770983  0.44283334  0.46763513  1  -0.010007  0  -0.062868  -0.132366  0  3.934061  0
C  C53  1  0.18347305  0.53834584  0.55818349  1  -0.002664  0  -0.063158  -0.132378  0  3.932435  0
C  C54  1  0.87811325  0.49141472  0.51297210  1  0.139074  0  -0.00274  0.030389  0  4.14265  0
C  C55  1  0.12240465  0.49846329  0.50742983  1  0.114629  0  -0.001169  0.033213  0  4.139733  0
C  C56  1  0.96287090  0.49115306  0.51013974  1  -0.328952  0  -0.027451  -0.094612  0  4.129188  0
C  C57  1  0.03779668  0.49807619  0.51278564  1  -0.120462  0  -0.028641  -0.095736  0  4.12697  0
C  C58  1  0.52239467  0.73586208  0.49461574  1  -0.017778  0  0.011705  0.018974  0  3.895764  0
C  C59  1  0.46704272  0.25898260  0.48864674  1  -0.017784  0  0.013545  0.027511  0  3.900405  0
C  C60  1  0.47745255  0.77895703  0.53926568  1  0.005628  0  -0.033334  -0.14936  0  3.994626  0
C  C61  1  0.49791082  0.21483530  0.54542913  1  -0.023657  0  -0.036316  -0.159201  0  4.006005  0
C  C62  1  0.47932853  0.85831645  0.52404457  1  0.55913  0  0.107986  0.273561  0  3.991126  0
C  C63  1  0.50216464  0.13630010  0.52974003  1  0.515564  0  0.110218  0.281348  0  3.991742  0
C  C64  1  0.52687514  0.89558305  0.46625293  1  -0.015746  0  -0.016027  -0.037105  0  4.006159  0
C  C65  1  0.47255141  0.10065275  0.45923137  1  0.062481  0  -0.019363  -0.047355  0  4.013877  0
C  C66  1  0.57300690  0.85136660  0.42573381  1  -0.076901  0  -0.074334  -0.092618  0  3.996197  0
C  C67  1  0.43818146  0.14565692  0.40637437  1  -0.047998  0  -0.07382  -0.087511  0  3.99979  0
C  C68  1  0.57049182  0.77254406  0.43902857  1  0.049578  0  -0.090853  -0.125293  0  3.995926  0
C  C69  1  0.43630579  0.22397971  0.42003060  1  -0.019311  0  -0.092907  -0.13314  0  3.998506  0
C  C70  1  0.53454978  0.97977228  0.45689016  1  -0.013162  0  0.002971  -0.003466  0  3.871218  0
C  C71  1  0.46876173  0.01708455  0.44665463  1  0.006993  0  0.003428  -0.002329  0  3.873365  0
C  C72  1  0.43058356  0.74399730  0.60192299  1  0.943529  0  0.091597  0.279765  0  4.031033  0
C  C73  1  0.52114419  0.24925708  0.62060625  1  0.959514  0  0.092852  0.278578  0  4.024942  0
C  C74  1  0.73710294  0.60439322  0.61536927  1  0.982785  0  0.105444  0.259818  0  3.905984  0
C  C75  1  0.26250071  0.40957838  0.37983144  1  0.99462  0  0.101874  0.252038  0  3.914721  0
C  C76  1  0.38650421  0.97372634  0.41898597  1  0.932216  0  0.09563  0.261697  0  3.966054  0
C  C77  1  0.62065121  0.02330475  0.45684822  1  0.918185  0  0.09513  0.262016  0  3.966647  0
N  N78  1  0.71361002  0.50295917  0.51807767  1  -1.209278  0  -0.296231  -0.197351  0  3.491425  0
N  N79  1  0.28692057  0.49143161  0.49222330  1  -1.219777  0  -0.295016  -0.195309  0  3.486401  0
O  O80  1  0.56683947  0.50390216  0.61565210  1  -1.151256  0  -0.309708  -0.53888  0  2.393922  0
O  O81  1  0.44969819  0.48947201  0.39009318  1  -1.171614  0  -0.31271  -0.549982  0  2.401738  0
O  O82  1  0.42912915  0.49704654  0.61312436  1  -1.15101  0  -0.315366  -0.551468  0  2.325921  0
O  O83  1  0.58821016  0.50516908  0.39013247  1  -1.156  0  -0.323783  -0.553893  0  2.294005  0
O  O84  1  0.57945843  0.62204906  0.50291945  1  -1.172123  0  -0.3138  -0.552401  0  2.324299  0
O  O85  1  0.40701798  0.37144138  0.49829747  1  -1.15476  0  -0.314519  -0.540379  0  2.303422  0
O  O86  1  0.44044608  0.61047827  0.49427683  1  -1.16065  0  -0.311579  -0.538706  0  2.337692  0
O  O87  1  0.54614748  0.38463228  0.49696643  1  -1.1633  0  -0.311849  -0.549127  0  2.328174  0
O  O88  1  0.44137854  0.68650774  0.63659876  1  -1.06191  0  -0.249262  -0.332074  0  2.151622  0
O  O89  1  0.50543885  0.31064282  0.64402973  1  -1.047843  0  -0.241665  -0.311946  0  2.13988  0
O  O90  1  0.90878111  0.59169149  0.60950211  1  -1.097034  0  -0.31401  -0.377217  0  2.315974  0
O  O91  1  0.09037082  0.41736105  0.39570958  1  -1.082064  0  -0.312742  -0.375394  0  2.314248  0
O  O92  1  0.77684862  0.63897723  0.66905175  1  -1.049054  0  -0.257889  -0.327879  0  2.091485  0
O  O93  1  0.21935881  0.37021986  0.33065919  1  -1.059206  0  -0.261626  -0.331549  0  2.091444  0
O  O94  1  0.36586676  0.90311753  0.41042287  1  -1.031686  0  -0.25839  -0.340306  0  2.129742  0
O  O95  1  0.64292242  0.09409477  0.45649830  1  -1.030152  0  -0.260533  -0.342305  0  2.124504  0
O  O96  1  0.53099742  0.09021917  0.58127482  1  -1.126584  0  -0.33518  -0.418725  0  2.334547  0
O  O97  1  0.43963814  0.90402557  0.56553514  1  -1.108451  0  -0.335254  -0.418214  0  2.335534  0
O  O98  1  0.39370399  0.56773757  0.27494892  1  -1.092872  0  -0.345284  -0.425765  0  2.279493  0
O  O99  1  0.62813144  0.45563581  0.74325461  1  -1.101396  0  -0.342191  -0.422299  0  2.301991  0
