# generated using pymatgen
data_NiH17C22N5O6
_symmetry_space_group_name_H-M   'P 1'
_cell_length_a   8.28362500
_cell_length_b   10.23037687
_cell_length_c   13.35916334
_cell_angle_alpha   94.80545785
_cell_angle_beta   108.19562165
_cell_angle_gamma   104.77215477
_symmetry_Int_Tables_number   1
_chemical_formula_structural   NiH17C22N5O6
_chemical_formula_sum   'Ni2 H34 C44 N10 O12'
_cell_volume   1023.37481186
_cell_formula_units_Z   2
loop_
 _symmetry_equiv_pos_site_id
 _symmetry_equiv_pos_as_xyz
  1  'x, y, z'
loop_
 _atom_site_type_symbol
 _atom_site_label
 _atom_site_symmetry_multiplicity
 _atom_site_fract_x
 _atom_site_fract_y
 _atom_site_fract_z
 _atom_site_occupancy
 _atom_site_hle17_ddec_charge
 _atom_site_hle17_ddec_spin_density
 _atom_site_hle17_ddec_sum_bond_order
 _atom_site_hle17_magmom
 _atom_site_hse06_10hf_ddec_charge
 _atom_site_hse06_10hf_ddec_spin_density
 _atom_site_hse06_10hf_ddec_sum_bond_order
 _atom_site_hse06_10hf_magmom
 _atom_site_hse06_ddec_charge
 _atom_site_hse06_ddec_spin_density
 _atom_site_hse06_ddec_sum_bond_order
 _atom_site_hse06_magmom
 _atom_site_pbe_cm5_charge
 _atom_site_pbe_ddec_charge
 _atom_site_pbe_ddec_spin_density
 _atom_site_pbe_ddec_sum_bond_order
 _atom_site_pbe_magmom
Ni  Ni0  1  0.13574902  0.18998266  0.43479097  1  0.867665  1.763969  1.993329  1.511  0.870644  1.819213  2.389805  1.627  0.964652  1.873861  2.310699  1.715  0.656744  0.797815  1.768071  2.45295  1.547
Ni  Ni1  1  0.86434147  0.81003803  0.56507399  1  0.867265  1.763733  1.992747  1.511  0.870128  1.819127  2.389416  1.627  0.964683  1.873756  2.309507  1.715  0.656691  0.797377  1.768061  2.452334  1.548
H  H2  1  0.70873213  0.18547379  0.86427167  1  0.087114  0.000161  0.941571  0.0  0.098297  0.000116  1.009429  0.0  0.099324  7.6e-05  1.008558  0.0  0.109271  0.097437  0.000164  1.010267  0.0
H  H3  1  0.29130530  0.81430155  0.13560950  1  0.087653  0.000165  0.941379  0.0  0.098774  0.000115  1.009224  0.0  0.099831  7.5e-05  1.008383  0.0  0.109268  0.097859  0.000163  1.01008  0.0
H  H4  1  0.70434250  0.23052122  0.32989145  1  0.128382  0.00024  0.981113  0.0  0.135815  0.000176  1.045189  0.0  0.138952  0.000103  1.043357  0.0  0.121766  0.133425  0.000258  1.046677  0.001
H  H5  1  0.29583844  0.76963536  0.67008633  1  0.128283  0.000239  0.981437  0.0  0.135472  0.000176  1.045756  0.0  0.138581  0.000103  1.043934  0.0  0.121667  0.13309  0.000257  1.047237  0.001
H  H6  1  0.20490014  0.30801851  0.22438938  1  0.096818  -9.1e-05  0.953871  0.001  0.102546  -4.6e-05  1.024109  0.0  0.105206  -6.1e-05  1.020256  0.0  0.133386  0.100532  -4e-05  1.02693  0.0
H  H7  1  0.79524369  0.69220840  0.77579680  1  0.096811  -9.3e-05  0.954502  0.001  0.102298  -4.7e-05  1.024981  0.0  0.104935  -6.1e-05  1.02116  0.0  0.133495  0.100302  -4.1e-05  1.027776  0.0
H  H8  1  0.98653799  0.84355667  0.19395234  1  0.130158  0.000179  0.943764  0.0  0.134296  0.000134  1.010731  0.0  0.138421  7.9e-05  1.007347  0.0  0.117404  0.131216  0.000175  1.013205  0.0
H  H9  1  0.01279321  0.15630205  0.80584617  1  0.130591  0.000178  0.943293  0.0  0.134593  0.000133  1.010406  0.0  0.138709  7.8e-05  1.007043  0.0  0.117527  0.131534  0.000174  1.012898  0.0
H  H10  1  0.09333447  0.92221743  0.93018150  1  0.092668  -1.8e-05  0.961792  0.0  0.105285  -1.7e-05  1.019056  0.0  0.107785  -1.7e-05  1.017889  0.0  0.100305  0.103447  -1.7e-05  1.020047  0.0
H  H11  1  0.90675774  0.07790777  0.06999056  1  0.092777  -2e-05  0.961909  0.0  0.105263  -1.7e-05  1.019348  0.0  0.107756  -1.8e-05  1.018193  0.0  0.100433  0.103427  -1.7e-05  1.020343  0.0
H  H12  1  0.52752368  0.16164283  0.47345194  1  0.106506  0.000175  0.947415  0.001  0.116886  0.000323  1.003677  0.001  0.118586  0.000216  1.003613  0.0  0.118875  0.115616  0.000432  1.004015  0.001
H  H13  1  0.47269098  0.83840911  0.52654293  1  0.106443  0.000174  0.947361  0.001  0.116818  0.000322  1.003631  0.001  0.118523  0.000215  1.003555  0.0  0.118871  0.115501  0.000431  1.004032  0.001
H  H14  1  0.64656851  0.30412618  0.00645438  1  0.095061  -1.6e-05  0.985929  0.0  0.103841  -0.0  1.053703  0.0  0.106816  0.0  1.051788  0.0  0.094912  0.101653  2e-06  1.055248  0.0
H  H15  1  0.35362726  0.69582704  0.99348270  1  0.094875  -1.5e-05  0.985746  0.0  0.103657  -0.0  1.053712  0.0  0.106642  0.0  1.051788  0.0  0.094952  0.101443  2e-06  1.055295  0.0
H  H16  1  0.64219298  0.37573359  0.17876584  1  0.085288  7.2e-05  0.943278  0.0  0.102842  0.0001  1.00454  0.0  0.103074  6.6e-05  1.004975  0.0  0.112234  0.102632  0.000151  1.004207  0.0
H  H17  1  0.35802198  0.62440791  0.82132307  1  0.085472  7.2e-05  0.942694  0.0  0.102978  0.000101  1.00399  0.0  0.103221  6.6e-05  1.00443  0.0  0.112296  0.102757  0.000151  1.003639  0.0
H  H18  1  0.43130134  0.44134448  0.59857773  1  0.119879  8e-06  0.94496  0.001  0.128142  0.000159  1.003307  0.001  0.131231  8.7e-05  1.001309  0.001  0.120305  0.125856  0.000234  1.004805  0.001
H  H19  1  0.56828840  0.55830230  0.40134917  1  0.120167  7e-06  0.944957  0.001  0.128423  0.000158  1.003344  0.001  0.131467  8.6e-05  1.00141  0.001  0.1207  0.126164  0.000233  1.004789  0.001
H  H20  1  0.08236500  0.63141904  0.46143651  1  0.121222  6.7e-05  0.951913  0.0  0.125593  9.3e-05  1.019982  0.0  0.130127  3.1e-05  1.016001  0.0  0.113652  0.122193  0.000197  1.022964  0.0
H  H21  1  0.91653115  0.36889687  0.53863360  1  0.121342  8.7e-05  0.95152  0.0  0.125974  0.000101  1.019368  0.0  0.130526  3.7e-05  1.015359  0.0  0.113851  0.12255  0.000206  1.022396  0.0
H  H22  1  0.93283502  0.40843243  0.14231767  1  0.123047  0.000119  0.951481  0.0  0.122744  9.3e-05  1.0302  0.0  0.127853  5.5e-05  1.024438  0.0  0.113543  0.119087  0.000153  1.03414  0.0
H  H23  1  0.06787171  0.59163425  0.85804450  1  0.12355  0.000122  0.951393  0.0  0.123244  9.3e-05  1.030002  0.0  0.128431  5.5e-05  1.024139  0.0  0.113668  0.119517  0.000152  1.034015  0.0
H  H24  1  0.20226148  0.09833260  0.09464786  1  0.086497  -7.7e-05  0.969096  0.0  0.09706  -4.7e-05  1.033789  0.0  0.099593  -4e-05  1.032604  0.0  0.099692  0.095191  -6e-05  1.034832  0.0
H  H25  1  0.79799559  0.90190552  0.90547174  1  0.086485  -7.4e-05  0.969486  0.0  0.097048  -4.6e-05  1.03414  0.0  0.099584  -4e-05  1.032948  0.0  0.099521  0.095178  -6e-05  1.035176  0.0
H  H26  1  0.56148004  0.02499095  0.78809894  1  0.081463  -8.3e-05  0.942483  0.0  0.093059  -3.8e-05  1.011065  0.0  0.09369  -2.6e-05  1.011565  0.0  0.110978  0.092605  -5.1e-05  1.010655  0.0
H  H27  1  0.43847696  0.97474876  0.21191571  1  0.081382  -7.9e-05  0.942299  0.0  0.092998  -3.8e-05  1.010831  0.0  0.093655  -2.7e-05  1.011344  0.0  0.110938  0.092538  -5.1e-05  1.010392  0.0
H  H28  1  0.43525107  0.41016721  0.13762295  1  0.082526  -7.9e-05  0.940173  0.0  0.0951  -1.6e-05  1.008416  0.0  0.095882  -1.3e-05  1.007835  0.0  0.110811  0.094461  -1.6e-05  1.009064  0.0
H  H29  1  0.56493202  0.58994522  0.86235021  1  0.082746  -7.6e-05  0.939567  0.0  0.095381  -1.6e-05  1.007683  0.0  0.096172  -1.3e-05  1.007122  0.0  0.110972  0.094726  -1.6e-05  1.008325  0.0
H  H30  1  0.65943477  0.40584022  0.79268866  1  0.109701  0.000417  0.984034  0.001  0.115613  0.000352  1.054777  0.0  0.118231  0.000257  1.053342  0.0  0.112537  0.113681  0.000442  1.056018  0.001
H  H31  1  0.34059661  0.59383650  0.20716489  1  0.110019  0.000418  0.984541  0.001  0.115554  0.000353  1.055755  0.0  0.118135  0.000259  1.054368  0.0  0.112705  0.11367  0.000443  1.056942  0.001
H  H32  1  0.28639043  0.02247439  0.62236090  1  0.113072  3.3e-05  0.980513  0.001  0.118995  -2.4e-05  1.048027  0.001  0.122004  -5.4e-05  1.04455  0.0  0.135412  0.11676  2.1e-05  1.050415  0.001
H  H33  1  0.71347492  0.97721573  0.37756711  1  0.111937  3e-05  0.979992  0.001  0.117913  -2.6e-05  1.047558  0.001  0.120905  -5.6e-05  1.044091  0.0  0.135217  0.115709  1.8e-05  1.049926  0.001
H  H34  1  0.25673439  0.93520773  0.80435557  1  0.10762  -8.9e-05  0.968353  0.0  0.117093  -9.1e-05  1.034013  0.0  0.120209  -0.000103  1.032237  0.0  0.101931  0.114699  -5.2e-05  1.035539  0.0
H  H35  1  0.74329701  0.06469558  0.19577880  1  0.107714  -9.1e-05  0.968253  0.0  0.117224  -9.1e-05  1.033816  0.0  0.120337  -0.000103  1.032046  0.0  0.102025  0.114783  -5.2e-05  1.035422  0.0
C  C36  1  0.43621229  0.34988102  0.63344595  1  0.000759  -0.004306  3.725959  -0.002  -0.028874  -0.001073  3.998325  0.0  -0.024767  -0.001741  4.01792  -0.001  -0.003765  -0.031989  -0.000609  3.98515  0.0
C  C37  1  0.56355804  0.64978643  0.36648031  1  0.000286  -0.004282  3.726764  -0.002  -0.029336  -0.001053  3.999233  0.0  -0.025198  -0.00172  4.018797  -0.001  -0.004082  -0.03246  -0.000591  3.986107  0.0
C  C38  1  0.06859499  0.88014043  0.41227971  1  0.651773  -0.003439  3.878869  -0.003  0.61009  0.004866  4.177491  0.005  0.650002  0.00325  4.16875  0.004  0.217738  0.58158  0.006767  4.18255  0.007
C  C39  1  0.93116798  0.12010759  0.58747151  1  0.64901  -0.003298  3.880311  -0.003  0.607711  0.004954  4.178534  0.005  0.647647  0.003321  4.169798  0.004  0.216801  0.579187  0.006877  4.183599  0.007
C  C40  1  0.95995324  0.50313927  0.19665351  1  -0.111502  -0.004792  3.712538  -0.003  -0.15373  -0.000796  3.980663  0.0  -0.148121  -0.000515  3.994258  0.0  -0.075852  -0.156502  -0.000442  3.970938  0.0
C  C41  1  0.04021528  0.49693978  0.80351311  1  -0.112197  -0.004945  3.714421  -0.003  -0.154028  -0.000808  3.980563  0.0  -0.148468  -0.000522  3.994132  0.0  -0.075717  -0.156743  -0.00046  3.970823  0.0
C  C42  1  0.35817073  0.13145227  0.64210459  1  0.149046  -0.014968  3.628734  -0.009  0.09315  -0.005607  3.897769  -0.003  0.108694  -0.006021  3.910352  -0.003  0.137814  0.082606  -0.005442  3.888874  -0.002
C  C43  1  0.64170354  0.86822454  0.35783253  1  0.150617  -0.015044  3.626724  -0.009  0.094754  -0.005641  3.896012  -0.003  0.110307  -0.006052  3.908603  -0.003  0.138009  0.084166  -0.00548  3.887179  -0.002
C  C44  1  0.54907057  0.33380407  0.72869440  1  -0.080591  0.004162  3.694685  0.005  -0.120403  0.001794  3.952688  0.002  -0.120203  0.001567  3.973026  0.002  -0.00906  -0.120553  0.002104  3.939346  0.003
C  C45  1  0.45081456  0.66588809  0.27122033  1  -0.080596  0.004168  3.69484  0.005  -0.120112  0.001796  3.952913  0.002  -0.119874  0.001568  3.973249  0.002  -0.009134  -0.120315  0.002106  3.939562  0.003
C  C46  1  0.01055018  0.50680316  0.30705906  1  -0.049334  0.003676  3.747742  0.004  -0.021098  0.001725  3.979473  0.002  -0.030345  0.001245  3.999856  0.001  -0.008849  -0.01571  0.002269  3.966438  0.002
C  C47  1  0.98920107  0.49333712  0.69309778  1  -0.049189  0.003741  3.748558  0.005  -0.020883  0.001724  3.98034  0.002  -0.030158  0.001246  4.000744  0.001  -0.009074  -0.015453  0.002268  3.967241  0.002
C  C48  1  0.99248823  0.74968801  0.22583900  1  -0.074414  -0.002888  3.647368  -0.002  -0.11205  0.000364  3.899872  0.0  -0.105423  2.8e-05  3.913855  0.0  -0.062657  -0.115991  0.001024  3.890584  0.001
C  C49  1  0.00700389  0.25025526  0.77405195  1  -0.075299  -0.002991  3.649564  -0.002  -0.112483  0.00036  3.900671  0.0  -0.105865  2.4e-05  3.91468  0.0  -0.0626  -0.116465  0.001035  3.891438  0.001
C  C50  1  0.03291024  0.75011768  0.33573737  1  -0.047833  0.00596  3.703362  0.008  -0.021966  0.002797  3.934995  0.004  -0.033233  0.00198  3.956357  0.003  -0.005972  -0.015156  0.003516  3.922101  0.005
C  C51  1  0.96649741  0.24994669  0.66416445  1  -0.046466  0.006049  3.70296  0.008  -0.02096  0.00281  3.93503  0.004  -0.032239  0.001987  3.956419  0.003  -0.006093  -0.014162  0.003527  3.922157  0.005
C  C52  1  0.30681588  0.01459726  0.87549528  1  -0.111599  7.2e-05  3.71953  0.0  -0.135931  2.7e-05  3.968543  0.0  -0.138389  -1e-06  3.990186  0.0  -0.089087  -0.134257  8.2e-05  3.953991  0.0
C  C53  1  0.69328629  0.98535531  0.12460940  1  -0.111689  6.4e-05  3.719448  0.0  -0.136031  2.6e-05  3.968511  0.0  -0.138488  -1e-06  3.990139  0.0  -0.08904  -0.13434  8.2e-05  3.954037  0.0
C  C54  1  0.04548325  0.62967563  0.37570412  1  -0.013264  -0.001692  3.614371  -0.001  -0.054913  0.000755  3.860544  0.001  -0.048339  0.000241  3.874969  0.001  -0.051968  -0.059913  0.000618  3.852423  0.001
C  C55  1  0.95384766  0.37045890  0.62435280  1  -0.014024  -0.001852  3.615618  -0.001  -0.055805  0.000758  3.86187  0.001  -0.049216  0.000246  3.87629  0.001  -0.052115  -0.060801  0.000627  3.85374  0.001
C  C56  1  0.46401653  0.12109204  0.89735628  1  0.07376  -0.000362  3.77349  0.0  0.095992  -0.000159  4.009694  0.0  0.094766  -0.000133  4.035563  0.0  -0.013779  0.096901  -0.000164  3.992006  0.0
C  C57  1  0.53609499  0.87882240  0.10269165  1  0.074165  -0.000341  3.772326  0.0  0.096246  -0.00016  4.008849  0.0  0.095064  -0.000135  4.034738  0.0  -0.013601  0.097123  -0.000162  3.991124  0.0
C  C58  1  0.56817836  0.12843793  0.82224287  1  -0.041917  0.000783  3.650931  0.001  -0.108039  0.00056  3.89963  0.001  -0.103358  0.000411  3.909426  0.001  -0.048287  -0.111101  0.000705  3.893002  0.001
C  C59  1  0.43182106  0.87132330  0.17774612  1  -0.042784  0.000768  3.650782  0.001  -0.108828  0.000559  3.899584  0.001  -0.104292  0.000411  3.909566  0.001  -0.048244  -0.111769  0.000702  3.892848  0.001
C  C60  1  0.27509106  0.10646541  0.03897648  1  -0.120812  7.8e-05  3.762545  0.0  -0.14788  1e-06  4.018093  0.0  -0.15044  -1e-06  4.040566  0.0  -0.098642  -0.146011  4e-06  4.002813  0.0
C  C61  1  0.72513280  0.89367612  0.96111564  1  -0.121199  6e-05  3.763281  0.0  -0.148183  0.0  4.018666  0.0  -0.150747  -1e-06  4.041128  0.0  -0.098666  -0.146304  4e-06  4.003385  0.0
C  C62  1  0.95555406  0.62575131  0.15869624  1  0.06561  0.000839  3.731106  0.001  0.050754  2.9e-05  3.992019  0.0  0.044824  9.7e-05  4.013756  0.0  0.074347  0.054388  0.000112  3.977229  0.0
C  C63  1  0.04432717  0.37418546  0.84132753  1  0.057079  0.000891  3.726524  0.001  0.050526  3.2e-05  3.991734  0.0  0.044592  0.0001  4.013469  0.0  0.074419  0.054162  0.000112  3.976944  0.0
C  C64  1  0.43057315  0.21491485  0.06062678  1  0.06511  -0.000329  3.763144  0.0  0.087558  -0.000134  4.003319  0.0  0.086258  -0.000111  4.028858  0.0  -0.020001  0.088354  -0.000149  3.985849  0.0
C  C65  1  0.56968886  0.78517420  0.93940874  1  0.064849  -0.000311  3.763963  0.0  0.087096  -0.000132  4.004348  0.0  0.085825  -0.00011  4.029903  0.0  -0.020108  0.087871  -0.000148  3.986845  0.0
C  C66  1  0.52399397  0.22094703  0.98944523  1  -0.167857  0.000262  3.723808  0.0  -0.192823  0.000107  3.961139  0.0  -0.196607  7.1e-05  3.983544  0.0  -0.09723  -0.18988  0.00015  3.945689  0.0
C  C67  1  0.47620619  0.77904026  0.01056147  1  -0.167371  0.000253  3.722891  0.0  -0.192247  0.000106  3.960291  0.0  -0.196039  7.1e-05  3.982692  0.0  -0.097255  -0.189293  0.000149  3.944836  0.0
C  C68  1  0.21328011  0.00743169  0.94643890  1  -0.055025  -9e-05  3.762894  0.0  -0.064824  -6e-06  4.011764  0.0  -0.067087  -2.6e-05  4.033774  0.0  -0.090483  -0.063069  2.1e-05  3.99671  0.0
C  C69  1  0.78686841  0.99264520  0.05369304  1  -0.054621  -6.4e-05  3.763366  0.0  -0.064321  -6e-06  4.012174  0.0  -0.066564  -2.5e-05  4.034153  0.0  -0.090434  -0.062571  2e-05  3.997144  0.0
C  C70  1  0.03556386  0.38139073  0.35211804  1  0.60197  -0.011792  3.928882  -0.01  0.55788  -0.003865  4.230187  -0.004  0.593376  -0.003355  4.228129  -0.003  0.192636  0.532936  -0.004213  4.229693  -0.005
C  C71  1  0.96443029  0.61875152  0.64793519  1  0.600886  -0.011799  3.92965  -0.01  0.556825  -0.003861  4.230927  -0.004  0.592321  -0.003352  4.228929  -0.003  0.19276  0.531848  -0.004209  4.230445  -0.005
C  C72  1  0.57505031  0.23510360  0.33014983  1  -0.072828  0.003925  3.65668  0.005  -0.111061  0.00156  3.912128  0.002  -0.10957  0.001404  3.929203  0.002  -8.8e-05  -0.112122  0.001843  3.900995  0.002
C  C73  1  0.42510125  0.76503247  0.66984271  1  -0.073025  0.003918  3.657048  0.005  -0.111004  0.00156  3.912545  0.002  -0.109502  0.001403  3.929602  0.002  -4.7e-05  -0.112058  0.001844  3.901389  0.002
C  C74  1  0.49843426  0.32872321  0.15688605  1  -0.035849  0.000856  3.653061  0.001  -0.104416  0.000633  3.901032  0.001  -0.099719  0.000472  3.911829  0.001  -0.046434  -0.107479  0.000805  3.893876  0.001
C  C75  1  0.50177247  0.67141088  0.84311998  1  -0.036685  0.000849  3.653442  0.001  -0.105039  0.000632  3.901388  0.001  -0.100405  0.000472  3.912251  0.001  -0.046506  -0.108042  0.000804  3.894162  0.001
C  C76  1  0.31583773  0.27884901  0.27473864  1  0.14973  -0.012762  3.651968  -0.007  0.096456  -0.003781  3.919671  -0.001  0.1111  -0.004361  3.933547  -0.002  0.138249  0.086515  -0.003651  3.909732  -0.001
C  C77  1  0.68436006  0.72132738  0.72534619  1  0.149502  -0.012703  3.65198  -0.007  0.096363  -0.003764  3.919693  -0.001  0.110998  -0.004347  3.933597  -0.002  0.138151  0.086408  -0.003629  3.909769  -0.001
C  C78  1  0.48606521  0.20189431  0.40022034  1  0.007231  -0.005845  3.733178  -0.004  -0.02257  -0.00233  4.002983  -0.001  -0.019053  -0.002906  4.023241  -0.002  0.000971  -0.025392  -0.001937  3.98932  -0.001
C  C79  1  0.51413434  0.79821102  0.59978398  1  0.007675  -0.005835  3.732361  -0.004  -0.022233  -0.002332  4.002053  -0.001  -0.018722  -0.002909  4.022341  -0.002  0.001176  -0.025026  -0.001936  3.988426  -0.001
N  N80  1  0.49847672  0.19516884  0.73243048  1  -0.056877  0.000531  3.578325  0.002  0.03868  0.000355  3.790981  0.001  0.023786  0.000142  3.816777  0.001  -0.244474  0.048527  0.000567  3.773645  0.002
N  N81  1  0.50144018  0.80451002  0.26749177  1  -0.056765  0.000528  3.577414  0.002  0.038846  0.000348  3.790037  0.001  0.023991  0.000136  3.81586  0.001  -0.244147  0.048665  0.000558  3.772691  0.002
N  N82  1  0.31804003  0.22277646  0.58064981  1  -0.347156  0.058661  3.359586  0.094  -0.313945  0.037425  3.675509  0.061  -0.346307  0.028766  3.69548  0.05  -0.35891  -0.290551  0.04443  3.661845  0.069
N  N83  1  0.68176550  0.77687667  0.41928457  1  -0.347058  0.058668  3.359194  0.094  -0.31403  0.037428  3.675496  0.061  -0.346457  0.02877  3.695419  0.05  -0.358967  -0.290678  0.044424  3.661859  0.069
N  N84  1  0.91500402  0.62385453  0.04403939  1  0.477455  7.7e-05  3.940398  0.0  0.53175  0.000104  4.198162  0.0  0.553446  5.6e-05  4.206493  0.0  0.054431  0.51709  0.000192  4.192751  0.0
N  N85  1  0.08515958  0.37600349  0.95600601  1  0.507043  6.2e-05  3.894649  0.0  0.531778  0.000106  4.197582  0.0  0.553482  5.6e-05  4.205904  0.0  0.054331  0.51711  0.000198  4.192177  0.0
N  N86  1  0.46548117  0.28445545  0.25138492  1  -0.060387  0.000179  3.594319  0.002  0.033788  0.000378  3.809998  0.001  0.019188  0.000155  3.835846  0.001  -0.245164  0.043496  0.000559  3.792614  0.002
N  N87  1  0.53467257  0.71572587  0.74864160  1  -0.059835  0.000181  3.594549  0.002  0.034256  0.000383  3.8102  0.001  0.019696  0.000158  3.836048  0.001  -0.245379  0.043935  0.000565  3.792803  0.002
N  N88  1  0.32514764  0.22976005  0.36487496  1  -0.332337  0.056549  3.32971  0.089  -0.297608  0.037187  3.63335  0.06  -0.327536  0.028899  3.653533  0.049  -0.349777  -0.275653  0.044146  3.619266  0.067
N  N89  1  0.67506196  0.77037110  0.63517934  1  -0.332182  0.056591  3.328786  0.089  -0.29725  0.037224  3.632164  0.06  -0.327286  0.028918  3.652376  0.049  -0.349597  -0.275289  0.0442  3.618015  0.068
O  O90  1  0.08231112  0.87042788  0.50881084  1  -0.623639  0.018032  2.081922  0.031  -0.59372  0.011075  2.354216  0.018  -0.627517  0.007583  2.342193  0.014  -0.316893  -0.568076  0.014664  2.362148  0.022
O  O91  1  0.91801766  0.13011972  0.49108237  1  -0.622554  0.017931  2.082799  0.031  -0.592629  0.011015  2.354962  0.018  -0.626421  0.007538  2.343136  0.014  -0.316662  -0.566963  0.014586  2.362838  0.022
O  O92  1  0.98310436  0.72928340  0.01426009  1  -0.349325  0.000108  1.796226  0.0  -0.337065  5e-05  1.999482  0.0  -0.348837  3.5e-05  1.996413  0.0  -0.112483  -0.329529  0.00012  2.001979  0.0
O  O93  1  0.01707626  0.27058592  0.98578705  1  -0.359447  0.000129  1.781988  0.0  -0.336995  4.9e-05  1.999282  0.0  -0.348739  3.6e-05  1.996187  0.0  -0.112306  -0.3295  0.000124  2.001868  0.0
O  O94  1  0.08670494  0.98965082  0.37293464  1  -0.578247  0.056136  2.08441  0.093  -0.556585  0.037713  2.361308  0.064  -0.594958  0.027631  2.349555  0.049  -0.303846  -0.527377  0.047286  2.369028  0.076
O  O95  1  0.91289821  0.01044667  0.62662437  1  -0.577004  0.056086  2.085045  0.093  -0.555473  0.037671  2.361875  0.063  -0.593861  0.027599  2.349944  0.049  -0.303431  -0.526312  0.047234  2.369632  0.076
O  O96  1  0.81468329  0.51570753  0.98122867  1  -0.378481  0.000151  1.789742  0.0  -0.367832  8.6e-05  1.994259  0.0  -0.38128  4.6e-05  1.99113  0.0  -0.13582  -0.359203  0.000158  1.996899  0.0
O  O97  1  0.18566352  0.48411474  0.01883099  1  -0.38861  0.000153  1.775806  0.0  -0.367632  8.9e-05  1.994465  0.0  -0.381131  4.4e-05  1.991366  0.0  -0.135803  -0.358995  0.000165  1.997132  0.0
O  O98  1  0.96155292  0.26298852  0.29280131  1  -0.600364  0.031076  1.931943  0.051  -0.568331  0.022202  2.177062  0.037  -0.602329  0.015296  2.169765  0.027  -0.311532  -0.541774  0.028947  2.180611  0.046
O  O99  1  0.03842471  0.73723139  0.70712116  1  -0.599869  0.031065  1.932331  0.051  -0.567757  0.02219  2.17724  0.037  -0.601871  0.015289  2.170077  0.027  -0.311662  -0.541272  0.028929  2.180894  0.046
O  O100  1  0.13757218  0.39723954  0.44895688  1  -0.568011  0.056327  2.002272  0.093  -0.544811  0.035498  2.261776  0.06  -0.584254  0.025314  2.257818  0.046  -0.299326  -0.513821  0.045424  2.262404  0.074
O  O101  1  0.86260193  0.60279282  0.55102446  1  -0.567639  0.056371  2.002982  0.093  -0.544355  0.035524  2.262504  0.06  -0.583875  0.02533  2.258501  0.046  -0.299337  -0.513381  0.045451  2.263133  0.074
