# generated using pymatgen
data_Cu3H9C12Br3N5
_symmetry_space_group_name_H-M   'P 1'
_cell_length_a   8.83163272
_cell_length_b   13.10866015
_cell_length_c   15.93518206
_cell_angle_alpha   89.99893684
_cell_angle_beta   91.90752760
_cell_angle_gamma   90.00033009
_symmetry_Int_Tables_number   1
_chemical_formula_structural   Cu3H9C12Br3N5
_chemical_formula_sum   'Cu12 H36 C48 Br12 N20'
_cell_volume   1843.80761082
_cell_formula_units_Z   4
loop_
 _symmetry_equiv_pos_site_id
 _symmetry_equiv_pos_as_xyz
  1  'x, y, z'
loop_
 _atom_site_type_symbol
 _atom_site_label
 _atom_site_symmetry_multiplicity
 _atom_site_fract_x
 _atom_site_fract_y
 _atom_site_fract_z
 _atom_site_occupancy
 _atom_site_pbe_bader_charge
 _atom_site_pbe_bader_spin_density
 _atom_site_pbe_cm5_charge
 _atom_site_pbe_ddec_charge
 _atom_site_pbe_ddec_spin_density
 _atom_site_pbe_ddec_sum_bond_order
 _atom_site_pbe_magmom
Cu  Cu0  1  0.60473674  0.46131198  0.20223447  1  0.653538  0  0.435405  0.38339  0  2.609098  0
Cu  Cu1  1  0.60475958  0.03866084  0.70222569  1  0.653151  0  0.435623  0.383651  0  2.609083  0
Cu  Cu2  1  0.39524004  0.53868084  0.79777359  1  0.65339  0  0.435436  0.383415  0  2.609226  0
Cu  Cu3  1  0.39523371  0.96134342  0.29777426  1  0.653191  0  0.435593  0.383599  0  2.608892  0
Cu  Cu4  1  0.05771758  0.32755548  0.25542774  1  0.603166  0  0.403118  0.285187  0  2.558212  0
Cu  Cu5  1  0.05772003  0.17243969  0.75543283  1  0.603213  0  0.403116  0.285073  0  2.558545  0
Cu  Cu6  1  0.94228623  0.67244039  0.74456825  1  0.603161  0  0.403103  0.28515  0  2.558107  0
Cu  Cu7  1  0.94228147  0.82756381  0.24456370  1  0.603199  0  0.403088  0.285124  0  2.558394  0
Cu  Cu8  1  0.78413811  0.25726667  0.26635576  1  0.524179  0  0.287527  0.237837  0  2.600073  0
Cu  Cu9  1  0.78412404  0.24272054  0.76636083  1  0.524124  0  0.287494  0.237881  0  2.599992  0
Cu  Cu10  1  0.21587292  0.74272920  0.73363488  1  0.524008  0  0.287461  0.237763  0  2.599947  0
Cu  Cu11  1  0.21588920  0.75728753  0.23364561  1  0.523917  0  0.287564  0.238002  0  2.600016  0
H  H12  1  0.71191965  0.67549155  0.20241639  1  0.139456  0  0.117129  0.07668  0  1.01677  0
H  H13  1  0.71193110  0.82450676  0.70241975  1  0.139459  0  0.117196  0.076793  0  1.016991  0
H  H14  1  0.28807696  0.32450814  0.79756988  1  0.139531  0  0.117167  0.076685  0  1.016891  0
H  H15  1  0.28808140  0.17550437  0.29756656  1  0.139515  0  0.11716  0.076711  0  1.016929  0
H  H16  1  0.74395083  0.43795508  0.37462458  1  0.159498  0  0.105797  0.085103  0  1.045524  0
H  H17  1  0.74394139  0.06204174  0.87461949  1  0.159473  0  0.105831  0.085156  0  1.045703  0
H  H18  1  0.25605576  0.56204918  0.62537970  1  0.159407  0  0.105783  0.085047  0  1.045681  0
H  H19  1  0.25604265  0.93795032  0.12538258  1  0.159483  0  0.105797  0.085064  0  1.045689  0
H  H20  1  0.00728190  0.71600941  0.40847981  1  0.162889  0  0.10759  0.102158  0  1.023381  0
H  H21  1  0.00728179  0.78399880  0.90847558  1  0.163083  0  0.107625  0.102208  0  1.023479  0
H  H22  1  0.99270725  0.28398723  0.59151495  1  0.162839  0  0.107576  0.10217  0  1.023543  0
H  H23  1  0.99271443  0.21599403  0.09151570  1  0.162978  0  0.107605  0.102205  0  1.023544  0
H  H24  1  0.09608001  0.54586189  0.20589433  1  0.165963  0  0.119527  0.081318  0  1.007734  0
H  H25  1  0.09609497  0.95414083  0.70588125  1  0.165826  0  0.119487  0.081264  0  1.007659  0
H  H26  1  0.90392715  0.45414237  0.79410243  1  0.165925  0  0.119454  0.081169  0  1.007538  0
H  H27  1  0.90389889  0.04586343  0.29411119  1  0.165958  0  0.11941  0.081132  0  1.00768  0
H  H28  1  0.25805394  0.36357040  0.40289813  1  0.149989  0  0.11346  0.095166  0  0.998935  0
H  H29  1  0.25808286  0.13641826  0.90290275  1  0.150726  0  0.113428  0.095097  0  0.999025  0
H  H30  1  0.74193407  0.63643844  0.59709658  1  0.150454  0  0.113502  0.095282  0  0.999154  0
H  H31  1  0.74192732  0.86357761  0.09709917  1  0.150584  0  0.113523  0.095245  0  0.99932  0
H  H32  1  0.41449416  0.67506384  0.37169801  1  0.110175  0  0.117475  0.0996  0  0.996318  0
H  H33  1  0.41450449  0.82492583  0.87168623  1  0.11005  0  0.117474  0.099618  0  0.99602  0
H  H34  1  0.58550667  0.32493584  0.62830729  1  0.110235  0  0.117482  0.099563  0  0.996234  0
H  H35  1  0.58549135  0.17506852  0.12831006  1  0.110017  0  0.11748  0.099602  0  0.996149  0
H  H36  1  0.29164852  0.70089758  0.02950981  1  0.146803  0  0.096555  0.171134  0  1.020401  0
H  H37  1  0.29165201  0.79909143  0.52948650  1  0.147487  0  0.096534  0.171164  0  1.020307  0
H  H38  1  0.70834774  0.29909600  0.97049592  1  0.146851  0  0.096531  0.17116  0  1.020324  0
H  H39  1  0.70836147  0.20091665  0.47051681  1  0.147293  0  0.096479  0.171074  0  1.020323  0
H  H40  1  0.41496199  0.65483803  0.95077849  1  0.126717  0  0.098543  0.152093  0  1.032504  0
H  H41  1  0.41496740  0.84516337  0.45075757  1  0.126299  0  0.098469  0.152033  0  1.032581  0
H  H42  1  0.58503201  0.34516547  0.04922715  1  0.126584  0  0.098512  0.152082  0  1.032584  0
H  H43  1  0.58503400  0.15484852  0.54924021  1  0.126339  0  0.098431  0.151988  0  1.032631  0
H  H44  1  0.48071321  0.74896525  0.02658725  1  0.07825  0  0.105532  0.159743  0  0.984085  0
H  H45  1  0.48071136  0.75103409  0.52656497  1  0.078177  0  0.105516  0.159602  0  0.984146  0
H  H46  1  0.51927729  0.25103215  0.97341950  1  0.078088  0  0.105514  0.15975  0  0.983998  0
H  H47  1  0.51929282  0.24897704  0.47344109  1  0.076999  0  0.105502  0.159559  0  0.984161  0
C  C48  1  0.75988937  0.64631548  0.26135267  1  1.062661  0  0.167572  0.229734  0  3.90892  0
C  C49  1  0.75988785  0.85368143  0.76134405  1  1.062488  0  0.167476  0.229468  0  3.90889  0
C  C50  1  0.24011119  0.35368421  0.73864130  1  1.062637  0  0.167407  0.229655  0  3.908988  0
C  C51  1  0.24011300  0.14631368  0.23864617  1  1.064149  0  0.167504  0.229592  0  3.908708  0
C  C52  1  0.77891203  0.51443376  0.35646458  1  0.588396  0  0.062832  0.077677  0  3.866053  0
C  C53  1  0.77890135  0.98557877  0.85645652  1  0.587897  0  0.062776  0.077699  0  3.865987  0
C  C54  1  0.22109820  0.48557203  0.64353671  1  0.588316  0  0.06282  0.077704  0  3.866054  0
C  C55  1  0.22108751  0.01442168  0.14354199  1  0.588268  0  0.062816  0.077638  0  3.865993  0
C  C56  1  0.88986956  0.56912398  0.40308788  1  0.062299  0  0.002238  0.052729  0  4.101065  0
C  C57  1  0.88986600  0.93088100  0.90308218  1  0.062606  0  0.002285  0.052725  0  4.101041  0
C  C58  1  0.11013104  0.43087647  0.59692054  1  0.062252  0  0.002318  0.052782  0  4.101169  0
C  C59  1  0.11012418  0.06911793  0.09691388  1  0.062513  0  0.002222  0.052742  0  4.101219  0
C  C60  1  0.92473303  0.66771784  0.37498266  1  0.446271  0  0.061925  0.081025  0  3.817968  0
C  C61  1  0.92472755  0.83227851  0.87498385  1  0.446139  0  0.061907  0.080964  0  3.817982  0
C  C62  1  0.07525588  0.33227879  0.62501523  1  0.446529  0  0.061896  0.080948  0  3.818185  0
C  C63  1  0.07526193  0.16771737  0.12500652  1  0.446042  0  0.061845  0.080816  0  3.81822  0
C  C64  1  0.96666766  0.52326821  0.47198379  1  -0.386212  0  -0.032309  -0.071372  0  4.096343  0
C  C65  1  0.96666124  0.97673025  0.97198053  1  0.062196  0  -0.032259  -0.071224  0  4.096306  0
C  C66  1  0.03334936  0.47673071  0.52801778  1  0.062614  0  -0.032272  -0.071201  0  4.096311  0
C  C67  1  0.03333295  0.02325875  0.02802260  1  -0.385961  0  -0.032275  -0.071259  0  4.096405  0
C  C68  1  0.17034405  0.53741883  0.26168247  1  0.996678  0  0.173089  0.225437  0  3.887698  0
C  C69  1  0.17035041  0.96259041  0.76167698  1  0.996829  0  0.173287  0.225772  0  3.887344  0
C  C70  1  0.82966132  0.46258773  0.73830794  1  0.997519  0  0.173119  0.225717  0  3.887321  0
C  C71  1  0.82964925  0.03741157  0.23831382  1  0.996841  0  0.173295  0.225843  0  3.887296  0
C  C72  1  0.26298766  0.43619351  0.36991943  1  0.504272  0  0.060147  0.085345  0  3.862302  0
C  C73  1  0.26300703  0.06380532  0.86992367  1  0.503603  0  0.06015  0.085445  0  3.862156  0
C  C74  1  0.73701668  0.56381075  0.63006967  1  0.503674  0  0.060064  0.085038  0  3.86254  0
C  C75  1  0.73699711  0.93618216  0.13008301  1  0.503636  0  0.060033  0.085093  0  3.862461  0
C  C76  1  0.35587717  0.51684363  0.39949029  1  0.101427  0  0.002995  0.05139  0  4.107786  0
C  C77  1  0.35589702  0.98315138  0.89948419  1  0.101415  0  0.002998  0.05127  0  4.107841  0
C  C78  1  0.64411683  0.48316216  0.60051535  1  0.102249  0  0.00292  0.051354  0  4.107671  0
C  C79  1  0.64410514  0.01684373  0.10051865  1  0.101454  0  0.003064  0.05141  0  4.107441  0
C  C80  1  0.34587509  0.60870742  0.35441805  1  0.533005  0  0.062973  0.077981  0  3.828999  0
C  C81  1  0.34588138  0.89129463  0.85440689  1  0.533086  0  0.062971  0.077997  0  3.829331  0
C  C82  1  0.65411669  0.39130219  0.64558686  1  0.532233  0  0.06301  0.078103  0  3.829219  0
C  C83  1  0.65410880  0.10870963  0.14558917  1  0.532901  0  0.062937  0.077908  0  3.829255  0
C  C84  1  0.45568780  0.50508909  0.47001018  1  -0.278047  0  -0.028662  -0.074188  0  4.068677  0
C  C85  1  0.45570384  0.99489352  0.97000801  1  -0.045381  0  -0.028688  -0.074062  0  4.068796  0
C  C86  1  0.54430332  0.49490449  0.53000350  1  -0.04545  0  -0.028442  -0.073684  0  4.068487  0
C  C87  1  0.54430143  0.00509472  0.02999872  1  -0.27804  0  -0.028545  -0.073845  0  4.068812  0
C  C88  1  0.46080356  0.60078129  0.07221830  1  0.864713  0  0.210364  0.423988  0  3.909411  0
C  C89  1  0.46083197  0.89920994  0.57219906  1  0.865898  0  0.210246  0.423901  0  3.90962  0
C  C90  1  0.53919119  0.39921382  0.92779239  1  0.865519  0  0.210267  0.423848  0  3.90966  0
C  C91  1  0.53915986  0.10079966  0.42780523  1  0.865838  0  0.210147  0.423697  0  3.909671  0
C  C92  1  0.40977794  0.68086719  0.01630316  1  0.006621  0  -0.216289  -0.433569  0  3.97018  0
C  C93  1  0.40978020  0.81913454  0.51627864  1  0.006275  0  -0.216132  -0.433359  0  3.970064  0
C  C94  1  0.59021902  0.31912716  0.98370825  1  0.006632  0  -0.216174  -0.433561  0  3.970161  0
C  C95  1  0.59022191  0.18087658  0.48372482  1  0.007442  0  -0.215971  -0.433093  0  3.970058  0
Br  Br96  1  0.85818071  0.38681916  0.15017099  1  -0.554424  0  -0.253686  -0.418674  0  1.754326  0
Br  Br97  1  0.85818865  0.11317562  0.65018539  1  -0.554332  0  -0.253672  -0.418663  0  1.754605  0
Br  Br98  1  0.14183499  0.61317289  0.84981796  1  -0.554311  0  -0.253698  -0.418654  0  1.754548  0
Br  Br99  1  0.14181719  0.88682635  0.34981383  1  -0.554387  0  -0.253669  -0.418662  0  1.754677  0
Br  Br100  1  0.52101105  0.31573885  0.28154958  1  -0.564645  0  -0.259207  -0.442841  0  1.828851  0
Br  Br101  1  0.52098536  0.18428680  0.78147529  1  -0.564675  0  -0.259327  -0.442975  0  1.828781  0
Br  Br102  1  0.47901052  0.68426313  0.71848171  1  -0.564571  0  -0.259214  -0.442793  0  1.828728  0
Br  Br103  1  0.47903906  0.81570221  0.21853350  1  -0.56455  0  -0.259263  -0.442916  0  1.828582  0
Br  Br104  1  0.95803558  0.24677640  0.38742989  1  -0.575421  0  -0.288631  -0.442919  0  1.563652  0
Br  Br105  1  0.95801907  0.25320801  0.88743584  1  -0.575439  0  -0.28867  -0.442943  0  1.563583  0
Br  Br106  1  0.04196607  0.75322023  0.61256476  1  -0.57549  0  -0.288633  -0.442939  0  1.563673  0
Br  Br107  1  0.04199605  0.74678786  0.11257570  1  -0.575345  0  -0.288686  -0.443065  0  1.563802  0
N  N108  1  0.71491541  0.55363369  0.28610665  1  -1.249064  0  -0.355961  -0.242129  0  3.655  0
N  N109  1  0.71489585  0.94636718  0.78610050  1  -1.248726  0  -0.356061  -0.242303  0  3.654825  0
N  N110  1  0.28509043  0.44636752  0.71389257  1  -1.249175  0  -0.355914  -0.24209  0  3.654828  0
N  N111  1  0.28509886  0.05362946  0.21389574  1  -1.249132  0  -0.355968  -0.24206  0  3.654876  0
N  N112  1  0.86126032  0.70537377  0.30343752  1  -1.221026  0  -0.357641  -0.226667  0  3.645743  0
N  N113  1  0.86125916  0.79463306  0.80343108  1  -1.221031  0  -0.357646  -0.226559  0  3.645829  0
N  N114  1  0.13873306  0.29462058  0.69656118  1  -1.221061  0  -0.357596  -0.226649  0  3.645869  0
N  N115  1  0.13873504  0.20536205  0.19655697  1  -1.222218  0  -0.357628  -0.226581  0  3.645744  0
N  N116  1  0.17275412  0.44626447  0.30047362  1  -1.209434  0  -0.360653  -0.227652  0  3.67007  0
N  N117  1  0.17275761  0.05373922  0.80047872  1  -1.209468  0  -0.360677  -0.227729  0  3.669761  0
N  N118  1  0.82724682  0.55373979  0.69951535  1  -1.210329  0  -0.360588  -0.227577  0  3.669753  0
N  N119  1  0.82724704  0.94625971  0.19952108  1  -1.209678  0  -0.360693  -0.22768  0  3.670054  0
N  N120  1  0.25044139  0.61924750  0.28728403  1  -1.215445  0  -0.354874  -0.220268  0  3.652719  0
N  N121  1  0.25044921  0.88076315  0.78728389  1  -1.215579  0  -0.354832  -0.220307  0  3.653246  0
N  N122  1  0.74956138  0.38075524  0.71271066  1  -1.215609  0  -0.354799  -0.220351  0  3.653163  0
N  N123  1  0.74954640  0.11924493  0.21271554  1  -1.215476  0  -0.354866  -0.220234  0  3.65318  0
N  N124  1  0.50294601  0.53613402  0.11757563  1  -1.273736  0  -0.403981  -0.434705  0  3.467156  0
N  N125  1  0.50295402  0.96385430  0.61756326  1  -1.27437  0  -0.403951  -0.434723  0  3.467158  0
N  N126  1  0.49705827  0.46385651  0.88242918  1  -1.274193  0  -0.403922  -0.434609  0  3.4671  0
N  N127  1  0.49703692  0.03615988  0.38243785  1  -1.274232  0  -0.403894  -0.434584  0  3.467111  0
