# generated using pymatgen
data_ZnH9C15(N3O2)2
_symmetry_space_group_name_H-M   'P 1'
_cell_length_a   7.38785814
_cell_length_b   9.60821754
_cell_length_c   10.75976802
_cell_angle_alpha   106.17822068
_cell_angle_beta   92.19598782
_cell_angle_gamma   98.71377128
_symmetry_Int_Tables_number   1
_chemical_formula_structural   ZnH9C15(N3O2)2
_chemical_formula_sum   'Zn2 H18 C30 N12 O8'
_cell_volume   722.44711119
_cell_formula_units_Z   2
loop_
 _symmetry_equiv_pos_site_id
 _symmetry_equiv_pos_as_xyz
  1  'x, y, z'
loop_
 _atom_site_type_symbol
 _atom_site_label
 _atom_site_symmetry_multiplicity
 _atom_site_fract_x
 _atom_site_fract_y
 _atom_site_fract_z
 _atom_site_occupancy
 _atom_site_hle17_bader_spin_density
 _atom_site_hle17_ddec_charge
 _atom_site_hle17_ddec_spin_density
 _atom_site_hle17_ddec_sum_bond_order
 _atom_site_hle17_magmom
 _atom_site_hse06_10hf_bader_spin_density
 _atom_site_hse06_10hf_ddec_charge
 _atom_site_hse06_10hf_ddec_spin_density
 _atom_site_hse06_10hf_ddec_sum_bond_order
 _atom_site_hse06_10hf_magmom
 _atom_site_hse06_bader_spin_density
 _atom_site_hse06_ddec_charge
 _atom_site_hse06_ddec_spin_density
 _atom_site_hse06_ddec_sum_bond_order
 _atom_site_hse06_magmom
 _atom_site_pbe_bader_spin_density
 _atom_site_pbe_cm5_charge
 _atom_site_pbe_ddec_charge
 _atom_site_pbe_ddec_spin_density
 _atom_site_pbe_ddec_sum_bond_order
 _atom_site_pbe_magmom
Zn  Zn0  1  0.63397452  0.22222867  0.29985589  1  0  1.030335  0  1.80507  0  0  0.834748  0  2.2812  0  0  0.882356  0  2.224674  0  0  0.72005  0.80215  0  2.31917  0
Zn  Zn1  1  0.36602398  0.77776885  0.70014321  1  0  1.030318  0  1.805051  0  0  0.834743  0  2.28117  0  0  0.882349  0  2.224646  0  0  0.72004  0.802139  0  2.319135  0
H  H2  1  0.70307116  0.29271588  0.81586555  1  0  0.122021  0  0.987715  0  0  0.126793  0  1.059132  0  0  0.130867  0  1.055924  0  0  0.109892  0.123697  0  1.061748  0
H  H3  1  0.29693481  0.70728491  0.18413356  1  0  0.122057  0  0.987665  0  0  0.126831  0  1.059074  0  0  0.130904  0  1.055864  0  0  0.109894  0.123729  0  1.061695  0
H  H4  1  0.82408546  0.75828718  0.84994936  1  0  0.128239  0  0.982159  0  0  0.133402  0  1.051641  0  0  0.137476  0  1.048538  0  0  0.117066  0.130357  0  1.054284  0
H  H5  1  0.17591734  0.24171142  0.15005008  1  0  0.12822  0  0.982176  0  0  0.133402  0  1.051641  0  0  0.137475  0  1.048539  0  0  0.117049  0.130353  0  1.054291  0
H  H6  1  0.75513211  0.60998257  0.19164854  1  0  0.131306  0  0.932908  0  0  0.140311  0  0.995098  0  0  0.14413  0  0.992276  0  0  0.115405  0.137299  0  0.99762  0
H  H7  1  0.24487227  0.39001712  0.80835027  1  0  0.131282  0  0.932919  0  0  0.140289  0  0.995102  0  0  0.144108  0  0.992278  0  0  0.115394  0.137275  0  0.997622  0
H  H8  1  0.63391566  0.25885382  0.60999506  1  0  0.12502  0  0.989769  0  0  0.130866  0  1.052623  0  0  0.13493  0  1.048313  0  0  0.14245  0.127896  0  1.055692  0
H  H9  1  0.36608716  0.74114478  0.39000531  1  0  0.12506  0  0.989731  0  0  0.130887  0  1.052616  0  0  0.134951  0  1.048306  0  0  0.142456  0.127945  0  1.055644  0
H  H10  1  0.88293170  0.70140388  0.65385168  1  0  0.10835  0  0.972561  0  0  0.108084  0  1.050317  0  0  0.111392  0  1.046455  0  0  0.138882  0.105721  0  1.052998  0
H  H11  1  0.11706840  0.29859474  0.34614771  1  0  0.108344  0  0.972556  0  0  0.10807  0  1.05032  0  0  0.111381  0  1.046464  0  0  0.13888  0.105708  0  1.053002  0
H  H12  1  0.11874435  0.92086311  0.09438822  1  0  0.132454  0  0.95295  0  0  0.139495  0  1.01508  0  0  0.1431  0  1.011567  0  0  0.142104  0.136848  0  1.017487  0
H  H13  1  0.88125597  0.07913661  0.90561053  1  0  0.132457  0  0.95294  0  0  0.139501  0  1.015074  0  0  0.143108  0  1.011561  0  0  0.142101  0.136856  0  1.01748  0
H  H14  1  0.55434640  0.87611443  0.16328647  1  0  0.12976  0  0.97414  0  0  0.135252  0  1.037512  0  0  0.138824  0  1.033186  0  0  0.144785  0.132443  0  1.040881  0
H  H15  1  0.44565479  0.12388308  0.83671173  1  0  0.129771  0  0.97421  0  0  0.135267  0  1.037578  0  0  0.138839  0  1.033252  0  0  0.144786  0.13246  0  1.040946  0
H  H16  1  0.21244936  0.24014976  0.55831010  1  0  0.098751  0  0.969547  0  0  0.105936  0  1.037586  0  0  0.109813  0  1.034686  0  0  0.101081  0.102975  0  1.040043  0
H  H17  1  0.78754767  0.75985326  0.44169222  1  0  0.09876  0  0.969603  0  0  0.105936  0  1.03764  0  0  0.109812  0  1.03474  0  0  0.101077  0.102974  0  1.040098  0
H  H18  1  0.07312307  0.78701543  0.33048613  1  0  0.079161  0  0.976829  0  0  0.08885  0  1.044819  0  0  0.091662  0  1.043361  0  0  0.096231  0.087012  0  1.045493  0
H  H19  1  0.92687691  0.21298868  0.66951651  1  0  0.07918  0  0.976896  0  0  0.088891  0  1.044854  0  0  0.091702  0  1.043393  0  0  0.096266  0.087052  0  1.045527  0
C  C20  1  0.72530632  0.43995925  0.00888882  1  0  -0.025078  0  3.754343  0  0  0.001953  0  3.985137  0  0  -0.005154  0  4.010045  0  0  -0.011363  0.006259  0  3.968487  0
C  C21  1  0.27469268  0.56004047  0.99111177  1  0  -0.025129  0  3.75437  0  0  0.001866  0  3.985202  0  0  -0.005242  0  4.010112  0  0  -0.011429  0.006187  0  3.968524  0
C  C22  1  0.72931576  0.40772559  0.87406508  1  0  -0.159543  0  3.679524  0  0  -0.195113  0  3.932062  0  0  -0.197581  0  3.951747  0  0  -0.081082  -0.192341  0  3.918444  0
C  C23  1  0.27068344  0.59227523  0.12593393  1  0  -0.159589  0  3.679505  0  0  -0.195138  0  3.932034  0  0  -0.197603  0  3.951718  0  0  -0.081066  -0.192364  0  3.91842  0
C  C24  1  0.76307640  0.52195495  0.81689750  1  0  0.211359  0  3.760642  0  0  0.207984  0  4.004799  0  0  0.213175  0  4.026491  0  0  0.105268  0.204026  0  3.990519  0
C  C25  1  0.23692282  0.47804586  0.18310244  1  0  0.211394  0  3.760468  0  0  0.208027  0  4.004617  0  0  0.213219  0  4.026308  0  0  0.105275  0.204062  0  3.990349  0
C  C26  1  0.79777611  0.66823621  0.89319631  1  0  -0.187472  0  3.659734  0  0  -0.222398  0  3.914098  0  0  -0.224834  0  3.930779  0  0  -0.076746  -0.221342  0  3.903898  0
C  C27  1  0.20222693  0.33176349  0.10680340  1  0  -0.187457  0  3.659682  0  0  -0.222393  0  3.914079  0  0  -0.22483  0  3.93076  0  0  -0.076696  -0.221331  0  3.903887  0
C  C28  1  0.79699644  0.69771537  0.02736876  1  0  0.19167  0  3.768669  0  0  0.188224  0  4.020183  0  0  0.191653  0  4.043631  0  0  0.097361  0.185845  0  4.004863  0
C  C29  1  0.20300551  0.30228543  0.97263215  1  0  0.191798  0  3.768704  0  0  0.188266  0  4.020303  0  0  0.191696  0  4.043751  0  0  0.097375  0.185887  0  4.004985  0
C  C30  1  0.75915380  0.58608816  0.08679485  1  0  -0.145037  0  3.686327  0  0  -0.182722  0  3.94071  0  0  -0.184028  0  3.960494  0  0  -0.079411  -0.181616  0  3.92759  0
C  C31  1  0.24084603  0.41390936  0.91320334  1  0  -0.145027  0  3.686285  0  0  -0.182677  0  3.940686  0  0  -0.183982  0  3.960467  0  0  -0.079392  -0.18157  0  3.927564  0
C  C32  1  0.69313240  0.36036623  0.58872436  1  0  0.170226  0  3.593036  0  0  0.106946  0  3.851561  0  0  0.120425  0  3.862957  0  0  0.164781  0.098322  0  3.843467  0
C  C33  1  0.30687472  0.63963346  0.41127635  1  0  0.170227  0  3.592911  0  0  0.106969  0  3.851446  0  0  0.120449  0  3.862841  0  0  0.164803  0.098328  0  3.843334  0
C  C34  1  0.82231048  0.58688680  0.60947737  1  0  0.170179  0  3.606341  0  0  0.11329  0  3.886186  0  0  0.12507  0  3.895735  0  0  0.160923  0.105455  0  3.879595  0
C  C35  1  0.17768715  0.41311292  0.39052227  1  0  0.170222  0  3.606285  0  0  0.113338  0  3.886125  0  0  0.125112  0  3.895679  0  0  0.160942  0.105502  0  3.879535  0
C  C36  1  0.98850331  0.94937294  0.12933750  1  0  0.148226  0  3.609841  0  0  0.088719  0  3.889749  0  0  0.09922  0  3.901447  0  0  0.159393  0.082489  0  3.880801  0
C  C37  1  0.01149882  0.05062897  0.87066090  1  0  0.148265  0  3.609822  0  0  0.088729  0  3.889722  0  0  0.099227  0  3.901422  0  0  0.159415  0.082498  0  3.880772  0
C  C38  1  0.69819420  0.92167689  0.16567248  1  0  0.204097  0  3.595472  0  0  0.134578  0  3.860316  0  0  0.150421  0  3.868597  0  0  0.174281  0.124107  0  3.854325  0
C  C39  1  0.30180454  0.07832173  0.83432690  1  0  0.204074  0  3.595563  0  0  0.134506  0  3.8604  0  0  0.150348  0  3.868684  0  0  0.174244  0.124035  0  3.854408  0
C  C40  1  0.68200863  0.31474172  0.06854708  1  0  0.629812  0  3.941696  0  0  0.581337  0  4.235626  0  0  0.614774  0  4.229651  0  0  0.201232  0.558776  0  4.23905  0
C  C41  1  0.31798924  0.68525911  0.93145284  1  0  0.629772  0  3.941742  0  0  0.581298  0  4.235692  0  0  0.614735  0  4.229717  0  0  0.201226  0.558733  0  4.239118  0
C  C42  1  0.33468978  0.02720088  0.36955229  1  0  0.653899  0  3.901863  0  0  0.600622  0  4.200429  0  0  0.635221  0  4.191827  0  0  0.207543  0.577003  0  4.205816  0
C  C43  1  0.66530403  0.97279996  0.63044757  1  0  0.653946  0  3.901944  0  0  0.600592  0  4.200582  0  0  0.635191  0  4.191979  0  0  0.207534  0.576973  0  4.205964  0
C  C44  1  0.16265748  0.01445622  0.43798603  1  0  -0.053662  0  3.754674  0  0  -0.031745  0  3.987746  0  0  -0.037877  0  4.009915  0  0  -0.017925  -0.027751  0  3.972513  0
C  C45  1  0.83734029  0.98555010  0.56201807  1  0  -0.053595  0  3.75467  0  0  -0.031531  0  3.987592  0  0  -0.037662  0  4.00976  0  0  -0.017884  -0.027541  0  3.972357  0
C  C46  1  0.12006761  0.13483033  0.53315271  1  0  -0.072203  0  3.72288  0  0  -0.096664  0  3.974574  0  0  -0.097337  0  3.994012  0  0  -0.089377  -0.095922  0  3.96104  0
C  C47  1  0.87992779  0.86517161  0.46684745  1  0  -0.072325  0  3.722957  0  0  -0.096826  0  3.974625  0  0  -0.097501  0  3.994065  0  0  -0.089417  -0.096079  0  3.961089  0
C  C48  1  0.04144577  0.88005366  0.40596823  1  0  -0.087496  0  3.764564  0  0  -0.112414  0  4.019589  0  0  -0.113885  0  4.041226  0  0  -0.093881  -0.111089  0  4.004098  0
C  C49  1  0.95855150  0.11995046  0.59403437  1  0  -0.087706  0  3.764699  0  0  -0.112696  0  4.019696  0  0  -0.114164  0  4.04133  0  0  -0.093999  -0.111364  0  4.004199  0
N  N50  1  0.75983177  0.49116128  0.67943358  1  0  -0.109557  0  3.519411  0  0  -0.019609  0  3.73106  0  0  -0.035598  0  3.752742  0  0  -0.208919  -0.008906  0  3.716344  0
N  N51  1  0.24017262  0.50883842  0.32056615  1  0  -0.109602  0  3.519328  0  0  -0.019667  0  3.730995  0  0  -0.035657  0  3.752678  0  0  -0.208944  -0.008962  0  3.716289  0
N  N52  1  0.71671839  0.37669494  0.47224494  1  0  -0.271133  0  3.238514  0  0  -0.195529  0  3.548289  0  0  -0.212911  0  3.560423  0  0  -0.242756  -0.18369  0  3.539559  0
N  N53  1  0.28328445  0.62330365  0.52775636  1  0  -0.271193  0  3.238396  0  0  -0.195609  0  3.548172  0  0  -0.212991  0  3.560302  0  0  -0.242797  -0.183767  0  3.539445  0
N  N54  1  0.79706800  0.51997635  0.48438859  1  0  -0.212522  0  2.918869  0  0  -0.200765  0  3.202659  0  0  -0.207822  0  3.216871  0  0  -0.225042  -0.196436  0  3.193431  0
N  N55  1  0.20293321  0.48002116  0.51561055  1  0  -0.212519  0  2.91878  0  0  -0.200758  0  3.202574  0  0  -0.207814  0  3.216785  0  0  -0.225048  -0.196429  0  3.193343  0
N  N56  1  0.82809410  0.84870448  0.10440988  1  0  -0.123166  0  3.556802  0  0  -0.031634  0  3.774581  0  0  -0.048466  0  3.798131  0  0  -0.215556  -0.020681  0  3.758441  0
N  N57  1  0.17190811  0.15129743  0.89559224  1  0  -0.123262  0  3.556922  0  0  -0.031639  0  3.774651  0  0  -0.04847  0  3.798202  0  0  -0.215543  -0.020687  0  3.758513  0
N  N58  1  0.95834961  0.07738136  0.20207248  1  0  -0.220869  0  2.980924  0  0  -0.198136  0  3.265386  0  0  -0.206943  0  3.281689  0  0  -0.214773  -0.192005  0  3.253957  0
N  N59  1  0.04165046  0.92261725  0.79792599  1  0  -0.220848  0  2.980872  0  0  -0.198127  0  3.265334  0  0  -0.206932  0  3.281634  0  0  -0.214805  -0.191996  0  3.253902  0
N  N60  1  0.77525524  0.05882113  0.22504986  1  0  -0.277805  0  3.25947  0  0  -0.202477  0  3.57549  0  0  -0.220066  0  3.585233  0  0  -0.242766  -0.190717  0  3.568747  0
N  N61  1  0.22474464  0.94117638  0.77495018  1  0  -0.27782  0  3.259399  0  0  -0.202453  0  3.575395  0  0  -0.220042  0  3.585138  0  0  -0.242736  -0.190691  0  3.568646  0
O  O62  1  0.64802148  0.35505660  0.18933035  1  0  -0.64297  0  2.061037  0  0  -0.570657  0  2.339792  0  0  -0.599076  0  2.323711  0  0  -0.334811  -0.551073  0  2.35004  0
O  O63  1  0.35197973  0.64494091  0.81066879  1  0  -0.642987  0  2.061025  0  0  -0.570666  0  2.339764  0  0  -0.599089  0  2.323693  0  0  -0.334821  -0.551082  0  2.350012  0
O  O64  1  0.67978769  0.18577127  0.00000561  1  0  -0.605542  0  1.941469  0  0  -0.565092  0  2.166035  0  0  -0.58736  0  2.157998  0  0  -0.322041  -0.549524  0  2.170897  0
O  O65  1  0.32021153  0.81422955  0.99999433  1  0  -0.605469  0  1.941491  0  0  -0.565015  0  2.166054  0  0  -0.587284  0  2.158018  0  0  -0.322015  -0.549451  0  2.170917  0
O  O66  1  0.38973813  0.15408308  0.35138415  1  0  -0.657262  0  2.055581  0  0  -0.5813  0  2.338672  0  0  -0.610281  0  2.32233  0  0  -0.331383  -0.560897  0  2.349269  0
O  O67  1  0.61026193  0.84591554  0.64861339  1  0  -0.657266  0  2.055533  0  0  -0.581329  0  2.338695  0  0  -0.61031  0  2.322349  0  0  -0.331381  -0.560925  0  2.349292  0
O  O68  1  0.41245166  0.91702736  0.33369777  1  0  -0.613472  0  1.988544  0  0  -0.561042  0  2.214029  0  0  -0.585193  0  2.205769  0  0  -0.310855  -0.544602  0  2.21957  0
O  O69  1  0.58754005  0.08297019  0.66630029  1  0  -0.613433  0  1.988634  0  0  -0.560981  0  2.214135  0  0  -0.585128  0  2.205873  0  0  -0.310823  -0.544546  0  2.219705  0
