# generated using pymatgen
data_CuH10C14O5
_symmetry_space_group_name_H-M   'P 1'
_cell_length_a   12.91480840
_cell_length_b   14.34604737
_cell_length_c   14.32831975
_cell_angle_alpha   78.31562670
_cell_angle_beta   63.20468383
_cell_angle_gamma   63.25482607
_symmetry_Int_Tables_number   1
_chemical_formula_structural   CuH10C14O5
_chemical_formula_sum   'Cu4 H40 C56 O20'
_cell_volume   2116.13328951
_cell_formula_units_Z   4
loop_
 _symmetry_equiv_pos_site_id
 _symmetry_equiv_pos_as_xyz
  1  'x, y, z'
loop_
 _atom_site_type_symbol
 _atom_site_label
 _atom_site_symmetry_multiplicity
 _atom_site_fract_x
 _atom_site_fract_y
 _atom_site_fract_z
 _atom_site_occupancy
 _atom_site_pbe_bader_charge
 _atom_site_pbe_bader_spin_density
 _atom_site_pbe_cm5_charge
 _atom_site_pbe_ddec_charge
 _atom_site_pbe_ddec_spin_density
 _atom_site_pbe_ddec_sum_bond_order
 _atom_site_pbe_magmom
Cu  Cu0  1  0.94698647  0.40474332  0.52241769  1  1.074436  -0.540504  0.673515  0.824486  -0.72699  2.311549  -0.537
Cu  Cu1  1  0.87402941  0.59541253  0.47749307  1  1.07467  0.54026  0.671894  0.824066  0.695158  2.311327  0.537
Cu  Cu2  1  0.10210969  0.02215127  0.09485540  1  1.08044  0.571133  0.673729  0.826453  0.739126  2.305891  0.571
Cu  Cu3  1  0.21913678  0.97767695  0.90529654  1  1.08035  0.57075  0.673291  0.825801  0.738275  2.306761  0.571
H  H4  1  0.87887346  0.73164144  0.70392891  1  0.085174  0.000277  0.108541  0.116079  0.00024  0.989945  0.0
H  H5  1  0.31438389  0.26841738  0.29564908  1  0.111994  -0.000277  0.10843  0.11632  -0.000254  0.98982  0.0
H  H6  1  0.36020100  0.20447223  0.76820854  1  0.088694  0.000312  0.108758  0.116395  0.000241  0.99011  0.0
H  H7  1  0.33284239  0.79529904  0.23211258  1  0.083361  0.000313  0.108488  0.116271  0.000245  0.988426  0.0
H  H8  1  0.89528962  0.78091408  0.85180823  1  0.063763  -0.000198  0.102964  0.103521  -0.000122  1.000013  0.0
H  H9  1  0.52813608  0.21912097  0.14798274  1  0.081958  0.000207  0.103564  0.104105  0.0001  0.999248  0.0
H  H10  1  0.42641039  0.35187752  0.71872128  1  0.072634  0.000267  0.103435  0.103792  0.000138  0.999167  0.0
H  H11  1  0.49715799  0.64796980  0.28140801  1  0.062696  0.000255  0.103657  0.104215  0.000116  0.998915  0.0
H  H12  1  0.08275077  0.45492144  0.91466822  1  0.093786  0.000184  0.099071  0.100706  8.9e-05  1.032396  0.0
H  H13  1  0.45259979  0.54511855  0.08516038  1  0.095199  -0.000199  0.099452  0.10109  -0.000118  1.034301  0.0
H  H14  1  0.28763049  0.41512193  0.04523224  1  0.082888  0.000248  0.099206  0.101637  0.000116  1.033422  0.0
H  H15  1  0.74794501  0.58498885  0.95481622  1  0.071728  0.000247  0.099398  0.101688  0.00012  1.032985  0.0
H  H16  1  0.05911154  0.40700210  0.77056540  1  0.111866  -0.000273  0.106359  0.111374  -0.000248  1.000799  0.0
H  H17  1  0.23682255  0.59305337  0.22907143  1  0.110076  0.000276  0.106469  0.11144  0.000212  1.001094  0.0
H  H18  1  0.21624709  0.27114126  0.09346342  1  0.108377  0.000335  0.106529  0.111253  0.000247  1.000281  0.0
H  H19  1  0.58049581  0.72875018  0.90678632  1  0.109276  0.000308  0.106642  0.111908  0.00022  0.999346  0.0
H  H20  1  0.98100241  0.52165295  0.07847526  1  0.090055  -4e-06  0.097719  0.093942  -3e-06  1.055642  0.0
H  H21  1  0.58148788  0.47826687  0.92143189  1  0.093328  -6e-06  0.097758  0.094324  -3e-06  1.05569  0.0
H  H22  1  0.25277629  0.57846561  0.97828400  1  0.075713  -5e-06  0.097719  0.094509  -1.8e-05  1.055474  0.0
H  H23  1  0.80954064  0.42145379  0.02186819  1  0.096299  -1e-05  0.098046  0.095276  -1.7e-05  1.055169  0.0
H  H24  1  0.99988673  0.57596724  0.22209397  1  0.094674  0.000244  0.097394  0.105574  0.000115  1.049741  0.0
H  H25  1  0.79831908  0.42396963  0.77781438  1  0.121153  0.000273  0.097968  0.106801  0.00014  1.049052  0.0
H  H26  1  0.32618985  0.72178448  0.92385089  1  0.061718  -0.000265  0.097809  0.106798  -0.000158  1.048982  0.0
H  H27  1  0.97176435  0.27817150  0.07636144  1  0.134127  0.000136  0.097811  0.106817  6.1e-05  1.047959  0.0
H  H28  1  0.03366189  0.73654021  0.20556364  1  0.086483  0.000328  0.107723  0.117872  0.000243  0.996246  0.0
H  H29  1  0.97616529  0.26347631  0.79443366  1  0.122264  0.000285  0.106816  0.116255  0.00021  0.995553  0.0
H  H30  1  0.52071888  0.70510204  0.76293675  1  0.096135  0.000319  0.107205  0.116414  0.000262  0.996572  0.0
H  H31  1  0.98877736  0.29505235  0.23716528  1  0.097949  -0.000278  0.10658  0.116473  -0.00023  0.996411  0.0
H  H32  1  0.04061296  0.78626643  0.89707230  1  0.086859  0.000385  0.102872  0.108165  0.00028  1.009994  0.0
H  H33  1  0.72416776  0.21362091  0.10283168  1  0.088771  0.000381  0.103053  0.10786  0.000277  1.009496  0.0
H  H34  1  0.57725506  0.39708299  0.71316856  1  0.065952  -0.000281  0.102948  0.107571  -0.000249  1.009934  0.0
H  H35  1  0.68748228  0.60299687  0.28685572  1  0.075876  0.000285  0.102767  0.107864  0.00024  1.010147  0.0
H  H36  1  0.89438206  0.24786086  0.63190117  1  0.600382  7.1e-05  0.322431  0.40833  5.7e-05  0.879646  0.0
H  H37  1  0.77420476  0.75235491  0.36804392  1  0.598877  -7.3e-05  0.322446  0.405072  -6.5e-05  0.885103  0.0
H  H38  1  0.89280806  0.13165210  0.25176159  1  0.59704  -8e-05  0.322526  0.406856  -6.3e-05  0.88069  0.0
H  H39  1  0.27608126  0.86846097  0.74823710  1  0.599898  -8.6e-05  0.322908  0.404417  -6.8e-05  0.883469  0.0
H  H40  1  0.97656667  0.20755038  0.51799722  1  0.622397  6.5e-05  0.329909  0.411984  5.3e-05  0.867762  0.0
H  H41  1  0.70221354  0.79272134  0.48193245  1  0.607692  -7.3e-05  0.329079  0.410463  -6.1e-05  0.868752  0.0
H  H42  1  0.93441669  0.01804486  0.29231328  1  0.604294  -7.6e-05  0.329731  0.411638  -6.3e-05  0.867968  0.0
H  H43  1  0.24470249  0.98208750  0.70776112  1  0.608699  -6.6e-05  0.33001  0.411102  -5.6e-05  0.868324  0.0
C  C44  1  0.95504118  0.53981287  0.63971764  1  1.514042  -0.000179  0.215224  0.571716  -0.000222  4.166169  0.0
C  C45  1  0.13454845  0.46028737  0.35994061  1  1.542288  0.000165  0.21491  0.57242  -1.9e-05  4.164468  0.0
C  C46  1  0.24495308  0.14018646  0.96045493  1  1.516448  -0.00172  0.212431  0.56865  0.00067  4.160814  -0.005
C  C47  1  0.34533653  0.85955601  0.03990459  1  1.516462  -0.001671  0.212615  0.569928  0.000679  4.16198  -0.005
C  C48  1  0.96875687  0.56649923  0.72767049  1  -0.039744  0.000208  -0.020702  -0.036416  7.9e-05  3.973989  0.0
C  C49  1  0.26293100  0.43357724  0.27196398  1  -0.078768  0.000134  -0.019472  -0.034316  4.2e-05  3.974641  0.0
C  C50  1  0.28502654  0.22816469  0.93371761  1  -0.003373  0.016696  -0.020115  -0.036076  0.011851  3.976037  0.013
C  C51  1  0.44670552  0.77162422  0.06657444  1  -0.074447  0.016549  -0.019295  -0.034655  0.011702  3.971899  0.013
C  C52  1  0.92350916  0.67188445  0.75066368  1  -0.040852  -0.000735  -0.084275  -0.087858  -0.000466  3.983677  -0.001
C  C53  1  0.34605030  0.32818308  0.24899320  1  -0.037435  0.000619  -0.082749  -0.087653  0.000327  3.984857  0.001
C  C54  1  0.34514390  0.25110579  0.82810770  1  0.000444  0.001677  -0.083033  -0.0868  0.001199  3.984457  0.001
C  C55  1  0.42428436  0.74871865  0.17215610  1  0.00718  0.001555  -0.083225  -0.087482  0.001155  3.980747  0.001
C  C56  1  0.93426189  0.69881351  0.83263892  1  -0.032603  -0.000671  -0.088315  -0.134027  -0.000528  3.989463  -0.001
C  C57  1  0.46581450  0.30123358  0.16714668  1  -0.08667  0.00095  -0.091112  -0.136006  0.000655  3.989756  0.001
C  C58  1  0.38307685  0.33285554  0.80100464  1  -0.10758  0.000866  -0.090644  -0.135556  0.000521  3.992461  0.001
C  C59  1  0.51698737  0.66701944  0.19915271  1  -0.023408  0.00078  -0.090656  -0.135441  0.000458  3.989755  0.001
C  C60  1  0.99189944  0.62162389  0.89302139  1  0.001285  0.000584  -0.001611  0.080444  0.000372  3.980595  0.0
C  C61  1  0.50675000  0.37839249  0.10683380  1  -0.027723  -0.000268  0.000292  0.082397  -0.000185  3.979804  0.0
C  C62  1  0.36354358  0.39327747  0.87825434  1  0.003886  0.000441  0.000246  0.080873  0.000278  3.982131  0.0
C  C63  1  0.63510232  0.60669243  0.12182051  1  -0.065474  -4.1e-05  -0.00093  0.079414  -6.5e-05  3.984489  0.0
C  C64  1  0.03626899  0.51609946  0.86982649  1  -0.064764  0.001048  -0.087719  -0.129076  0.000734  3.960505  0.001
C  C65  1  0.42242543  0.48393025  0.12996146  1  -0.06073  -0.000625  -0.088548  -0.130305  -0.000472  3.964183  0.0
C  C66  1  0.30228990  0.37025594  0.98400689  1  -0.039713  0.001281  -0.088186  -0.130554  0.000803  3.959917  0.001
C  C67  1  0.65649980  0.62974779  0.01609655  1  -0.010673  0.000999  -0.087634  -0.129231  0.00062  3.962161  0.001
C  C68  1  0.02425653  0.48876147  0.78851053  1  -0.058968  0.001344  -0.081578  -0.08778  0.000844  3.973176  0.001
C  C69  1  0.30164903  0.51129480  0.21116250  1  0.015446  -0.001393  -0.081829  -0.088539  -0.000953  3.97335  -0.001
C  C70  1  0.26296444  0.28899653  0.01149664  1  -0.057286  0.001126  -0.081589  -0.08711  0.000806  3.972338  0.001
C  C71  1  0.56325429  0.71089645  0.98871734  1  -0.046105  0.001199  -0.082487  -0.089587  0.000858  3.970947  0.001
C  C72  1  0.00458305  0.65199378  0.97853513  1  0.014687  0.000921  -0.005365  0.062559  0.000561  3.998683  0.001
C  C73  1  0.63540281  0.34799630  0.02140430  1  -0.050049  0.001007  -0.007237  0.059809  0.00062  4.00044  0.001
C  C74  1  0.40671754  0.47862279  0.84773753  1  -0.020718  0.0007  -0.006698  0.061656  0.000498  3.999592  0.001
C  C75  1  0.73313995  0.52139198  0.15231241  1  0.026099  -0.000531  -0.006579  0.062294  -0.000403  3.999186  0.0
C  C76  1  0.99665001  0.59199403  0.07017558  1  -0.097866  -0.000745  -0.082849  -0.111591  -0.000524  3.946474  0.0
C  C77  1  0.65917920  0.40796114  0.92974883  1  -0.073999  -0.00077  -0.083215  -0.112185  -0.000536  3.946834  0.0
C  C78  1  0.33878482  0.57016451  0.90782420  1  -0.081817  0.000153  -0.084259  -0.114  9.2e-05  3.949224  0.0
C  C79  1  0.81680297  0.42981676  0.09229248  1  -0.063815  6.5e-05  -0.083642  -0.113167  3.7e-05  3.945846  0.0
C  C80  1  0.00653124  0.62240093  0.15123688  1  -0.043054  0.000972  -0.095654  -0.083614  0.000621  4.010191  0.001
C  C81  1  0.78055137  0.37757423  0.84870725  1  -0.023735  0.001053  -0.095743  -0.085567  0.000624  4.009386  0.001
C  C82  1  0.37917157  0.65102915  0.87736786  1  0.020377  -0.000881  -0.094655  -0.084867  -0.000624  4.012203  -0.001
C  C83  1  0.90757537  0.34897696  0.12278340  1  -0.116022  0.000669  -0.094486  -0.084402  0.000499  4.007851  0.0
C  C84  1  0.02528766  0.71275781  0.14259178  1  -0.034919  0.001199  -0.086715  -0.104364  0.000876  3.956595  0.001
C  C85  1  0.88100367  0.28724625  0.85739298  1  -0.048061  0.000627  -0.08527  -0.099551  0.000496  3.954577  0.001
C  C86  1  0.48834419  0.64232389  0.78685609  1  -0.051555  -0.000242  -0.085475  -0.099714  -0.000135  3.956337  -0.001
C  C87  1  0.91750840  0.35775793  0.21326369  1  -0.054514  0.001251  -0.086529  -0.102372  0.000795  3.956234  0.001
C  C88  1  0.03778613  0.77146056  0.05020092  1  0.002079  0.015603  -0.020534  -0.028647  0.011079  3.986904  0.012
C  C89  1  0.85973662  0.22851415  0.94976971  1  -0.049608  0.015636  -0.022005  -0.033317  0.011096  3.990004  0.012
C  C90  1  0.55955602  0.55003799  0.72807583  1  -0.001643  0.001111  -0.020965  -0.030381  0.000758  3.98545  0.001
C  C91  1  0.83760936  0.45006211  0.27201831  1  0.019595  -0.001193  -0.019989  -0.028472  -0.000933  3.989763  -0.001
C  C92  1  0.02702033  0.74116656  0.96926251  1  -0.060886  0.0013  -0.082297  -0.141265  0.000933  3.931028  0.001
C  C93  1  0.73769392  0.25881055  0.03069256  1  -0.051445  0.000657  -0.080887  -0.136629  0.000513  3.927968  0.001
C  C94  1  0.51848090  0.46920137  0.75837302  1  -0.038457  0.001691  -0.080893  -0.137344  0.001039  3.925987  0.001
C  C95  1  0.74603312  0.53085429  0.24169240  1  -0.062947  -0.000857  -0.080413  -0.138791  -0.000544  3.930969  -0.001
C  C96  1  0.07362868  0.86070893  0.03440895  1  1.51612  -0.000983  0.21098  0.583223  0.001097  4.149015  -0.004
C  C97  1  0.96897324  0.13918675  0.96556908  1  1.509416  -0.000994  0.213462  0.585702  0.0011  4.149394  -0.004
C  C98  1  0.68498752  0.53439140  0.63891578  1  1.510535  -0.000853  0.214703  0.584822  -0.000761  4.151012  -0.001
C  C99  1  0.85810734  0.46577100  0.36119980  1  1.524562  0.000909  0.213739  0.584071  0.000513  4.14981  0.001
O  O100  1  0.97851399  0.23278525  0.57518021  1  -1.177943  0.001605  -0.571591  -0.739311  0.000885  1.943024  0.0
O  O101  1  0.78658120  0.76740436  0.42474502  1  -1.1622  -0.001602  -0.570684  -0.733814  -0.000923  1.950795  0.0
O  O102  1  0.96179137  0.07503902  0.26684746  1  -1.156119  -0.001758  -0.571483  -0.736614  -0.000856  1.945357  0.0
O  O103  1  0.30359170  0.92504556  0.73319225  1  -1.163575  -0.001757  -0.572281  -0.733052  -0.000855  1.950304  0.0
O  O104  1  0.96915381  0.44651627  0.63486266  1  -1.100016  -0.086624  -0.311308  -0.522322  -0.058948  2.341618  -0.078
O  O105  1  0.05047673  0.55356001  0.36481260  1  -1.112731  0.086666  -0.309729  -0.521661  0.05637  2.340732  0.078
O  O106  1  0.16553359  0.13503796  0.05382431  1  -1.110007  0.097391  -0.310204  -0.51982  0.062823  2.332398  0.088
O  O107  1  0.35414812  0.86472657  0.94653794  1  -1.102309  0.09742  -0.309663  -0.520357  0.062868  2.335289  0.089
O  O108  1  0.92773845  0.61416056  0.57673570  1  -1.091713  0.093141  -0.316795  -0.511648  0.060308  2.348012  0.084
O  O109  1  0.11865432  0.38594523  0.42296150  1  -1.096944  -0.093326  -0.317784  -0.513224  -0.063287  2.346653  -0.084
O  O110  1  0.29230257  0.07673496  0.88625576  1  -1.089655  0.105135  -0.315356  -0.511307  0.067659  2.33566  0.095
O  O111  1  0.25499024  0.92293424  0.11415032  1  -1.100423  0.105303  -0.316027  -0.512556  0.067886  2.336862  0.095
O  O112  1  0.12935716  0.88521586  0.93953004  1  -1.114557  0.0872  -0.323023  -0.55435  0.056431  2.3766  0.079
O  O113  1  0.95427623  0.11467027  0.06045578  1  -1.11229  0.087186  -0.323111  -0.55454  0.056365  2.377555  0.079
O  O114  1  0.76498794  0.43963686  0.61448994  1  -1.117548  -0.077177  -0.324741  -0.554019  -0.052675  2.384458  -0.069
O  O115  1  0.81878736  0.56053861  0.38566439  1  -1.109446  0.077127  -0.323874  -0.55361  0.050286  2.383217  0.069
O  O116  1  0.05092555  0.90366838  0.11530692  1  -1.103316  0.100158  -0.315608  -0.531425  0.064755  2.313701  0.091
O  O117  1  0.07010845  0.09614929  0.88466669  1  -1.105922  0.100034  -0.317892  -0.533124  0.064619  2.313382  0.091
O  O118  1  0.70492312  0.61538007  0.59662234  1  -1.105125  0.089014  -0.316686  -0.531993  0.057899  2.319028  0.081
O  O119  1  0.91683915  0.38479425  0.40342559  1  -1.117692  -0.088916  -0.317319  -0.531503  -0.06054  2.316742  -0.081
