# generated using pymatgen
data_KH4C4N3O5
_symmetry_space_group_name_H-M   'P 1'
_cell_length_a   6.60002264
_cell_length_b   6.65450626
_cell_length_c   17.41979497
_cell_angle_alpha   90.00015157
_cell_angle_beta   90.00005901
_cell_angle_gamma   96.48473703
_symmetry_Int_Tables_number   1
_chemical_formula_structural   KH4C4N3O5
_chemical_formula_sum   'K4 H16 C16 N12 O20'
_cell_volume   760.18054294
_cell_formula_units_Z   4
loop_
 _symmetry_equiv_pos_site_id
 _symmetry_equiv_pos_as_xyz
  1  'x, y, z'
loop_
 _atom_site_type_symbol
 _atom_site_label
 _atom_site_symmetry_multiplicity
 _atom_site_fract_x
 _atom_site_fract_y
 _atom_site_fract_z
 _atom_site_occupancy
 _atom_site_hle17_bader_spin_density
 _atom_site_hle17_ddec_charge
 _atom_site_hle17_ddec_spin_density
 _atom_site_hle17_ddec_sum_bond_order
 _atom_site_hle17_magmom
 _atom_site_hse06_10hf_bader_spin_density
 _atom_site_hse06_10hf_ddec_charge
 _atom_site_hse06_10hf_ddec_spin_density
 _atom_site_hse06_10hf_ddec_sum_bond_order
 _atom_site_hse06_10hf_magmom
 _atom_site_hse06_bader_spin_density
 _atom_site_hse06_ddec_charge
 _atom_site_hse06_ddec_spin_density
 _atom_site_hse06_ddec_sum_bond_order
 _atom_site_hse06_magmom
 _atom_site_pbe_bader_spin_density
 _atom_site_pbe_cm5_charge
 _atom_site_pbe_ddec_charge
 _atom_site_pbe_ddec_spin_density
 _atom_site_pbe_ddec_sum_bond_order
 _atom_site_pbe_magmom
K  K0  1  0.68321104  0.67957680  0.43005026  1  0  0.917683  0  0.45432  0  0  0.861216  0  0.64668  0  0  0.876257  0  0.621251  0  0  0.777248  0.849939  0  0.664985  0
K  K1  1  0.31679002  0.82041034  0.93004638  1  0  0.91765  0  0.454325  0  0  0.861188  0  0.646666  0  0  0.87623  0  0.621237  0  0  0.777214  0.849898  0  0.664966  0
K  K2  1  0.31678770  0.32042826  0.56994721  1  0  0.917687  0  0.454303  0  0  0.861203  0  0.646684  0  0  0.876245  0  0.621252  0  0  0.777231  0.849926  0  0.664989  0
K  K3  1  0.68321791  0.17956901  0.06994764  1  0  0.917679  0  0.454335  0  0  0.861213  0  0.646683  0  0  0.876255  0  0.621253  0  0  0.777238  0.849922  0  0.664985  0
H  H4  1  0.36491412  0.26982937  0.38082556  1  0  0.389345  0  0.921635  0  0  0.358748  0  0.998181  0  0  0.372439  0  0.983062  0  0  0.298574  0.349267  0  1.006538  0
H  H5  1  0.63508917  0.23017952  0.88082574  1  0  0.389306  0  0.921714  0  0  0.358715  0  0.99825  0  0  0.372407  0  0.983114  0  0  0.298554  0.349233  0  1.006603  0
H  H6  1  0.63507904  0.73016661  0.61917707  1  0  0.389387  0  0.921647  0  0  0.358857  0  0.998048  0  0  0.372548  0  0.982912  0  0  0.298634  0.349378  0  1.006403  0
H  H7  1  0.36492087  0.76983158  0.11917690  1  0  0.389319  0  0.921749  0  0  0.358748  0  0.998228  0  0  0.372438  0  0.983076  0  0  0.298603  0.349265  0  1.006582  0
H  H8  1  0.24465352  0.69578338  0.43205423  1  0  0.384637  0  0.933571  0  0  0.346151  0  1.011885  0  0  0.356686  0  0.996219  0  0  0.283437  0.338695  0  1.022947  0
H  H9  1  0.75536005  0.80422041  0.93205452  1  0  0.384595  0  0.933643  0  0  0.34611  0  1.011956  0  0  0.356645  0  0.996291  0  0  0.283428  0.338654  0  1.023017  0
H  H10  1  0.75534808  0.30422017  0.56794783  1  0  0.38459  0  0.933653  0  0  0.346086  0  1.011995  0  0  0.356623  0  0.996326  0  0  0.283399  0.338629  0  1.023058  0
H  H11  1  0.24465704  0.19578616  0.06794525  1  0  0.384596  0  0.933643  0  0  0.346099  0  1.011975  0  0  0.356635  0  0.996309  0  0  0.283439  0.338644  0  1.023036  0
H  H12  1  0.22359806  0.78447469  0.51549670  1  0  0.428622  0  0.864125  0  0  0.403213  0  0.918553  0  0  0.41327  0  0.903573  0  0  0.299639  0.396076  0  0.929176  0
H  H13  1  0.77641187  0.71552114  0.01549547  1  0  0.428524  0  0.864251  0  0  0.403119  0  0.918678  0  0  0.413177  0  0.903699  0  0  0.299551  0.395986  0  0.929301  0
H  H14  1  0.77640790  0.21552735  0.48450537  1  0  0.428543  0  0.864219  0  0  0.403096  0  0.918686  0  0  0.413175  0  0.903686  0  0  0.299563  0.395959  0  0.929308  0
H  H15  1  0.22360353  0.28448391  0.98450314  1  0  0.428615  0  0.864121  0  0  0.403218  0  0.918535  0  0  0.413278  0  0.903553  0  0  0.299641  0.396086  0  0.929156  0
H  H16  1  0.78961266  0.98754764  0.26797675  1  0  0.314163  0  0.916712  0  0  0.285089  0  0.990859  0  0  0.296477  0  0.981097  0  0  0.321834  0.277085  0  0.997765  0
H  H17  1  0.21038361  0.51245481  0.76797658  1  0  0.314147  0  0.916751  0  0  0.28508  0  0.990875  0  0  0.296468  0  0.981112  0  0  0.321826  0.277075  0  0.997781  0
H  H18  1  0.21038793  0.01246045  0.73202129  1  0  0.314118  0  0.916764  0  0  0.285078  0  0.990828  0  0  0.296451  0  0.981092  0  0  0.321824  0.277073  0  0.997735  0
H  H19  1  0.78960717  0.48753362  0.23202261  1  0  0.314125  0  0.916856  0  0  0.285103  0  0.990924  0  0  0.296488  0  0.981166  0  0  0.321861  0.277098  0  0.997829  0
C  C20  1  0.09171030  0.13560260  0.29846628  1  0  0.003261  0  3.689153  0  0  -0.017207  0  3.950877  0  0  -0.016947  0  3.968807  0  0  0.109389  -0.017338  0  3.938851  0
C  C21  1  0.90829116  0.36440562  0.79846380  1  0  0.003412  0  3.689051  0  0  -0.017141  0  3.950787  0  0  -0.016885  0  3.968733  0  0  0.109417  -0.017259  0  3.938757  0
C  C22  1  0.90828390  0.86440246  0.70153521  1  0  0.003376  0  3.688902  0  0  -0.017161  0  3.950637  0  0  -0.016907  0  3.968575  0  0  0.109412  -0.017289  0  3.938612  0
C  C23  1  0.09170351  0.63559036  0.20153424  1  0  0.003306  0  3.688872  0  0  -0.01717  0  3.950645  0  0  -0.016912  0  3.968581  0  0  0.109422  -0.017286  0  3.938615  0
C  C24  1  0.24841090  0.20735166  0.24775449  1  0  -0.046852  0  3.746877  0  0  -0.050031  0  4.012388  0  0  -0.055919  0  4.032611  0  0  0.08813  -0.046333  0  3.998935  0
C  C25  1  0.75158479  0.29264707  0.74775304  1  0  -0.04685  0  3.746826  0  0  -0.049954  0  4.012239  0  0  -0.055846  0  4.03246  0  0  0.088161  -0.04628  0  3.99882  0
C  C26  1  0.75158849  0.79264583  0.75224815  1  0  -0.046862  0  3.746829  0  0  -0.04997  0  4.012263  0  0  -0.055859  0  4.032486  0  0  0.08814  -0.046286  0  3.998829  0
C  C27  1  0.24841075  0.70735648  0.25224500  1  0  -0.046666  0  3.746742  0  0  -0.049901  0  4.012266  0  0  -0.055792  0  4.032488  0  0  0.088183  -0.046225  0  3.998845  0
C  C28  1  0.07127927  0.13332493  0.38355855  1  0  0.659487  0  3.901452  0  0  0.604671  0  4.215809  0  0  0.638511  0  4.20454  0  0  0.238358  0.581663  0  4.22298  0
C  C29  1  0.92871360  0.36668551  0.88355895  1  0  0.659344  0  3.901561  0  0  0.60461  0  4.215806  0  0  0.638447  0  4.20454  0  0  0.238363  0.581596  0  4.222974  0
C  C30  1  0.92871207  0.86668165  0.61644122  1  0  0.659503  0  3.901127  0  0  0.604681  0  4.215507  0  0  0.638521  0  4.204237  0  0  0.238359  0.581673  0  4.222675  0
C  C31  1  0.07128462  0.63331501  0.11643909  1  0  0.659457  0  3.901262  0  0  0.604681  0  4.215565  0  0  0.638523  0  4.204294  0  0  0.238369  0.581665  0  4.222732  0
C  C32  1  0.45704461  0.30669331  0.26472320  1  0  0.65453  0  3.887956  0  0  0.600154  0  4.198356  0  0  0.634009  0  4.189973  0  0  0.225139  0.577147  0  4.203656  0
C  C33  1  0.54295737  0.19330707  0.76472044  1  0  0.654487  0  3.88808  0  0  0.600131  0  4.198395  0  0  0.633989  0  4.190009  0  0  0.225139  0.577131  0  4.203698  0
C  C34  1  0.54295932  0.69330418  0.73528001  1  0  0.654461  0  3.888133  0  0  0.600066  0  4.198517  0  0  0.633922  0  4.190136  0  0  0.22514  0.577064  0  4.203815  0
C  C35  1  0.45703362  0.80669648  0.23528048  1  0  0.654268  0  3.888422  0  0  0.600007  0  4.198651  0  0  0.633862  0  4.190272  0  0  0.225061  0.577006  0  4.203951  0
N  N36  1  0.93585006  0.06301694  0.25244749  1  0  -0.152672  0  3.440411  0  0  -0.095339  0  3.686813  0  0  -0.107165  0  3.702875  0  0  -0.237947  -0.087512  0  3.676209  0
N  N37  1  0.06414617  0.43698637  0.75244706  1  0  -0.152643  0  3.440405  0  0  -0.095282  0  3.686802  0  0  -0.107109  0  3.702863  0  0  -0.237923  -0.087454  0  3.676198  0
N  N38  1  0.06414700  0.93698661  0.74755056  1  0  -0.152653  0  3.440449  0  0  -0.095243  0  3.686721  0  0  -0.107057  0  3.702788  0  0  -0.237882  -0.087418  0  3.676118  0
N  N39  1  0.93584530  0.56300810  0.24755098  1  0  -0.152609  0  3.440513  0  0  -0.095331  0  3.686945  0  0  -0.107152  0  3.703002  0  0  -0.237986  -0.087502  0  3.67634  0
N  N40  1  0.98741486  0.08592493  0.17831345  1  0  -0.080495  0  2.928113  0  0  -0.086194  0  3.226916  0  0  -0.083581  0  3.236717  0  0  -0.149162  -0.087602  0  3.220232  0
N  N41  1  0.01258359  0.41407323  0.67831184  1  0  -0.080502  0  2.927893  0  0  -0.086207  0  3.22669  0  0  -0.083595  0  3.23649  0  0  -0.149194  -0.087621  0  3.220022  0
N  N42  1  0.01259245  0.91407559  0.82168631  1  0  -0.080463  0  2.928281  0  0  -0.086187  0  3.227061  0  0  -0.083576  0  3.236857  0  0  -0.149159  -0.087595  0  3.220379  0
N  N43  1  0.98740520  0.58592427  0.32168620  1  0  -0.080483  0  2.928255  0  0  -0.086147  0  3.227049  0  0  -0.083537  0  3.236849  0  0  -0.149146  -0.08756  0  3.220379  0
N  N44  1  0.17634807  0.17399017  0.17480699  1  0  -0.211744  0  3.062633  0  0  -0.183397  0  3.346449  0  0  -0.188264  0  3.358961  0  0  -0.182496  -0.179714  0  3.337824  0
N  N45  1  0.82365019  0.32600644  0.67480502  1  0  -0.211843  0  3.062536  0  0  -0.18352  0  3.346334  0  0  -0.188386  0  3.358845  0  0  -0.182532  -0.179836  0  3.337733  0
N  N46  1  0.82366058  0.82600883  0.82519335  1  0  -0.211892  0  3.062813  0  0  -0.183581  0  3.346634  0  0  -0.188445  0  3.359144  0  0  -0.182609  -0.179896  0  3.338017  0
N  N47  1  0.17633725  0.67399257  0.32519302  1  0  -0.211961  0  3.062758  0  0  -0.18362  0  3.346595  0  0  -0.188485  0  3.359105  0  0  -0.182588  -0.179935  0  3.337993  0
O  O48  1  0.57606282  0.35673555  0.20989252  1  0  -0.597093  0  1.989621  0  0  -0.558943  0  2.231065  0  0  -0.581375  0  2.221461  0  0  -0.341095  -0.543376  0  2.237456  0
O  O49  1  0.42393874  0.14324926  0.70989082  1  0  -0.597141  0  1.98973  0  0  -0.559022  0  2.231199  0  0  -0.581449  0  2.221595  0  0  -0.341132  -0.543459  0  2.237592  0
O  O50  1  0.42394393  0.64324682  0.79011069  1  0  -0.597214  0  1.989668  0  0  -0.559074  0  2.231178  0  0  -0.581507  0  2.22157  0  0  -0.341213  -0.543504  0  2.237565  0
O  O51  1  0.57604719  0.85674976  0.29011010  1  0  -0.597082  0  1.989731  0  0  -0.55899  0  2.231203  0  0  -0.581422  0  2.221599  0  0  -0.341116  -0.543425  0  2.237595  0
O  O52  1  0.50385172  0.33927397  0.33593244  1  0  -0.585812  0  2.030652  0  0  -0.535481  0  2.258459  0  0  -0.560414  0  2.247447  0  0  -0.337024  -0.518231  0  2.264755  0
O  O53  1  0.49614751  0.16072700  0.83593078  1  0  -0.58576  0  2.030523  0  0  -0.535444  0  2.258279  0  0  -0.560378  0  2.247264  0  0  -0.336998  -0.518189  0  2.264564  0
O  O54  1  0.49614447  0.66072202  0.66407134  1  0  -0.585751  0  2.030718  0  0  -0.535444  0  2.258456  0  0  -0.560377  0  2.24744  0  0  -0.337009  -0.518197  0  2.264749  0
O  O55  1  0.50385543  0.83927503  0.16407013  1  0  -0.585732  0  2.030705  0  0  -0.535427  0  2.258405  0  0  -0.560362  0  2.247382  0  0  -0.337013  -0.518171  0  2.264688  0
O  O56  1  0.23168441  0.20843098  0.42167042  1  0  -0.587788  0  2.090103  0  0  -0.532502  0  2.314297  0  0  -0.557035  0  2.299677  0  0  -0.364449  -0.515463  0  2.322815  0
O  O57  1  0.76831483  0.29158128  0.92166956  1  0  -0.587659  0  2.090252  0  0  -0.532406  0  2.314387  0  0  -0.556935  0  2.299757  0  0  -0.364445  -0.515367  0  2.322901  0
O  O58  1  0.76830268  0.79156501  0.57833106  1  0  -0.587824  0  2.090053  0  0  -0.532567  0  2.314185  0  0  -0.557101  0  2.299558  0  0  -0.36451  -0.515529  0  2.322701  0
O  O59  1  0.23169234  0.70843134  0.07833136  1  0  -0.587739  0  2.090199  0  0  -0.532466  0  2.314336  0  0  -0.557  0  2.2997  0  0  -0.364454  -0.515425  0  2.322847  0
O  O60  1  0.90673509  0.06338734  0.41298324  1  0  -0.591288  0  1.949256  0  0  -0.550618  0  2.177039  0  0  -0.570743  0  2.165072  0  0  -0.331783  -0.536673  0  2.185048  0
O  O61  1  0.09326546  0.43662333  0.91298283  1  0  -0.591248  0  1.949325  0  0  -0.550614  0  2.177073  0  0  -0.570738  0  2.1651  0  0  -0.331771  -0.536665  0  2.185082  0
O  O62  1  0.09325221  0.93662377  0.58701423  1  0  -0.59129  0  1.949113  0  0  -0.550625  0  2.176899  0  0  -0.570746  0  2.164921  0  0  -0.331734  -0.536681  0  2.184907  0
O  O63  1  0.90674047  0.56336509  0.08701062  1  0  -0.59131  0  1.949184  0  0  -0.55067  0  2.176952  0  0  -0.570795  0  2.164975  0  0  -0.33177  -0.536721  0  2.184962  0
O  O64  1  0.29200313  0.68614482  0.48561629  1  0  -0.897901  0  1.772379  0  0  -0.84945  0  1.928973  0  0  -0.866125  0  1.897292  0  0  -0.697749  -0.837533  0  1.951208  0
O  O65  1  0.70801216  0.81385941  0.98561714  1  0  -0.897765  0  1.772453  0  0  -0.849322  0  1.929026  0  0  -0.865997  0  1.897346  0  0  -0.697662  -0.837419  0  1.951237  0
O  O66  1  0.70800336  0.31386175  0.51438520  1  0  -0.897775  0  1.772439  0  0  -0.849266  0  1.929133  0  0  -0.865965  0  1.897389  0  0  -0.697636  -0.837348  0  1.951369  0
O  O67  1  0.29200308  0.18614413  0.01438320  1  0  -0.89786  0  1.772384  0  0  -0.849421  0  1.928966  0  0  -0.866097  0  1.897283  0  0  -0.69773  -0.837518  0  1.951178  0
