# generated using pymatgen
data_CdH16C18(NO2)2
_symmetry_space_group_name_H-M   'P 1'
_cell_length_a   8.63609752
_cell_length_b   10.32344613
_cell_length_c   11.12982198
_cell_angle_alpha   84.03262269
_cell_angle_beta   68.08694799
_cell_angle_gamma   77.48157452
_symmetry_Int_Tables_number   1
_chemical_formula_structural   CdH16C18(NO2)2
_chemical_formula_sum   'Cd2 H32 C36 N4 O8'
_cell_volume   898.40383227
_cell_formula_units_Z   2
loop_
 _symmetry_equiv_pos_site_id
 _symmetry_equiv_pos_as_xyz
  1  'x, y, z'
loop_
 _atom_site_type_symbol
 _atom_site_label
 _atom_site_symmetry_multiplicity
 _atom_site_fract_x
 _atom_site_fract_y
 _atom_site_fract_z
 _atom_site_occupancy
 _atom_site_hle17_bader_spin_density
 _atom_site_hle17_ddec_charge
 _atom_site_hle17_ddec_spin_density
 _atom_site_hle17_ddec_sum_bond_order
 _atom_site_hle17_magmom
 _atom_site_hse06_10hf_bader_spin_density
 _atom_site_hse06_10hf_ddec_charge
 _atom_site_hse06_10hf_ddec_spin_density
 _atom_site_hse06_10hf_ddec_sum_bond_order
 _atom_site_hse06_10hf_magmom
 _atom_site_hse06_bader_spin_density
 _atom_site_hse06_ddec_charge
 _atom_site_hse06_ddec_spin_density
 _atom_site_hse06_ddec_sum_bond_order
 _atom_site_hse06_magmom
 _atom_site_pbe_bader_spin_density
 _atom_site_pbe_cm5_charge
 _atom_site_pbe_ddec_charge
 _atom_site_pbe_ddec_spin_density
 _atom_site_pbe_ddec_sum_bond_order
 _atom_site_pbe_magmom
Cd  Cd0  1  0.42877890  0.56835997  0.16270516  1  0  1.118737  0  1.678421  0  0  0.92206  0  2.121834  0  0  0.983213  0  2.06985  0  0  0.767698  0.878265  0  2.157379  0
Cd  Cd1  1  0.57123300  0.43163773  0.83728593  1  0  1.118664  0  1.678486  0  0  0.921957  0  2.121922  0  0  0.983111  0  2.06994  0  0  0.767699  0.878154  0  2.157477  0
H  H2  1  0.44144075  0.87333117  0.22760721  1  0  0.089085  0  0.929519  0  0  0.098317  0  0.987682  0  0  0.101162  0  0.985046  0  0  0.121531  0.096032  0  0.990023  0
H  H3  1  0.55855312  0.12667261  0.77239772  1  0  0.089123  0  0.929521  0  0  0.098299  0  0.987744  0  0  0.101143  0  0.985109  0  0  0.121529  0.096019  0  0.990086  0
H  H4  1  0.54161012  0.98671640  0.36693929  1  0  0.094133  0  0.973397  0  0  0.105783  0  1.032693  0  0  0.107995  0  1.033298  0  0  0.104871  0.104805  0  1.031498  0
H  H5  1  0.45838794  0.01328967  0.63305880  1  0  0.09412  0  0.973426  0  0  0.105762  0  1.032731  0  0  0.107972  0  1.033338  0  0  0.104842  0.104784  0  1.031536  0
H  H6  1  0.70994917  0.84576655  0.49235477  1  0  0.101067  0  0.920139  0  0  0.117131  0  0.970643  0  0  0.120049  0  0.96852  0  0  0.114725  0.114835  0  0.972496  0
H  H7  1  0.29006145  0.15423913  0.50763602  1  0  0.101134  0  0.920068  0  0  0.117165  0  0.970606  0  0  0.120083  0  0.968483  0  0  0.11473  0.114866  0  0.972457  0
H  H8  1  0.82386490  0.61835603  0.56342938  1  0  0.122257  0  0.96306  0  0  0.132178  0  1.023621  0  0  0.13565  0  1.021538  0  0  0.110268  0.129738  0  1.025061  0
H  H9  1  0.17613685  0.38165020  0.43656760  1  0  0.122293  0  0.963081  0  0  0.132168  0  1.023692  0  0  0.135639  0  1.02161  0  0  0.110248  0.129726  0  1.025135  0
H  H10  1  0.87652029  0.37548292  0.54485465  1  0  0.120121  0  0.957243  0  0  0.129603  0  1.019074  0  0  0.133071  0  1.017131  0  0  0.109881  0.127012  0  1.020689  0
H  H11  1  0.12348250  0.62452026  0.45514677  1  0  0.120232  0  0.957228  0  0  0.129669  0  1.019102  0  0  0.133138  0  1.017156  0  0  0.109912  0.127072  0  1.020722  0
H  H12  1  0.86103642  0.17933353  0.43809344  1  0  0.103169  0  0.91607  0  0  0.118916  0  0.96597  0  0  0.121805  0  0.964036  0  0  0.115296  0.116761  0  0.967433  0
H  H13  1  0.13897865  0.82066624  0.56190102  1  0  0.103292  0  0.916191  0  0  0.118995  0  0.966106  0  0  0.121883  0  0.964171  0  0  0.115307  0.116842  0  0.96757  0
H  H14  1  0.75613658  0.09072400  0.28693345  1  0  0.093213  0  0.983031  0  0  0.102852  0  1.047508  0  0  0.105036  0  1.048015  0  0  0.105866  0.102098  0  1.045919  0
H  H15  1  0.24385664  0.90928177  0.71307060  1  0  0.093249  0  0.983046  0  0  0.102896  0  1.047505  0  0  0.10508  0  1.048012  0  0  0.10587  0.102142  0  1.045919  0
H  H16  1  0.57710028  0.24908446  0.18086752  1  0  0.100124  0  0.92138  0  0  0.107439  0  0.983731  0  0  0.110596  0  0.980594  0  0  0.124715  0.104887  0  0.986488  0
H  H17  1  0.42288900  0.75091808  0.81914068  1  0  0.100021  0  0.921369  0  0  0.10735  0  0.983726  0  0  0.110522  0  0.980568  0  0  0.124697  0.104794  0  0.986488  0
H  H18  1  0.02164314  0.30898152  0.14385739  1  0  0.082873  0  0.964752  0  0  0.096035  0  1.032163  0  0  0.097213  0  1.03327  0  0  0.086418  0.095037  0  1.031794  0
H  H19  1  0.97836702  0.69102927  0.85612681  1  0  0.082763  0  0.964891  0  0  0.095919  0  1.032263  0  0  0.097134  0  1.03333  0  0  0.086366  0.094919  0  1.031896  0
H  H20  1  0.20559309  0.25028174  0.00945199  1  0  0.098424  0  0.91872  0  0  0.118146  0  0.970838  0  0  0.119666  0  0.970748  0  0  0.099853  0.117102  0  0.970961  0
H  H21  1  0.79440167  0.74972237  0.99053557  1  0  0.098436  0  0.918702  0  0  0.118128  0  0.970807  0  0  0.119645  0  0.97072  0  0  0.099872  0.117081  0  0.970933  0
H  H22  1  0.16300763  0.45779328  0.88427260  1  0  0.055035  0  0.988064  0  0  0.069497  0  1.057726  0  0  0.069801  0  1.059526  0  0  0.08108  0.069322  0  1.056391  0
H  H23  1  0.83700484  0.54221849  0.11571802  1  0  0.054945  0  0.988033  0  0  0.069402  0  1.057676  0  0  0.069707  0  1.059473  0  0  0.081025  0.069225  0  1.056343  0
H  H24  1  0.98200309  0.38385988  0.93351575  1  0  0.071597  0  0.93056  0  0  0.092442  0  0.986061  0  0  0.093245  0  0.986589  0  0  0.088238  0.091608  0  0.986097  0
H  H25  1  0.01801112  0.61615406  0.06646968  1  0  0.071625  0  0.93061  0  0  0.092407  0  0.986107  0  0  0.093207  0  0.986642  0  0  0.088215  0.091574  0  0.986141  0
H  H26  1  0.94140951  0.89813717  0.21009145  1  0  0.079559  0  0.95521  0  0  0.094072  0  1.019413  0  0  0.095683  0  1.019317  0  0  0.085275  0.092848  0  1.019688  0
H  H27  1  0.05858891  0.10185406  0.78995273  1  0  0.079587  0  0.955327  0  0  0.09409  0  1.019419  0  0  0.095706  0  1.019324  0  0  0.085295  0.092863  0  1.019691  0
H  H28  1  0.08783095  0.00558281  0.17905085  1  0  0.091336  0  0.921766  0  0  0.110569  0  0.974796  0  0  0.112134  0  0.974623  0  0  0.096557  0.10936  0  0.975104  0
H  H29  1  0.91216183  0.99441279  0.82096049  1  0  0.091536  0  0.921833  0  0  0.110645  0  0.974867  0  0  0.112216  0  0.974694  0  0  0.096525  0.109433  0  0.975178  0
H  H30  1  0.05858718  0.85181587  0.96930994  1  0  0.060091  0  0.945063  0  0  0.080845  0  1.005782  0  0  0.080701  0  1.007853  0  0  0.087637  0.080772  0  1.004736  0
H  H31  1  0.94135306  0.14816100  0.03073752  1  0  0.059857  0  0.944977  0  0  0.080746  0  1.005603  0  0  0.0806  0  1.007673  0  0  0.087521  0.080667  0  1.004559  0
H  H32  1  0.19594799  0.96392267  0.94385104  1  0  0.062169  0  0.934628  0  0  0.080472  0  0.995604  0  0  0.081544  0  0.995354  0  0  0.085971  0.079642  0  0.995914  0
H  H33  1  0.80400162  0.03605903  0.05616986  1  0  0.062242  0  0.934573  0  0  0.080522  0  0.995598  0  0  0.081596  0  0.995344  0  0  0.086033  0.079699  0  0.995891  0
C  C34  1  0.65341513  0.46507387  0.33912351  1  0  0.125652  0  3.75248  0  0  0.116317  0  3.99296  0  0  0.12041  0  4.015155  0  0  0.1198  0.113258  0  3.978216  0
C  C35  1  0.34658742  0.53493351  0.66086685  1  0  0.125659  0  3.752602  0  0  0.116392  0  3.992961  0  0  0.120494  0  4.015143  0  0  0.119825  0.113334  0  3.978211  0
C  C36  1  0.62401676  0.60769149  0.34898283  1  0  0.129091  0  3.757948  0  0  0.123153  0  3.994547  0  0  0.127441  0  4.016811  0  0  0.121752  0.120379  0  3.979452  0
C  C37  1  0.37599083  0.39231601  0.65101141  1  0  0.128942  0  3.757974  0  0  0.12299  0  3.994549  0  0  0.127279  0  4.016819  0  0  0.121696  0.120212  0  3.979454  0
C  C38  1  0.51041948  0.81647859  0.28669824  1  0  0.144716  0  3.704556  0  0  0.113577  0  3.958018  0  0  0.121498  0  3.975171  0  0  0.05788  0.107931  0  3.947284  0
C  C39  1  0.48958077  0.18352054  0.71329979  1  0  0.144691  0  3.704758  0  0  0.113583  0  3.958234  0  0  0.121506  0  3.975387  0  0  0.057892  0.107935  0  3.947508  0
C  C40  1  0.56906103  0.87883507  0.36335985  1  0  -0.137616  0  3.770525  0  0  -0.151255  0  4.02824  0  0  -0.158323  0  4.050346  0  0  -0.089881  -0.147419  0  4.013275  0
C  C41  1  0.43094656  0.12116843  0.63663383  1  0  -0.137529  0  3.770579  0  0  -0.151145  0  4.028245  0  0  -0.158211  0  4.050348  0  0  -0.089842  -0.147311  0  4.013283  0
C  C42  1  0.66028394  0.80135689  0.43295922  1  0  -0.041012  0  3.692439  0  0  -0.068206  0  3.944545  0  0  -0.065412  0  3.961695  0  0  -0.058759  -0.069435  0  3.932688  0
C  C43  1  0.33972274  0.19864556  0.56703482  1  0  -0.041165  0  3.692493  0  0  -0.068335  0  3.944585  0  0  -0.065535  0  3.961738  0  0  -0.058807  -0.069561  0  3.932725  0
C  C44  1  0.69074402  0.66170770  0.42749986  1  0  0.040489  0  3.765805  0  0  0.057072  0  3.996167  0  0  0.055211  0  4.019873  0  0  0.005406  0.058491  0  3.979458  0
C  C45  1  0.30926884  0.33829101  0.57249266  1  0  0.040657  0  3.765797  0  0  0.05725  0  3.996108  0  0  0.055374  0  4.019837  0  0  0.005525  0.058675  0  3.979388  0
C  C46  1  0.78171050  0.57553479  0.49829768  1  0  -0.081846  0  3.692212  0  0  -0.106701  0  3.946024  0  0  -0.109569  0  3.967626  0  0  -0.074686  -0.104739  0  3.93122  0
C  C47  1  0.21829500  0.42446757  0.50169941  1  0  -0.081896  0  3.69228  0  0  -0.106731  0  3.946087  0  0  -0.109596  0  3.967704  0  0  -0.074705  -0.104773  0  3.931279  0
C  C48  1  0.81051746  0.44103477  0.48835483  1  0  -0.086836  0  3.693494  0  0  -0.111654  0  3.951385  0  0  -0.115346  0  3.973203  0  0  -0.07621  -0.108807  0  3.936525  0
C  C49  1  0.18948575  0.55897060  0.51163730  1  0  -0.086939  0  3.6937  0  0  -0.111726  0  3.95158  0  0  -0.115418  0  3.973395  0  0  -0.076259  -0.108902  0  3.936785  0
C  C50  1  0.75054660  0.38305159  0.40691233  1  0  0.035722  0  3.778376  0  0  0.051627  0  4.013671  0  0  0.050115  0  4.037313  0  0  0.004329  0.05246  0  3.99752  0
C  C51  1  0.24945291  0.61695762  0.59308147  1  0  0.03576  0  3.778811  0  0  0.051636  0  4.014055  0  0  0.050123  0  4.037694  0  0  0.004321  0.052475  0  3.997886  0
C  C52  1  0.78536934  0.24498243  0.38845432  1  0  -0.04096  0  3.68973  0  0  -0.068788  0  3.941886  0  0  -0.066192  0  3.95888  0  0  -0.059091  -0.069937  0  3.930048  0
C  C53  1  0.21463481  0.75501996  0.61153778  1  0  -0.041208  0  3.690051  0  0  -0.069003  0  3.942202  0  0  -0.066404  0  3.959195  0  0  -0.059193  -0.070154  0  3.930366  0
C  C54  1  0.72575176  0.19604108  0.30661681  1  0  -0.13094  0  3.764902  0  0  -0.146301  0  4.028017  0  0  -0.15308  0  4.050016  0  0  -0.085  -0.142171  0  4.012391  0
C  C55  1  0.27424656  0.80396404  0.69337859  1  0  -0.130924  0  3.764593  0  0  -0.14628  0  4.027686  0  0  -0.153062  0  4.049688  0  0  -0.084982  -0.142154  0  4.012067  0
C  C56  1  0.62662810  0.28409258  0.24604949  1  0  0.154276  0  3.665144  0  0  0.119874  0  3.924766  0  0  0.128395  0  3.940368  0  0  0.064051  0.113963  0  3.914434  0
C  C57  1  0.37337031  0.71590846  0.75394983  1  0  0.154471  0  3.664784  0  0  0.120036  0  3.924416  0  0  0.128551  0  3.940013  0  0  0.064103  0.114128  0  3.914083  0
C  C58  1  0.23358081  0.39944532  0.11296673  1  0  0.70428  0  3.840501  0  0  0.660408  0  4.130371  0  0  0.694277  0  4.124087  0  0  0.199559  0.637314  0  4.133754  0
C  C59  1  0.76643926  0.60054186  0.88701293  1  0  0.704039  0  3.840151  0  0  0.660303  0  4.129721  0  0  0.694164  0  4.123442  0  0  0.199517  0.637207  0  4.133106  0
C  C60  1  0.12482328  0.34083590  0.06081913  1  0  -0.257007  0  3.681564  0  0  -0.294286  0  3.934111  0  0  -0.299984  0  3.94264  0  0  -0.167132  -0.290572  0  3.928589  0
C  C61  1  0.87518285  0.65916774  0.93916329  1  0  -0.256842  0  3.681465  0  0  -0.294082  0  3.93375  0  0  -0.299794  0  3.942236  0  0  -0.167049  -0.290362  0  3.928223  0
C  C62  1  0.05558274  0.43500541  0.96891704  1  0  -0.082649  0  3.666793  0  0  -0.122955  0  3.927213  0  0  -0.122921  0  3.939768  0  0  -0.173582  -0.122622  0  3.918445  0
C  C63  1  0.94443497  0.56499759  0.03107097  1  0  -0.082787  0  3.666559  0  0  -0.122921  0  3.926777  0  0  -0.122895  0  3.939337  0  0  -0.173494  -0.122584  0  3.918006  0
C  C64  1  0.20132225  0.79942322  0.15537956  1  0  0.669741  0  3.894013  0  0  0.627953  0  4.190762  0  0  0.660873  0  4.186066  0  0  0.181068  0.60565  0  4.192806  0
C  C65  1  0.79866237  0.20058614  0.84462945  1  0  0.669467  0  3.894249  0  0  0.62755  0  4.19108  0  0  0.66047  0  4.186395  0  0  0.180863  0.605256  0  4.193111  0
C  C66  1  0.06620118  0.91713632  0.14431393  1  0  -0.250046  0  3.693063  0  0  -0.285979  0  3.943177  0  0  -0.29125  0  3.951501  0  0  -0.16833  -0.282405  0  3.937481  0
C  C67  1  0.93378048  0.08285954  0.85571508  1  0  -0.250527  0  3.693586  0  0  -0.286078  0  3.943258  0  0  -0.29137  0  3.951606  0  0  -0.168323  -0.282496  0  3.937551  0
C  C68  1  0.07003745  0.94325871  0.00563917  1  0  -0.089221  0  3.70741  0  0  -0.130004  0  3.969234  0  0  -0.130495  0  3.983992  0  0  -0.170278  -0.129469  0  3.958964  0
C  C69  1  0.92991531  0.05672180  0.99439976  1  0  -0.088808  0  3.707299  0  0  -0.129802  0  3.969106  0  0  -0.130292  0  3.983873  0  0  -0.17024  -0.129261  0  3.958821  0
N  N70  1  0.53738947  0.68523164  0.28014075  1  0  -0.346336  0  3.258747  0  0  -0.280553  0  3.523421  0  0  -0.299411  0  3.542881  0  0  -0.317109  -0.267852  0  3.510433  0
N  N71  1  0.46261332  0.31476753  0.71986012  1  0  -0.346296  0  3.258779  0  0  -0.280513  0  3.523424  0  0  -0.299372  0  3.542888  0  0  -0.317098  -0.267817  0  3.510448  0
N  N72  1  0.59105153  0.41434738  0.26299078  1  0  -0.346575  0  3.266231  0  0  -0.275868  0  3.531134  0  0  -0.295083  0  3.549782  0  0  -0.316862  -0.262382  0  3.518315  0
N  N73  1  0.40895772  0.58565109  0.73700733  1  0  -0.346661  0  3.266161  0  0  -0.275927  0  3.530985  0  0  -0.295147  0  3.549635  0  0  -0.316866  -0.262437  0  3.518158  0
O  O74  1  0.22722940  0.37681679  0.22732432  1  0  -0.639147  0  1.89145  0  0  -0.591727  0  2.112803  0  0  -0.616585  0  2.104199  0  0  -0.335752  -0.574273  0  2.117977  0
O  O75  1  0.77282770  0.62315598  0.77264375  1  0  -0.63895  0  1.890948  0  0  -0.591635  0  2.11225  0  0  -0.616499  0  2.103662  0  0  -0.33575  -0.574175  0  2.11741  0
O  O76  1  0.33089828  0.47544126  0.03335697  1  0  -0.694662  0  2.079769  0  0  -0.603716  0  2.340132  0  0  -0.638618  0  2.329358  0  0  -0.34679  -0.5791  0  2.346466  0
O  O77  1  0.66910034  0.52456688  0.96663809  1  0  -0.694653  0  2.079845  0  0  -0.6037  0  2.340123  0  0  -0.638605  0  2.329353  0  0  -0.346783  -0.579083  0  2.346456  0
O  O78  1  0.34869049  0.78449113  0.06690023  1  0  -0.65489  0  1.89341  0  0  -0.598099  0  2.121779  0  0  -0.625881  0  2.112409  0  0  -0.348909  -0.57834  0  2.12732  0
O  O79  1  0.65128960  0.21551296  0.93311327  1  0  -0.654675  0  1.89341  0  0  -0.597867  0  2.121794  0  0  -0.625647  0  2.112423  0  0  -0.348768  -0.578121  0  2.127354  0
O  O80  1  0.16133428  0.71932983  0.25283112  1  0  -0.667194  0  1.915799  0  0  -0.610293  0  2.151899  0  0  -0.638677  0  2.142887  0  0  -0.351385  -0.590079  0  2.157095  0
O  O81  1  0.83868866  0.28066113  0.74716804  1  0  -0.666968  0  1.915815  0  0  -0.610073  0  2.151969  0  0  -0.638454  0  2.142967  0  0  -0.351239  -0.589858  0  2.157146  0
