# generated using pymatgen
data_NiH24C30(NO)4
_symmetry_space_group_name_H-M   'P 1'
_cell_length_a   11.33153326
_cell_length_b   11.17761422
_cell_length_c   12.62832357
_cell_angle_alpha   89.35674194
_cell_angle_beta   98.07008616
_cell_angle_gamma   112.71453273
_symmetry_Int_Tables_number   1
_chemical_formula_structural   NiH24C30(NO)4
_chemical_formula_sum   'Ni2 H48 C60 N8 O8'
_cell_volume   1459.21076842
_cell_formula_units_Z   2
loop_
 _symmetry_equiv_pos_site_id
 _symmetry_equiv_pos_as_xyz
  1  'x, y, z'
loop_
 _atom_site_type_symbol
 _atom_site_label
 _atom_site_symmetry_multiplicity
 _atom_site_fract_x
 _atom_site_fract_y
 _atom_site_fract_z
 _atom_site_occupancy
 _atom_site_pbe_bader_charge
 _atom_site_pbe_bader_spin_density
 _atom_site_pbe_cm5_charge
 _atom_site_pbe_ddec_charge
 _atom_site_pbe_ddec_spin_density
 _atom_site_pbe_ddec_sum_bond_order
 _atom_site_pbe_magmom
Ni  Ni0  1  0.53742229  0.21305401  0.78732276  1  1.13336  1.546831  0.639206  0.719536  1.760632  2.51473  1.527
Ni  Ni1  1  0.46258273  0.78694681  0.21268212  1  1.133324  1.54684  0.639141  0.719367  1.760641  2.514742  1.527
H  H2  1  0.57673079  0.95349006  0.53067818  1  0.078928  0.000651  0.10327  0.11068  0.000428  1.010461  0.0
H  H3  1  0.42326995  0.04651515  0.46934212  1  0.078747  0.000651  0.103224  0.110709  0.000428  1.010577  0.0
H  H4  1  0.90750803  0.44663542  0.89440009  1  0.059713  -4.8e-05  0.097145  0.096546  -5.6e-05  1.031736  0.0
H  H5  1  0.09249560  0.55336478  0.10559037  1  0.059337  -4.8e-05  0.097148  0.096549  -5.6e-05  1.031791  0.0
H  H6  1  0.24953371  0.53816033  0.04697855  1  0.084997  -7e-05  0.100566  0.104033  -0.000192  1.041462  0.0
H  H7  1  0.75046608  0.46182718  0.95301449  1  0.0848  -7e-05  0.100545  0.10399  -0.000192  1.041469  0.0
H  H8  1  0.73862388  0.26997180  0.63794326  1  0.173664  0.0004  0.140827  0.116603  -8.1e-05  1.006975  0.001
H  H9  1  0.26136762  0.73002418  0.36205451  1  0.173571  0.0004  0.140844  0.116617  -8.1e-05  1.007005  0.001
H  H10  1  0.42674660  0.42503417  0.58996106  1  0.089971  5.2e-05  0.099632  0.105711  1.1e-05  1.030372  0.0
H  H11  1  0.57326389  0.57497139  0.41005082  1  0.089961  5.2e-05  0.099687  0.105842  1.1e-05  1.0303  0.0
H  H12  1  0.57093168  0.74852689  0.45592450  1  0.110476  -9.3e-05  0.105895  0.120297  -0.000182  1.01904  0.0
H  H13  1  0.42908127  0.25148230  0.54409800  1  0.110178  -9.3e-05  0.105944  0.120453  -0.000182  1.018927  0.0
H  H14  1  0.39571022  0.75575556  0.79468999  1  0.076316  0.000275  0.103734  0.102214  0.000179  1.026794  0.0
H  H15  1  0.60426971  0.24423514  0.20531911  1  0.075747  0.000275  0.103711  0.102235  0.000179  1.026637  0.0
H  H16  1  0.77238559  0.34631894  0.45759149  1  0.064465  6.1e-05  0.108235  0.1211  1.2e-05  1.030379  0.0
H  H17  1  0.22760603  0.65367522  0.54240152  1  0.06465  6.1e-05  0.108222  0.121062  1.2e-05  1.030369  0.0
H  H18  1  0.63833060  0.54259599  0.79034147  1  0.111638  0.000967  0.123368  0.117441  0.000289  1.005991  0.001
H  H19  1  0.36168038  0.45740871  0.20966649  1  0.111409  0.000967  0.123339  0.117386  0.000289  1.006076  0.001
H  H20  1  0.40390269  0.45433611  0.99284945  1  0.090077  0.000556  0.102363  0.10253  0.000396  1.037777  0.0
H  H21  1  0.59609690  0.54564847  0.00714432  1  0.08934  0.000556  0.102411  0.102677  0.000395  1.037728  0.0
H  H22  1  0.78950773  0.13278426  0.80421578  1  0.129757  0.000533  0.136782  0.102717  7e-06  0.997251  0.0
H  H23  1  0.21050311  0.86723221  0.19578519  1  0.129675  0.000533  0.136792  0.102678  7e-06  0.997284  0.0
H  H24  1  0.39128235  0.54782413  0.72220908  1  0.070952  9.7e-05  0.096127  0.098189  2.4e-05  1.036607  0.0
H  H25  1  0.60870312  0.45216966  0.27779512  1  0.071046  9.7e-05  0.096088  0.09813  2.4e-05  1.036619  0.0
H  H26  1  0.97469912  0.33852934  0.77052576  1  0.049918  -1.8e-05  0.091786  0.082345  -7.1e-05  1.044317  0.0
H  H27  1  0.02530384  0.66147863  0.22946314  1  0.050009  -1.8e-05  0.091816  0.08237  -7.1e-05  1.044369  0.0
H  H28  1  0.04478648  0.22131589  0.07123416  1  0.097326  2.1e-05  0.106662  0.11925  -0.0  1.011007  0.0
H  H29  1  0.95521635  0.77868898  0.92876261  1  0.097371  2.1e-05  0.10665  0.119198  -0.0  1.011136  0.0
H  H30  1  0.13713922  0.26283884  0.71201148  1  0.08285  0.000467  0.10462  0.110784  0.0003  0.992905  0.0
H  H31  1  0.86286284  0.73717407  0.28797262  1  0.082786  0.000467  0.104523  0.110691  0.0003  0.992748  0.0
H  H32  1  0.83514284  0.67538282  0.67268511  1  0.123355  0.001011  0.130364  0.133162  0.000451  0.989611  0.0
H  H33  1  0.16485669  0.32461331  0.32731118  1  0.123342  0.001011  0.130383  0.133138  0.000451  0.989582  0.0
H  H34  1  0.95093885  0.37547646  0.23706455  1  0.053409  -1.6e-05  0.089594  0.124073  -1.9e-05  1.038245  0.0
H  H35  1  0.04905277  0.62451771  0.76292846  1  0.053456  -1.6e-05  0.089553  0.124072  -1.9e-05  1.038232  0.0
H  H36  1  0.80660512  0.28643626  0.29050645  1  0.078961  9.6e-05  0.095178  0.139213  5.9e-05  1.027754  0.0
H  H37  1  0.19338808  0.71355504  0.70948590  1  0.079098  9.6e-05  0.095176  0.139237  5.9e-05  1.027735  0.0
H  H38  1  0.94067522  0.24146522  0.31679847  1  0.037494  7.9e-05  0.094645  0.130294  3.7e-05  0.990626  0.0
H  H39  1  0.05931819  0.75852896  0.68319474  1  0.037508  7.9e-05  0.094638  0.130326  3.7e-05  0.990563  0.0
H  H40  1  0.75770927  0.08936172  0.13432258  1  0.164768  0.001243  0.128188  0.143299  0.000575  1.006682  0.001
H  H41  1  0.24228649  0.91063145  0.86567404  1  0.164757  0.001243  0.128159  0.143256  0.000575  1.006649  0.001
H  H42  1  0.58192685  0.18959473  0.03708869  1  0.112498  0.000939  0.122972  0.12016  0.00028  1.010305  0.001
H  H43  1  0.41807781  0.81041006  0.96291224  1  0.112464  0.000939  0.12296  0.120127  0.00028  1.010278  0.001
H  H44  1  0.28022767  0.12330035  0.19159661  1  0.026454  -2.7e-05  0.091195  0.129201  -5.1e-05  1.014165  0.0
H  H45  1  0.71977250  0.87670443  0.80840224  1  0.026383  -2.7e-05  0.09119  0.12923  -5.1e-05  1.014219  0.0
H  H46  1  0.26541556  0.25911534  0.12575767  1  0.03805  -0.0  0.089792  0.125968  8e-06  1.030879  0.0
H  H47  1  0.73458372  0.74088942  0.87424107  1  0.038124  -0.0  0.089816  0.126006  8e-06  1.030862  0.0
H  H48  1  0.33320655  0.16292369  0.06565929  1  0.074198  9.7e-05  0.09968  0.147599  3.5e-05  0.991744  0.0
H  H49  1  0.66679652  0.83708398  0.93434150  1  0.074486  9.7e-05  0.099631  0.147509  3.5e-05  0.991723  0.0
C  C50  1  0.37398585  0.29849356  0.82067135  1  1.52286  -0.00391  0.187643  0.534652  -0.005533  4.213684  -0.006
C  C51  1  0.62600488  0.70150057  0.17932235  1  1.523717  -0.003909  0.187681  0.5346  -0.005533  4.213964  -0.006
C  C52  1  0.48972782  0.99278315  0.70927084  1  1.537068  -0.002998  0.188717  0.540613  -0.004386  4.222074  -0.005
C  C53  1  0.51027031  0.00721536  0.29074512  1  1.537198  -0.002998  0.188678  0.540426  -0.004386  4.222121  -0.005
C  C54  1  0.53674421  0.86420693  0.57233841  1  -0.083518  0.001025  -0.087272  -0.090348  0.000578  3.990955  0.001
C  C55  1  0.46325862  0.13579450  0.42767970  1  -0.083292  0.001026  -0.087238  -0.090485  0.000578  3.991056  0.001
C  C56  1  0.27928994  0.34997590  0.85032813  1  0.002916  0.002833  -0.019777  -0.032915  0.001819  3.98321  0.002
C  C57  1  0.72070558  0.65002434  0.14965588  1  0.002207  0.002832  -0.019735  -0.033003  0.001819  3.983261  0.002
C  C58  1  0.91252708  0.49566599  0.56754677  1  0.242058  0.000798  0.088977  0.097223  0.0005  3.994988  0.001
C  C59  1  0.08746327  0.50432721  0.43244530  1  0.241603  0.000798  0.088902  0.097151  0.0005  3.994825  0.001
C  C60  1  0.95941784  0.41374678  0.40633758  1  0.05397  0.000166  -0.005191  0.114727  5.4e-05  3.971276  0.0
C  C61  1  0.04057124  0.58624546  0.59365354  1  0.053073  0.000166  -0.005194  0.114705  5.4e-05  3.971597  0.0
C  C62  1  0.99655765  0.47234119  0.95149841  1  -0.008017  -0.000325  -0.092035  -0.131118  -0.000364  3.982438  0.0
C  C63  1  0.00344614  0.52765706  0.04849283  1  -0.102485  -0.000327  -0.091985  -0.131033  -0.000365  3.982259  0.0
C  C64  1  0.48145116  0.63223811  0.58422240  1  -0.054309  -0.000549  -0.012577  0.106029  -0.000615  4.047233  0.0
C  C65  1  0.51855489  0.36776729  0.41579295  1  -0.054352  -0.000548  -0.012609  0.106073  -0.000614  4.046987  0.0
C  C66  1  0.22137429  0.47421899  0.97548257  1  -0.037873  0.000393  -0.089008  -0.130828  0.000115  3.948853  0.0
C  C67  1  0.77862717  0.52577530  0.02451074  1  -0.037918  0.000392  -0.088971  -0.130664  0.000115  3.948465  0.0
C  C68  1  0.90455856  0.04854411  0.98625413  1  0.319937  0.001221  0.091598  0.101394  0.000745  3.996571  0.001
C  C69  1  0.09544354  0.95145881  0.01374253  1  0.320028  0.001221  0.091589  0.101431  0.000745  3.996494  0.001
C  C70  1  0.73904699  0.36152061  0.66563213  1  0.953314  -0.005113  0.144587  0.09223  -0.006057  3.901058  -0.003
C  C71  1  0.26094918  0.63847834  0.33436540  1  0.953431  -0.005112  0.14454  0.092173  -0.006056  3.901278  -0.003
C  C72  1  0.47520265  0.50857549  0.54371989  1  -0.00033  -0.000306  -0.093406  -0.131472  -0.000337  3.982295  0.0
C  C73  1  0.52480807  0.49143291  0.45629443  1  -0.106962  -0.000307  -0.093328  -0.131598  -0.000338  3.982248  0.0
C  C74  1  0.09682371  0.43838978  0.91585530  1  -0.014935  -0.000606  -0.011938  0.106807  -0.000674  4.042836  0.0
C  C75  1  0.90318243  0.56160745  0.08413937  1  -0.014962  -0.000606  -0.011993  0.106791  -0.000673  4.042553  0.0
C  C76  1  0.53407034  0.74870481  0.53110431  1  0.028984  0.00036  -0.089226  -0.129698  8.4e-05  3.936614  0.0
C  C77  1  0.46593933  0.25130056  0.46891460  1  0.028919  0.000359  -0.089282  -0.129921  8.4e-05  3.936434  0.0
C  C78  1  0.43381571  0.75281855  0.72066325  1  -0.108639  0.000486  -0.089303  -0.100317  0.000117  4.010895  0.0
C  C79  1  0.56617251  0.24717507  0.27934918  1  -0.10787  0.000487  -0.089368  -0.100538  0.000118  4.010972  0.0
C  C80  1  0.87362016  0.41208766  0.47636662  1  0.027488  2.6e-05  -0.088214  -0.212028  -4.7e-05  3.953215  0.0
C  C81  1  0.12636967  0.58790648  0.52362620  1  0.027304  2.6e-05  -0.088189  -0.21192  -4.7e-05  3.95299  0.0
C  C82  1  0.69108972  0.50595042  0.74329878  1  0.448589  -0.000464  0.00595  -0.025661  -0.000901  4.006925  0.0
C  C83  1  0.30891602  0.49405238  0.25670462  1  0.448796  -0.000465  0.006041  -0.025539  -0.000902  4.006833  0.0
C  C84  1  0.48551902  0.86772030  0.66682495  1  -0.0455  0.003333  -0.026463  -0.050932  0.002139  4.014665  0.002
C  C85  1  0.51447390  0.13227622  0.33319041  1  -0.045683  0.003333  -0.026412  -0.05058  0.002139  4.01448  0.002
C  C86  1  0.30957189  0.42875720  0.94426339  1  -0.066161  0.000817  -0.08288  -0.087575  0.000421  3.975678  0.001
C  C87  1  0.69042341  0.57123028  0.05572836  1  -0.065698  0.000817  -0.082957  -0.08785  0.000421  3.975789  0.001
C  C88  1  0.75795864  0.13858934  0.88030643  1  0.952291  -0.004617  0.138966  0.090735  -0.005505  3.91405  -0.003
C  C89  1  0.24204947  0.86142228  0.11969338  1  0.952315  -0.004618  0.138971  0.090911  -0.005505  3.913895  -0.003
C  C90  1  0.43233142  0.63700541  0.68020293  1  -0.047756  0.000501  -0.094516  -0.14217  0.000223  3.965219  0.0
C  C91  1  0.56766324  0.36299127  0.31980709  1  -0.047583  0.000501  -0.094465  -0.142022  0.000223  3.965326  0.0
C  C92  1  0.06930855  0.36385893  0.81924988  1  -0.069844  0.000359  -0.094161  -0.136146  0.000104  3.976698  0.0
C  C93  1  0.93069615  0.63614424  0.18073836  1  -0.069262  0.000358  -0.094268  -0.136353  0.000104  3.976965  0.0
C  C94  1  0.02632994  0.12346224  0.04167214  1  -0.078067  0.000355  -0.086463  -0.207842  0.000182  3.966345  0.0
C  C95  1  0.97367161  0.87654168  0.95832289  1  -0.078147  0.000354  -0.086447  -0.207739  0.000182  3.966391  0.0
C  C96  1  0.12544560  0.07696202  0.05676504  1  0.054052  0.000371  -0.003821  0.113553  0.000201  3.973301  0.0
C  C97  1  0.87455702  0.92303997  0.94323087  1  0.054281  0.000371  -0.003868  0.113487  0.000201  3.973386  0.0
C  C98  1  0.15910438  0.32096060  0.78638434  1  -0.06545  0.000654  -0.085555  -0.093932  0.000175  3.984739  0.001
C  C99  1  0.84089383  0.67903966  0.21360076  1  -0.065711  0.000655  -0.085451  -0.093675  0.000175  3.984346  0.001
C  C100  1  0.78907436  0.57304815  0.68611121  1  0.275806  0.003626  0.004586  -0.101209  0.002031  3.906002  0.002
C  C101  1  0.21092502  0.42694987  0.31388667  1  0.276019  0.003626  0.004586  -0.101149  0.002031  3.905904  0.002
C  C102  1  0.91233433  0.32512620  0.30746009  1  -0.066296  6.5e-05  -0.239894  -0.413875  6.1e-05  3.964164  0.0
C  C103  1  0.08765691  0.67486703  0.69253128  1  -0.066299  6.5e-05  -0.239845  -0.413966  6.1e-05  3.964263  0.0
C  C104  1  0.74194044  0.11866500  0.05339067  1  0.297288  0.004368  0.007139  -0.087669  0.002449  3.875818  0.003
C  C105  1  0.25806203  0.88133394  0.94661073  1  0.297275  0.004368  0.007152  -0.087607  0.002449  3.875932  0.003
C  C106  1  0.65425757  0.16637639  0.00439988  1  0.439705  0.000203  0.004303  -0.020402  -0.00013  3.97701  0.001
C  C107  1  0.34574477  0.83362933  0.99560080  1  0.439643  0.000204  0.004311  -0.020341  -0.000129  3.977069  0.001
C  C108  1  0.25784485  0.15949749  0.11316415  1  -0.044857  3.1e-05  -0.240123  -0.412309  -4e-06  3.958912  0.0
C  C109  1  0.74215837  0.84050828  0.88683505  1  -0.045446  3.1e-05  -0.240078  -0.412258  -4e-06  3.958894  0.0
N  N110  1  0.81890147  0.47996023  0.63683835  1  -1.248852  0.001933  -0.224946  0.01512  0.000769  3.803492  0.002
N  N111  1  0.18109395  0.52003685  0.36315591  1  -1.249018  0.001933  -0.224967  0.015019  0.000769  3.803875  0.002
N  N112  1  0.80729138  0.10160782  0.97374298  1  -1.257465  0.001229  -0.230404  0.006471  0.000134  3.813775  0.001
N  N113  1  0.19271198  0.89839608  0.02625383  1  -1.257573  0.00123  -0.230334  0.006394  0.000134  3.813913  0.001
N  N114  1  0.66154935  0.37460031  0.73022949  1  -1.210964  0.066898  -0.353302  -0.278761  0.038726  3.647594  0.059
N  N115  1  0.33845334  0.62540149  0.26977356  1  -1.21105  0.066893  -0.353354  -0.278766  0.038724  3.647721  0.059
N  N116  1  0.66571233  0.17875698  0.89709390  1  -1.192383  0.070207  -0.357065  -0.282037  0.04059  3.661571  0.062
N  N117  1  0.33429667  0.82125468  0.10290522  1  -1.192088  0.070204  -0.357072  -0.282108  0.040589  3.661672  0.062
O  O118  1  0.36381853  0.25249600  0.72626022  1  -1.144621  0.067663  -0.318718  -0.537533  0.037859  2.162668  0.06
O  O119  1  0.63618962  0.74750411  0.27373628  1  -1.14504  0.067655  -0.318691  -0.53744  0.037854  2.162651  0.06
O  O120  1  0.46725951  0.30070344  0.89277492  1  -1.135396  0.080858  -0.319156  -0.528567  0.045347  2.223844  0.073
O  O121  1  0.53273564  0.69929091  0.10721294  1  -1.135562  0.080857  -0.31917  -0.52847  0.045348  2.223936  0.073
O  O122  1  0.42265898  0.99733044  0.78067549  1  -1.141555  0.067506  -0.30923  -0.529863  0.037584  2.189002  0.06
O  O123  1  0.57734421  0.00267195  0.21934267  1  -1.141417  0.067501  -0.309127  -0.529685  0.037582  2.189  0.06
O  O124  1  0.56688197  0.09866934  0.67419061  1  -1.145413  0.0865  -0.319659  -0.547305  0.048471  2.301134  0.078
O  O125  1  0.43311448  0.90132735  0.32581960  1  -1.145678  0.08651  -0.319636  -0.547292  0.048478  2.300914  0.078
