# generated using pymatgen
data_Co3H42C50(NO4)4
_symmetry_space_group_name_H-M   'P 1'
_cell_length_a   10.11874611
_cell_length_b   11.54563889
_cell_length_c   27.18508745
_cell_angle_alpha   80.45438424
_cell_angle_beta   79.18187160
_cell_angle_gamma   64.01767573
_symmetry_Int_Tables_number   1
_chemical_formula_structural   Co3H42C50(NO4)4
_chemical_formula_sum   'Co6 H84 C100 N8 O32'
_cell_volume   2791.62742803
_cell_formula_units_Z   2
loop_
 _symmetry_equiv_pos_site_id
 _symmetry_equiv_pos_as_xyz
  1  'x, y, z'
loop_
 _atom_site_type_symbol
 _atom_site_label
 _atom_site_symmetry_multiplicity
 _atom_site_fract_x
 _atom_site_fract_y
 _atom_site_fract_z
 _atom_site_occupancy
 _atom_site_pbe_bader_charge
 _atom_site_pbe_bader_spin_density
 _atom_site_pbe_cm5_charge
 _atom_site_pbe_ddec_charge
 _atom_site_pbe_ddec_spin_density
 _atom_site_pbe_ddec_sum_bond_order
 _atom_site_pbe_magmom
Co  Co0  1  0.98976385  0.99897838  0.66147834  1  1.314326  2.627477  0.658303  0.978428  2.835349  2.385548  2.61
Co  Co1  1  0.14942344  0.50174369  0.83878000  1  1.309119  2.626428  0.658125  0.978229  2.835486  2.384435  2.609
Co  Co2  1  0.00649280  0.00766854  0.33839296  1  1.315165  2.640651  0.659463  0.988015  2.84924  2.361657  2.623
Co  Co3  1  0.85071039  0.49758948  0.16127044  1  1.303323  2.622119  0.656021  0.972347  2.827886  2.378346  2.604
Co  Co4  1  0.89545642  0.75036207  0.74997358  1  1.286587  2.61453  0.651825  0.923051  2.815344  2.341937  2.597
Co  Co5  1  0.10829236  0.24916650  0.24952965  1  1.280049  2.606104  0.650359  0.918655  2.807518  2.344811  2.589
H  H6  1  0.26188214  0.82032334  0.65022177  1  0.616285  8.8e-05  0.315363  0.392415  -0.000144  0.892853  0.0
H  H7  1  0.17923043  0.76656804  0.69654620  1  0.659766  -0.000117  0.29041  0.381593  -0.00031  0.964452  0.0
H  H8  1  0.96220667  0.20510585  0.77652431  1  0.111654  0.000426  0.110712  0.119035  0.000151  1.0009  0.0
H  H9  1  0.04738545  0.94283788  0.94141740  1  0.072686  0.00016  0.097761  0.100426  7.1e-05  1.031269  0.0
H  H10  1  0.01322500  0.85369399  0.87030495  1  0.087277  0.000102  0.102389  0.094812  -7.8e-05  1.056057  0.0
H  H11  1  0.83826286  0.35596467  0.93466831  1  0.065681  -3.4e-05  0.104687  0.107953  -6e-05  1.001049  0.0
H  H12  1  0.84858602  0.44202474  0.01113765  1  0.095086  0.000235  0.105351  0.111694  6.2e-05  0.999797  0.0
H  H13  1  0.25223467  0.10838343  0.03711640  1  0.079289  1e-05  0.101943  0.103313  -2.5e-05  1.006685  0.0
H  H14  1  0.23949906  0.01695286  0.96158084  1  0.064115  0.000164  0.101023  0.103963  6.4e-05  0.99648  0.0
H  H15  1  0.57008422  0.85811230  0.72638370  1  0.08061  0.001735  0.119639  0.084036  0.000453  0.991328  0.001
H  H16  1  0.32025536  0.01872925  0.75895833  1  0.071135  0.000949  0.105226  0.107457  0.000468  1.018854  0.0
H  H17  1  0.29613875  0.13875408  0.83213262  1  0.122565  -1.5e-05  0.105319  0.109728  -0.00023  1.029609  0.0
H  H18  1  0.52439978  0.07804731  0.87262952  1  0.10249  0.000806  0.099424  0.099327  0.000318  1.039164  0.0
H  H19  1  0.76272668  0.90710422  0.83849007  1  0.111314  0.001404  0.1143  0.08471  0.000418  1.038603  0.001
H  H20  1  0.00443158  0.17157480  0.56859361  1  0.117891  0.001841  0.1188  0.092432  0.000583  1.016068  0.001
H  H21  1  0.15399729  0.29442967  0.52752058  1  0.066615  0.001032  0.108434  0.114094  0.000459  0.991194  0.0
H  H22  1  0.34716440  0.29555354  0.57417654  1  0.071932  -0.000155  0.103802  0.098412  -0.000254  1.01757  0.0
H  H23  1  0.38382070  0.16850997  0.65930882  1  0.124518  0.000764  0.103185  0.112991  0.000366  1.061028  0.0
H  H24  1  0.22114693  0.05381012  0.69452195  1  0.073795  0.001777  0.115832  0.083839  0.000337  1.021892  0.001
H  H25  1  0.89560552  0.83298210  0.64976421  1  0.64857  0.000819  0.286344  0.376592  0.00086  0.974978  0.002
H  H26  1  0.76624235  0.95139283  0.68211973  1  0.657466  -0.000137  0.287471  0.373786  -0.000276  0.981762  0.0
H  H27  1  0.23161269  0.68098168  0.84970937  1  0.593618  9.8e-05  0.315408  0.393135  -0.000139  0.892479  0.0
H  H28  1  0.14140087  0.73420807  0.80353137  1  0.641724  -9.8e-05  0.290763  0.382912  -0.00031  0.962867  0.0
H  H29  1  0.44360548  0.29587401  0.72389400  1  0.130456  0.000424  0.11085  0.119266  0.00015  1.001323  0.0
H  H30  1  0.43053326  0.55591699  0.55843149  1  0.07295  0.000155  0.098043  0.100824  6.7e-05  1.030605  0.0
H  H31  1  0.23665578  0.64608257  0.62965405  1  0.086064  0.000104  0.102513  0.095582  -7.5e-05  1.054857  0.0
H  H32  1  0.62955000  0.14182746  0.56628336  1  0.068695  -3.2e-05  0.104638  0.108387  -5.5e-05  1.002367  0.0
H  H33  1  0.80552844  0.05333432  0.49053206  1  0.087606  4.5e-05  0.10534  0.112247  -8.1e-05  1.000013  0.0
H  H34  1  0.89641947  0.38975808  0.46214208  1  0.096481  4e-06  0.101886  0.103454  -2.5e-05  1.008171  0.0
H  H35  1  0.71559091  0.48272344  0.53736055  1  0.086169  0.000178  0.101088  0.103854  7.1e-05  0.995772  0.0
H  H36  1  0.65538821  0.64057734  0.77400561  1  0.092236  0.001734  0.119682  0.083818  0.000452  0.990213  0.001
H  H37  1  0.59975594  0.47971203  0.74125317  1  0.061077  0.000954  0.104977  0.107009  0.000469  1.020345  0.0
H  H38  1  0.76907943  0.36083851  0.66783628  1  0.122522  -1.8e-05  0.105395  0.109854  -0.000232  1.029866  0.0
H  H39  1  0.97644307  0.42293164  0.62723127  1  0.043932  0.000834  0.099428  0.099602  0.000317  1.03849  0.0
H  H40  1  0.00851677  0.59417163  0.66146643  1  0.110902  0.001426  0.114225  0.084679  0.000431  1.039008  0.001
H  H41  1  0.24441521  0.32875923  0.93159473  1  0.111743  0.001844  0.118541  0.092434  0.000584  1.015002  0.001
H  H42  1  0.47637723  0.20563558  0.97209957  1  0.072674  0.001043  0.108117  0.11349  0.000468  0.991779  0.0
H  H43  1  0.71709127  0.20486576  0.92491719  1  0.065052  -0.000165  0.103576  0.098352  -0.000259  1.016037  0.0
H  H44  1  0.71085489  0.33309444  0.84002138  1  0.158588  0.000738  0.10359  0.113893  0.000366  1.059862  0.0
H  H45  1  0.46794376  0.44817476  0.80540779  1  0.117021  0.001783  0.116025  0.084215  0.000337  1.022285  0.001
H  H46  1  0.87702012  0.66789617  0.85017275  1  0.650589  0.000809  0.286306  0.376757  0.000851  0.974298  0.002
H  H47  1  0.89918789  0.54917412  0.81798519  1  0.649266  -0.000134  0.287404  0.373229  -0.000301  0.98231  0.0
H  H48  1  0.73520129  0.18717501  0.34937291  1  0.617867  0.000627  0.321355  0.398415  0.000184  0.881664  0.0
H  H49  1  0.82520818  0.24023896  0.30439355  1  0.654054  0.000133  0.291766  0.385159  -3.9e-05  0.962914  0.0
H  H50  1  0.03738701  0.79355577  0.22334190  1  0.121229  0.000252  0.111165  0.120233  3.5e-05  1.001443  0.0
H  H51  1  0.95071488  0.05738955  0.05883961  1  0.067982  0.00015  0.098636  0.101599  4.5e-05  1.028905  0.0
H  H52  1  0.98543094  0.14565903  0.13008105  1  0.067641  0.00015  0.102689  0.095203  -2.8e-05  1.055347  0.0
H  H53  1  0.16127866  0.64433866  0.06515954  1  0.064889  -3.1e-05  0.104216  0.106965  -5.7e-05  1.00145  0.0
H  H54  1  0.15158913  0.55762274  0.98879736  1  0.094336  0.000273  0.10562  0.112344  8.4e-05  0.999375  0.0
H  H55  1  0.74763199  0.89049384  0.96250841  1  0.098614  3.3e-05  0.102202  0.103583  -1e-05  1.006259  0.0
H  H56  1  0.75926314  0.98250814  0.03805761  1  0.052415  0.000183  0.101014  0.104026  7.6e-05  0.996089  0.0
H  H57  1  0.43027446  0.13860464  0.27358733  1  0.069986  0.001903  0.119586  0.083462  0.000517  0.991114  0.001
H  H58  1  0.68051599  0.97729677  0.24128993  1  0.063854  0.001015  0.104872  0.106461  0.000453  1.020553  0.0
H  H59  1  0.70498428  0.85784656  0.16797524  1  0.133527  3.8e-05  0.10592  0.11007  -0.000143  1.029392  0.0
H  H60  1  0.47750782  0.91889605  0.12711864  1  0.078583  0.000719  0.09974  0.100192  0.000254  1.039796  0.0
H  H61  1  0.23863259  0.09026714  0.16111109  1  0.128122  0.001532  0.115566  0.087009  0.000331  1.03516  0.001
H  H62  1  0.99644331  0.83129563  0.43120387  1  0.12691  0.001638  0.11905  0.094474  0.000191  1.016411  0.001
H  H63  1  0.85023631  0.70491943  0.47172220  1  0.079137  0.000994  0.10761  0.11323  0.000488  0.992413  0.0
H  H64  1  0.65725215  0.70309346  0.42513331  1  0.09736  -0.000188  0.103127  0.098866  -0.000346  1.013653  0.0
H  H65  1  0.61827452  0.83211744  0.34046181  1  0.136961  0.000868  0.102939  0.112555  0.000412  1.056877  0.0
H  H66  1  0.77855962  0.94901215  0.30554541  1  0.092805  0.002017  0.114062  0.080541  0.000666  1.023051  0.001
H  H67  1  0.10351561  0.17037974  0.35045931  1  0.645983  0.000147  0.285811  0.376181  0.000164  0.975803  0.0
H  H68  1  0.23335739  0.04955921  0.31825182  1  0.646967  -3e-05  0.286215  0.372334  -6.4e-05  0.984549  0.0
H  H69  1  0.77022576  0.31750723  0.15120233  1  0.599471  0.000152  0.315454  0.392687  -0.000107  0.892222  0.0
H  H70  1  0.86125533  0.26420176  0.19719573  1  0.639576  0.000101  0.290487  0.382257  -5.2e-05  0.96386  0.0
H  H71  1  0.55273779  0.70583132  0.27565240  1  0.115265  0.000412  0.110313  0.117815  0.00014  1.002097  0.0
H  H72  1  0.56807760  0.44694709  0.44144537  1  0.092621  0.00014  0.097857  0.101096  6.3e-05  1.031864  0.0
H  H73  1  0.76342720  0.35787475  0.37054784  1  0.081682  0.000148  0.102256  0.094872  -5.5e-05  1.056252  0.0
H  H74  1  0.36828840  0.85909730  0.43397864  1  0.080497  -5.1e-05  0.104895  0.108607  -7.8e-05  1.000445  0.0
H  H75  1  0.19649268  0.94477896  0.51081579  1  0.097409  0.000267  0.105164  0.111342  8.3e-05  0.998556  0.0
H  H76  1  0.10173410  0.61034050  0.53771789  1  0.085295  2.6e-05  0.101736  0.103122  -1e-05  1.008004  0.0
H  H77  1  0.28021576  0.51927007  0.46179481  1  0.052059  0.000175  0.100428  0.103414  7.1e-05  0.996861  0.0
H  H78  1  0.34353227  0.35879498  0.22643636  1  0.111985  0.001975  0.118729  0.082855  0.000686  0.991332  0.001
H  H79  1  0.39830005  0.52158202  0.25814354  1  0.064262  0.001051  0.104716  0.106479  0.000488  1.02163  0.0
H  H80  1  0.22859520  0.64208710  0.33120075  1  0.112766  1.9e-05  0.106185  0.110895  -0.000171  1.028103  0.0
H  H81  1  0.02204541  0.57985343  0.37242075  1  0.090142  0.000704  0.099628  0.100465  0.00026  1.040057  0.0
H  H82  1  0.98999003  0.40731774  0.33893743  1  0.106109  0.001453  0.115451  0.086596  0.000237  1.037831  0.001
H  H83  1  0.75658744  0.66799718  0.06803200  1  0.118676  0.001918  0.118829  0.09251  0.000586  1.014358  0.001
H  H84  1  0.52429039  0.79248274  0.02781073  1  0.087514  0.00105  0.108568  0.113927  0.000475  0.991802  0.0
H  H85  1  0.28317993  0.79499844  0.07532449  1  0.070016  -0.000153  0.104065  0.09891  -0.000253  1.015242  0.0
H  H86  1  0.28925825  0.66734701  0.16032234  1  0.142795  0.000798  0.103716  0.114103  0.000387  1.058318  0.0
H  H87  1  0.53249288  0.55105125  0.19471495  1  0.113176  0.001905  0.11589  0.084056  0.000381  1.022597  0.001
H  H88  1  0.12516323  0.33029075  0.14948389  1  0.645015  0.000237  0.286713  0.377208  0.000171  0.97366  0.0
H  H89  1  0.10083001  0.45033187  0.18179246  1  0.651414  0.000198  0.286973  0.372023  4e-05  0.984621  0.001
C  C90  1  0.97573707  0.96698237  0.77440654  1  1.560659  -0.005648  0.221628  0.588756  -0.007432  4.147474  -0.003
C  C91  1  0.99095139  0.02154535  0.81811074  1  -0.025409  0.008934  -0.021998  -0.049702  0.004514  4.001547  0.007
C  C92  1  0.98239781  0.14713414  0.81258218  1  -0.016702  0.000826  -0.075713  -0.107768  -0.000107  3.946084  0.001
C  C93  1  0.99928748  0.19886896  0.85261048  1  -0.008556  0.005981  -0.010676  -0.074185  0.00313  3.945237  0.005
C  C94  1  0.99374791  0.33268076  0.84337636  1  1.580316  0.000853  0.215665  0.58356  0.000201  4.201258  0.0
C  C95  1  0.02603657  0.12484473  0.89952560  1  -0.067723  -0.00297  0.00163  0.048764  -0.003279  3.968904  -0.002
C  C96  1  0.03275467  0.99936718  0.90489061  1  -0.01672  0.001342  -0.092108  -0.136141  0.000551  3.992015  0.001
C  C97  1  0.01406467  0.94887922  0.86497911  1  -0.089421  -0.00088  -0.089071  -0.097438  -0.001371  3.9959  -0.001
C  C98  1  0.03730215  0.17928808  0.94331768  1  0.006666  8e-06  -0.003938  0.076652  -0.000162  4.004826  0.0
C  C99  1  0.92884496  0.30051383  0.95716983  1  -0.064217  -0.000219  -0.088747  -0.127561  -0.000363  3.968038  0.0
C  C100  1  0.93458757  0.34964843  0.99963475  1  -0.088443  0.000238  -0.083278  -0.079984  -2.5e-05  3.967575  0.0
C  C101  1  0.05093535  0.28028205  0.02874938  1  -0.005269  0.004299  -0.022756  -0.047198  0.00226  3.981956  0.003
C  C102  1  0.05052233  0.32929088  0.07657894  1  1.554437  0.001438  0.206793  0.573688  0.000759  4.207193  0.001
C  C103  1  0.16187038  0.16115048  0.01435075  1  -0.022547  0.000631  -0.087309  -0.099223  0.000237  4.007556  0.001
C  C104  1  0.15384521  0.11026201  0.97250555  1  -0.045362  -4e-06  -0.092461  -0.141307  -0.000146  3.986143  0.0
C  C105  1  0.55499881  0.90701170  0.75938511  1  0.50354  -0.007177  0.04858  0.100223  -0.008204  3.959617  -0.004
C  C106  1  0.41604757  0.99828345  0.77727284  1  -0.024217  0.005371  -0.083888  -0.124617  0.00255  3.967557  0.004
C  C107  1  0.40207251  0.06344178  0.81813599  1  -0.057201  -0.010541  -0.06786  -0.024529  -0.011485  3.941664  -0.006
C  C108  1  0.52868213  0.03079492  0.84047594  1  -0.020742  0.005682  -0.087344  -0.126418  0.00264  3.974785  0.005
C  C109  1  0.66290138  0.93638792  0.82120707  1  0.433927  -0.006112  0.042834  0.101514  -0.006849  3.921948  -0.004
C  C110  1  0.08924489  0.17461228  0.58715487  1  0.447956  -0.006235  0.049688  0.096593  -0.006884  3.928417  -0.004
C  C111  1  0.17300418  0.24282692  0.56475886  1  0.013412  0.005561  -0.08694  -0.145134  0.002615  4.000892  0.004
C  C112  1  0.28003952  0.24285233  0.59059886  1  -0.059054  -0.009748  -0.071632  -0.034761  -0.010592  3.970818  -0.006
C  C113  1  0.29945780  0.17444955  0.63809343  1  -0.043958  0.00498  -0.086123  -0.130115  0.002375  3.966768  0.004
C  C114  1  0.21071577  0.10939690  0.65782883  1  0.517174  -0.006021  0.048847  0.093733  -0.007049  3.93781  -0.004
C  C115  1  0.21679827  0.53377242  0.72581741  1  1.565408  -0.005256  0.221056  0.587396  -0.007086  4.147908  -0.003
C  C116  1  0.33025296  0.47888941  0.68208094  1  -0.011731  0.008804  -0.022698  -0.051265  0.004467  4.003783  0.007
C  C117  1  0.44179218  0.35339615  0.68771398  1  -0.082467  0.001011  -0.075264  -0.107152  -2e-06  3.948215  0.001
C  C118  1  0.55032318  0.30123564  0.64764259  1  -0.020157  0.005951  -0.010964  -0.073963  0.003101  3.946832  0.005
C  C119  1  0.66939494  0.16757805  0.65698947  1  1.570399  0.000932  0.215668  0.583073  0.000219  4.203284  0.0
C  C120  1  0.54963797  0.37450259  0.60051406  1  -0.002941  -0.002755  0.001517  0.048866  -0.003049  3.968945  -0.002
C  C121  1  0.43619148  0.49989380  0.59507195  1  -0.05089  0.001253  -0.091862  -0.13553  0.000517  3.989633  0.001
C  C122  1  0.32734290  0.55096419  0.63505483  1  -0.068098  -0.000677  -0.088572  -0.097324  -0.001161  3.994393  0.0
C  C123  1  0.65914626  0.31940443  0.55672681  1  -0.007119  1e-05  -0.004172  0.074886  -0.000141  4.006001  0.0
C  C124  1  0.68699684  0.19726360  0.54350370  1  -0.040265  -0.000251  -0.088913  -0.127737  -0.000374  3.970832  0.0
C  C125  1  0.78579146  0.14684777  0.50140093  1  -0.055886  3.3e-05  -0.082815  -0.080432  -0.000122  3.966789  0.0
C  C126  1  0.86141542  0.21625763  0.47181642  1  0.007382  0.004506  -0.024447  -0.04622  0.002369  3.978865  0.003
C  C127  1  0.96039182  0.16531557  0.42453454  1  1.535965  0.002198  0.203732  0.567366  0.001145  4.215838  0.002
C  C128  1  0.83667236  0.33684153  0.48536398  1  -0.113785  0.000686  -0.086797  -0.099257  0.000249  4.008547  0.001
C  C129  1  0.73524138  0.38856011  0.52701592  1  -0.046056  0.000103  -0.092868  -0.140652  -5.6e-05  3.986133  0.0
C  C130  1  0.72223675  0.59226953  0.74084919  1  0.487134  -0.007285  0.048724  0.100363  -0.008312  3.956178  -0.005
C  C131  1  0.69308189  0.50079659  0.72289440  1  -0.071343  0.005384  -0.083906  -0.124318  0.002573  3.967987  0.004
C  C132  1  0.78529343  0.43623830  0.68189083  1  -0.006599  -0.01061  -0.067499  -0.024559  -0.011589  3.941484  -0.006
C  C133  1  0.90115810  0.46966384  0.65948375  1  0.041252  0.005676  -0.087365  -0.126103  0.002653  3.973593  0.005
C  C134  1  0.92106676  0.56426145  0.67879791  1  0.434107  -0.006209  0.043259  0.101506  -0.006915  3.920636  -0.004
C  C135  1  0.35065782  0.32605296  0.91282569  1  0.492923  -0.006334  0.049984  0.096449  -0.006974  3.926835  -0.004
C  C136  1  0.48059685  0.25762143  0.93490020  1  -0.032121  0.00563  -0.086944  -0.143941  0.002634  3.999368  0.004
C  C137  1  0.61335785  0.25780932  0.90878836  1  -0.066007  -0.009878  -0.072017  -0.035975  -0.01074  3.968739  -0.006
C  C138  1  0.61133006  0.32684453  0.86139325  1  -0.04376  0.005004  -0.086566  -0.130969  0.00238  3.965245  0.004
C  C139  1  0.47694292  0.39209777  0.84199408  1  0.439287  -0.006077  0.049287  0.093817  -0.007137  3.936846  -0.004
C  C140  1  0.02565949  0.02996659  0.22594968  1  1.569889  0.006105  0.220827  0.589532  0.004072  4.157381  0.005
C  C141  1  0.00783189  0.97731990  0.18205201  1  -0.017487  0.007091  -0.022852  -0.049149  0.003815  3.996777  0.005
C  C142  1  0.01663512  0.85171488  0.18733887  1  -0.016236  0.003874  -0.075109  -0.106441  0.00196  3.94689  0.002
C  C143  1  0.99974963  0.80034557  0.14720076  1  -0.034012  0.005013  -0.011309  -0.076503  0.002622  3.948667  0.004
C  C144  1  0.00596237  0.66632579  0.15623364  1  1.581971  0.001616  0.217295  0.584733  0.00094  4.199417  0.0
C  C145  1  0.97261726  0.87489529  0.10039207  1  -0.007454  0.001584  0.002901  0.050607  0.000779  3.969268  0.001
C  C146  1  0.96549936  0.00049327  0.09528968  1  -0.062552  0.000202  -0.092684  -0.13693  -2.2e-05  3.987786  0.0
C  C147  1  0.98437573  0.05053163  0.13531722  1  -0.065052  0.003196  -0.088164  -0.096369  0.001618  3.994398  0.002
C  C148  1  0.96176337  0.82054018  0.05648491  1  -0.007404  -0.000314  -0.003856  0.075324  -0.000449  4.00595  0.0
C  C149  1  0.07064230  0.69943463  0.04264447  1  -0.035901  0.000386  -0.088965  -0.126345  8.8e-05  3.968893  0.0
C  C150  1  0.06526767  0.64994848  0.00021410  1  -0.02551  6e-05  -0.082869  -0.080264  -0.000169  3.967767  0.0
C  C151  1  0.94891866  0.71890665  0.97107156  1  -0.092933  0.00513  -0.022794  -0.046963  0.00268  3.981213  0.004
C  C152  1  0.94950596  0.66966538  0.92327089  1  1.574205  0.000976  0.20746  0.573717  0.000306  4.206574  0.001
C  C153  1  0.83773681  0.83800512  0.98540096  1  -0.044556  0.000377  -0.0868  -0.099177  2.2e-05  4.006609  0.0
C  C154  1  0.84527510  0.88921043  0.02724681  1  -0.040741  0.000622  -0.092524  -0.140459  0.000283  3.985086  0.0
C  C155  1  0.44585518  0.08960931  0.24055568  1  0.49271  -0.00392  0.047978  0.100122  -0.004622  3.960693  -0.003
C  C156  1  0.58486584  0.99818775  0.22282324  1  -0.024342  0.004448  -0.0839  -0.125093  0.002227  3.967119  0.003
C  C157  1  0.59901384  0.93320702  0.18190113  1  -0.044724  -0.005574  -0.066304  -0.021316  -0.00612  3.937357  -0.003
C  C158  1  0.47270159  0.96607548  0.15935375  1  -0.014583  0.004296  -0.08769  -0.128286  0.002109  3.971629  0.003
C  C159  1  0.33837183  0.06058917  0.17850483  1  0.446203  -0.003337  0.045251  0.104904  -0.004076  3.91969  -0.002
C  C160  1  0.91232162  0.82728083  0.41261621  1  0.462298  -0.010978  0.050306  0.100073  -0.012296  3.919949  -0.007
C  C161  1  0.83014597  0.75738316  0.43468244  1  -0.034557  0.006487  -0.086832  -0.144661  0.003035  4.000276  0.005
C  C162  1  0.72322375  0.75697165  0.40890849  1  -0.092697  -0.014746  -0.072992  -0.038752  -0.015957  3.974988  -0.009
C  C163  1  0.70247487  0.82658944  0.36165938  1  -0.00706  0.006584  -0.08747  -0.130299  0.003026  3.969869  0.005
C  C164  1  0.78985405  0.89300650  0.34217627  1  0.444879  -0.008679  0.045677  0.088601  -0.009364  3.944642  -0.005
C  C165  1  0.78152243  0.46892188  0.27399857  1  1.548146  -0.003074  0.22115  0.590985  -0.004802  4.147963  -0.001
C  C166  1  0.66738744  0.52356791  0.31764659  1  -0.03131  0.007677  -0.02289  -0.050399  0.003908  4.000994  0.006
C  C167  1  0.55492423  0.64857145  0.31191696  1  -0.041254  0.001143  -0.076269  -0.107302  0.000105  3.945401  0.001
C  C168  1  0.44634929  0.70077076  0.35200371  1  -0.043426  0.006056  -0.009461  -0.071042  0.00314  3.942493  0.005
C  C169  1  0.32712696  0.83448633  0.34276641  1  1.597151  0.000336  0.214976  0.58171  -0.000228  4.202208  0.0
C  C170  1  0.44741910  0.62749940  0.39914337  1  -0.023744  -0.002271  0.002461  0.050064  -0.002516  3.967336  -0.002
C  C171  1  0.56182630  0.50261575  0.40471037  1  -0.071851  0.001153  -0.09321  -0.137842  0.000493  3.996353  0.001
C  C172  1  0.67123979  0.45194546  0.36481893  1  -0.048225  -0.000348  -0.090703  -0.102527  -0.000861  4.002145  0.0
C  C173  1  0.33785465  0.68203791  0.44302613  1  0.02446  -0.000227  -0.00425  0.075222  -0.000338  4.002066  0.0
C  C174  1  0.31115124  0.80339623  0.45674403  1  -0.04581  -0.000138  -0.088078  -0.12682  -0.000275  3.965263  0.0
C  C175  1  0.21441206  0.85229084  0.49942657  1  -0.022612  4e-06  -0.082358  -0.077929  -0.000215  3.962484  0.0
C  C176  1  0.13896591  0.78261547  0.52889758  1  -0.052404  0.004656  -0.022465  -0.045056  0.002466  3.977582  0.004
C  C177  1  0.04300626  0.83138541  0.57686474  1  1.55271  0.000992  0.206782  0.57206  0.000308  4.208675  0.001
C  C178  1  0.16153608  0.66338333  0.51463025  1  -0.063432  0.00047  -0.085973  -0.099859  0.000105  4.00995  0.0
C  C179  1  0.26168412  0.61271510  0.47257111  1  -0.063081  0.000155  -0.092624  -0.140789  4e-06  3.985739  0.0
C  C180  1  0.27634264  0.40816277  0.25935312  1  0.464794  -0.005021  0.046342  0.096655  -0.00564  3.961211  -0.003
C  C181  1  0.30519280  0.50049857  0.27677532  1  -0.014084  0.005347  -0.084742  -0.125911  0.002585  3.970619  0.004
C  C182  1  0.21278413  0.56592410  0.31756664  1  -0.11024  -0.007923  -0.065452  -0.019241  -0.008671  3.934501  -0.005
C  C183  1  0.09719718  0.53241354  0.34028590  1  0.086324  0.004971  -0.087395  -0.128768  0.002417  3.97021  0.004
C  C184  1  0.07727352  0.43720888  0.32139847  1  0.411307  -0.005095  0.045304  0.106363  -0.006085  3.916829  -0.003
C  C185  1  0.65008223  0.67156259  0.08692577  1  0.425587  -0.006709  0.050227  0.097429  -0.007419  3.924726  -0.004
C  C186  1  0.51995958  0.74068463  0.06502264  1  0.013827  0.005748  -0.086821  -0.144385  0.002713  4.000058  0.005
C  C187  1  0.38700021  0.74145009  0.09134221  1  -0.059315  -0.010221  -0.071759  -0.035395  -0.01111  3.970333  -0.006
C  C188  1  0.38898466  0.67270980  0.13878801  1  -0.034678  0.005191  -0.086142  -0.130271  0.002486  3.965832  0.004
C  C189  1  0.52352417  0.60675803  0.15803947  1  0.440658  -0.006334  0.048474  0.092127  -0.007371  3.938298  -0.004
N  N190  1  0.67786375  0.87582818  0.78068124  1  -1.237849  0.059789  -0.327176  -0.269519  0.031936  3.551381  0.05
N  N191  1  0.10806480  0.10861778  0.63298931  1  -1.237394  0.061506  -0.328403  -0.242462  0.032734  3.571462  0.051
N  N192  1  0.83477236  0.62422933  0.71946172  1  -1.228964  0.059646  -0.327637  -0.269943  0.031849  3.548335  0.05
N  N193  1  0.34884327  0.39250277  0.86705905  1  -1.222579  0.061665  -0.329001  -0.242422  0.032835  3.571081  0.051
N  N194  1  0.32325665  0.12094151  0.21907876  1  -1.233517  0.058446  -0.327401  -0.269373  0.030843  3.562275  0.051
N  N195  1  0.89234171  0.89429214  0.36701154  1  -1.218284  0.062576  -0.32852  -0.244451  0.032901  3.572879  0.054
N  N196  1  0.16376927  0.37639418  0.28096262  1  -1.229594  0.06091  -0.327569  -0.268607  0.032369  3.557825  0.052
N  N197  1  0.65177465  0.60542287  0.13274878  1  -1.223392  0.062832  -0.328863  -0.241506  0.033203  3.576125  0.053
O  O198  1  0.98837882  0.84978935  0.78126131  1  -1.180841  0.052301  -0.310416  -0.566969  0.026677  2.410097  0.045
O  O199  1  0.95258548  0.03893051  0.73345856  1  -1.154087  0.082417  -0.302199  -0.530661  0.042586  2.365788  0.069
O  O200  1  0.88469064  0.42108229  0.82354900  1  -1.17633  0.007983  -0.305282  -0.526736  0.003434  2.195824  0.007
O  O201  1  0.10252496  0.34466985  0.85571869  1  -1.150127  0.070839  -0.310971  -0.567948  0.03671  2.388599  0.06
O  O202  1  0.16751932  0.27872554  0.09766330  1  -1.179751  0.005977  -0.32292  -0.541407  0.002455  2.159963  0.005
O  O203  1  0.92603387  0.41682167  0.09392762  1  -1.1782  0.068867  -0.328006  -0.60027  0.035713  2.380332  0.056
O  O204  1  0.20314356  0.84228519  0.68281901  1  -1.247909  0.048261  -0.569493  -0.755332  0.024566  2.102606  0.04
O  O205  1  0.86979422  0.87549847  0.68303829  1  -1.279721  0.10143  -0.563093  -0.812947  0.054251  2.394961  0.087
O  O206  1  0.11953925  0.65114886  0.71902999  1  -1.192783  0.052705  -0.310564  -0.565816  0.026856  2.409141  0.045
O  O207  1  0.22427570  0.46196250  0.76679774  1  -1.153332  0.082789  -0.30179  -0.529682  0.042752  2.366487  0.069
O  O208  1  0.62895158  0.07903041  0.67680644  1  -1.167196  0.008077  -0.305801  -0.52667  0.003481  2.193475  0.007
O  O209  1  0.80252977  0.15574228  0.64468731  1  -1.145421  0.070846  -0.310605  -0.56773  0.036703  2.392122  0.06
O  O210  1  0.04031364  0.22237022  0.40172096  1  -1.17423  0.006191  -0.323901  -0.543761  0.002614  2.173871  0.005
O  O211  1  0.95229312  0.06915795  0.40965655  1  -1.170252  0.063717  -0.324916  -0.596398  0.032808  2.378579  0.053
O  O212  1  0.22731899  0.65864320  0.81723540  1  -1.206869  0.048125  -0.569606  -0.757371  0.024535  2.103637  0.04
O  O213  1  0.92737996  0.62529954  0.81700519  1  -1.269863  0.10067  -0.562676  -0.811388  0.05397  2.39335  0.086
O  O214  1  0.01375856  0.14669988  0.21955120  1  -1.185846  0.051377  -0.308447  -0.567134  0.026225  2.408564  0.042
O  O215  1  0.05077521  0.95562883  0.26635350  1  -1.154683  0.062744  -0.30495  -0.541106  0.032008  2.336928  0.051
O  O216  1  0.11475744  0.57801123  0.17618875  1  -1.177302  0.009087  -0.304773  -0.525484  0.003953  2.198367  0.008
O  O217  1  0.89784704  0.65377185  0.14360996  1  -1.155512  0.071994  -0.310793  -0.566553  0.03733  2.394031  0.06
O  O218  1  0.83286793  0.72057639  0.90199013  1  -1.178543  0.007731  -0.322117  -0.540113  0.003382  2.160876  0.006
O  O219  1  0.07392641  0.58172233  0.90611780  1  -1.172833  0.07146  -0.327532  -0.599148  0.037194  2.379243  0.059
O  O220  1  0.80411590  0.16259341  0.31876470  1  -1.238545  0.056315  -0.567034  -0.757769  0.02945  2.137621  0.044
O  O221  1  0.13093488  0.12820680  0.31699718  1  -1.267825  0.109287  -0.56142  -0.807831  0.058878  2.380939  0.09
O  O222  1  0.87946315  0.35206969  0.28085035  1  -1.195966  0.041559  -0.309994  -0.569871  0.021322  2.41163  0.035
O  O223  1  0.77444189  0.54078279  0.23300478  1  -1.15362  0.077327  -0.304563  -0.535405  0.039972  2.363963  0.064
O  O224  1  0.36832648  0.92329754  0.32374392  1  -1.173912  0.004661  -0.309578  -0.531729  0.001797  2.198181  0.004
O  O225  1  0.19414315  0.84629688  0.35439213  1  -1.155857  0.06782  -0.306167  -0.560991  0.034628  2.386075  0.059
O  O226  1  0.95604423  0.78026801  0.59827482  1  -1.169624  0.007819  -0.321527  -0.538744  0.003423  2.163412  0.006
O  O227  1  0.06234147  0.91920682  0.59404985  1  -1.171288  0.071706  -0.326582  -0.59796  0.037326  2.381054  0.059
O  O228  1  0.77551339  0.34001755  0.18351611  1  -1.209805  0.048696  -0.56896  -0.755406  0.024895  2.109136  0.04
O  O229  1  0.07695838  0.37137760  0.18305095  1  -1.26703  0.106543  -0.56236  -0.807264  0.057506  2.380946  0.088
