# generated using pymatgen
data_AgH7C8O3
_symmetry_space_group_name_H-M   'P 1'
_cell_length_a   4.72706900
_cell_length_b   10.17720341
_cell_length_c   16.33842819
_cell_angle_alpha   96.56316818
_cell_angle_beta   89.99935667
_cell_angle_gamma   90.00078961
_symmetry_Int_Tables_number   1
_chemical_formula_structural   AgH7C8O3
_chemical_formula_sum   'Ag4 H28 C32 O12'
_cell_volume   780.86351390
_cell_formula_units_Z   4
loop_
 _symmetry_equiv_pos_site_id
 _symmetry_equiv_pos_as_xyz
  1  'x, y, z'
loop_
 _atom_site_type_symbol
 _atom_site_label
 _atom_site_symmetry_multiplicity
 _atom_site_fract_x
 _atom_site_fract_y
 _atom_site_fract_z
 _atom_site_occupancy
 _atom_site_hle17_bader_spin_density
 _atom_site_hle17_ddec_charge
 _atom_site_hle17_ddec_spin_density
 _atom_site_hle17_ddec_sum_bond_order
 _atom_site_hle17_magmom
 _atom_site_hse06_10hf_bader_spin_density
 _atom_site_hse06_10hf_ddec_charge
 _atom_site_hse06_10hf_ddec_spin_density
 _atom_site_hse06_10hf_ddec_sum_bond_order
 _atom_site_hse06_10hf_magmom
 _atom_site_hse06_bader_spin_density
 _atom_site_hse06_ddec_charge
 _atom_site_hse06_ddec_spin_density
 _atom_site_hse06_ddec_sum_bond_order
 _atom_site_hse06_magmom
 _atom_site_pbe_bader_spin_density
 _atom_site_pbe_cm5_charge
 _atom_site_pbe_ddec_charge
 _atom_site_pbe_ddec_spin_density
 _atom_site_pbe_ddec_sum_bond_order
 _atom_site_pbe_magmom
Ag  Ag0  1  0.01208530  0.38237643  0.53428626  1  0  0.592549  0  1.444403  0  0  0.468965  0  1.924103  0  0  0.506239  0  1.857606  0  0  0.413385  0.442898  0  1.970096  0
Ag  Ag1  1  0.51208386  0.11762566  0.46571210  1  0  0.592582  0  1.44436  0  0  0.468996  0  1.924064  0  0  0.506271  0  1.857562  0  0  0.413407  0.442929  0  1.970062  0
Ag  Ag2  1  0.98791044  0.61762687  0.46571363  1  0  0.592563  0  1.444412  0  0  0.468987  0  1.924117  0  0  0.506261  0  1.857618  0  0  0.413399  0.442924  0  1.970114  0
Ag  Ag3  1  0.48789919  0.88237365  0.53428569  1  0  0.592545  0  1.444355  0  0  0.468993  0  1.924057  0  0  0.50627  0  1.857556  0  0  0.413407  0.442926  0  1.970051  0
H  H4  1  0.07146749  0.20695060  0.35908301  1  0  0.390055  0  0.861121  0  0  0.365854  0  0.933992  0  0  0.375332  0  0.922959  0  0  0.307962  0.359294  0  0.941537  0
H  H5  1  0.57145814  0.29304888  0.64091559  1  0  0.390051  0  0.861129  0  0  0.365893  0  0.933968  0  0  0.375372  0  0.922929  0  0  0.307957  0.359332  0  0.941515  0
H  H6  1  0.92853037  0.79305266  0.64091504  1  0  0.390077  0  0.861133  0  0  0.365882  0  0.933982  0  0  0.37536  0  0.922953  0  0  0.307984  0.359322  0  0.941528  0
H  H7  1  0.42853760  0.70695342  0.35908362  1  0  0.390081  0  0.861096  0  0  0.365919  0  0.933919  0  0  0.375398  0  0.922881  0  0  0.307982  0.359359  0  0.941465  0
H  H8  1  0.16953331  0.50908033  0.21966649  1  0  0.097852  0  0.962644  0  0  0.106956  0  1.028082  0  0  0.109534  0  1.027652  0  0  0.099758  0.104945  0  1.028772  0
H  H9  1  0.66949484  0.99092723  0.78033493  1  0  0.097761  0  0.9627  0  0  0.106859  0  1.028145  0  0  0.109438  0  1.027712  0  0  0.099693  0.104851  0  1.028835  0
H  H10  1  0.83050262  0.49092795  0.78033555  1  0  0.097825  0  0.96268  0  0  0.106922  0  1.028123  0  0  0.109502  0  1.027689  0  0  0.099719  0.104913  0  1.028816  0
H  H11  1  0.33049456  0.00907608  0.21966557  1  0  0.097783  0  0.962709  0  0  0.106883  0  1.028145  0  0  0.10946  0  1.027714  0  0  0.099697  0.104876  0  1.028836  0
H  H12  1  0.30007563  0.49513278  0.07177488  1  0  0.08021  0  0.95833  0  0  0.093472  0  1.015979  0  0  0.09602  0  1.015102  0  0  0.097682  0.09159  0  1.016809  0
H  H13  1  0.80005085  0.00486412  0.92822466  1  0  0.080224  0  0.958339  0  0  0.093556  0  1.015922  0  0  0.096103  0  1.015043  0  0  0.097681  0.091671  0  1.016756  0
H  H14  1  0.69993915  0.50486460  0.92822585  1  0  0.080244  0  0.958367  0  0  0.093523  0  1.015998  0  0  0.096072  0  1.015118  0  0  0.097677  0.091641  0  1.016827  0
H  H15  1  0.19994066  0.99513919  0.07177584  1  0  0.080224  0  0.958374  0  0  0.093538  0  1.015972  0  0  0.096077  0  1.015102  0  0  0.097674  0.091653  0  1.016806  0
H  H16  1  0.64966930  0.32473532  0.01283325  1  0  0.077565  0  0.978266  0  0  0.086807  0  1.045371  0  0  0.089249  0  1.0447  0  0  0.093841  0.085056  0  1.045904  0
H  H17  1  0.14967037  0.17525572  0.98716455  1  0  0.077611  0  0.978124  0  0  0.086871  0  1.045209  0  0  0.089311  0  1.044539  0  0  0.093873  0.08512  0  1.045743  0
H  H18  1  0.35032432  0.67525609  0.98716525  1  0  0.077552  0  0.978169  0  0  0.086813  0  1.045255  0  0  0.089254  0  1.044584  0  0  0.093857  0.085062  0  1.045789  0
H  H19  1  0.85032537  0.82474562  0.01283643  1  0  0.077583  0  0.978126  0  0  0.08686  0  1.045193  0  0  0.0893  0  1.044522  0  0  0.09388  0.085108  0  1.045725  0
H  H20  1  0.85065023  0.16584846  0.10198810  1  0  0.077895  0  0.981855  0  0  0.088057  0  1.045861  0  0  0.090132  0  1.046024  0  0  0.094393  0.08649  0  1.045966  0
H  H21  1  0.35064888  0.33414675  0.89801056  1  0  0.077813  0  0.981895  0  0  0.087976  0  1.045917  0  0  0.090051  0  1.04608  0  0  0.094336  0.086408  0  1.046023  0
H  H22  1  0.14934340  0.83414098  0.89800967  1  0  0.077832  0  0.981889  0  0  0.088005  0  1.045896  0  0  0.09008  0  1.04606  0  0  0.094367  0.086436  0  1.046002  0
H  H23  1  0.64934897  0.66585360  0.10199036  1  0  0.077836  0  0.981877  0  0  0.087989  0  1.045908  0  0  0.090064  0  1.046073  0  0  0.094344  0.086419  0  1.046016  0
H  H24  1  0.70869701  0.17584410  0.24825587  1  0  0.101407  0  0.943699  0  0  0.11374  0  1.002764  0  0  0.116975  0  1.001099  0  0  0.102468  0.111394  0  1.004138  0
H  H25  1  0.20868621  0.32415820  0.75174432  1  0  0.101446  0  0.943592  0  0  0.11373  0  1.002721  0  0  0.116965  0  1.001054  0  0  0.10241  0.111383  0  1.004094  0
H  H26  1  0.29130508  0.82414929  0.75174215  1  0  0.101395  0  0.943617  0  0  0.113695  0  1.002722  0  0  0.116931  0  1.001055  0  0  0.102409  0.111345  0  1.0041  0
H  H27  1  0.79131165  0.67584314  0.24825667  1  0  0.101423  0  0.943638  0  0  0.113719  0  1.002752  0  0  0.116955  0  1.001087  0  0  0.102412  0.111372  0  1.004126  0
H  H28  1  0.16129605  0.41377337  0.34490050  1  0  0.058508  0  0.951205  0  0  0.065548  0  1.023498  0  0  0.067518  0  1.020362  0  0  0.106837  0.063855  0  1.026319  0
H  H29  1  0.66128001  0.08622567  0.65509901  1  0  0.058536  0  0.951243  0  0  0.065548  0  1.023509  0  0  0.067528  0  1.020367  0  0  0.106828  0.063853  0  1.026331  0
H  H30  1  0.83871239  0.58622791  0.65509681  1  0  0.058517  0  0.951212  0  0  0.065535  0  1.023518  0  0  0.067509  0  1.020376  0  0  0.106811  0.06384  0  1.026339  0
H  H31  1  0.33871150  0.91377666  0.34490265  1  0  0.058525  0  0.951304  0  0  0.065548  0  1.023595  0  0  0.067522  0  1.020456  0  0  0.106817  0.063855  0  1.026414  0
C  C32  1  0.43095455  0.34371213  0.24326001  1  0  0.041401  0  3.737116  0  0  0.062122  0  3.965676  0  0  0.060709  0  3.990604  0  0  -0.018486  0.062933  0  3.948781  0
C  C33  1  0.93093455  0.15629347  0.75674089  1  0  0.041532  0  3.737272  0  0  0.062112  0  3.965941  0  0  0.060706  0  3.990872  0  0  -0.018556  0.062921  0  3.949045  0
C  C34  1  0.56906234  0.65628922  0.75674159  1  0  0.041553  0  3.73711  0  0  0.062205  0  3.965718  0  0  0.060795  0  3.990647  0  0  -0.018578  0.06301  0  3.948822  0
C  C35  1  0.06906330  0.84370982  0.24325900  1  0  0.041534  0  3.737182  0  0  0.062143  0  3.96586  0  0  0.060734  0  3.990789  0  0  -0.01858  0.062951  0  3.948966  0
C  C36  1  0.31870759  0.43396226  0.19359544  1  0  -0.102539  0  3.734342  0  0  -0.123692  0  3.977463  0  0  -0.126249  0  4.000019  0  0  -0.090409  -0.121783  0  3.962246  0
C  C37  1  0.81867876  0.06603774  0.80640547  1  0  -0.102318  0  3.734157  0  0  -0.123424  0  3.977306  0  0  -0.12598  0  3.99986  0  0  -0.090198  -0.121521  0  3.96209  0
C  C38  1  0.68131354  0.56603909  0.80640616  1  0  -0.102447  0  3.734234  0  0  -0.123568  0  3.977339  0  0  -0.126126  0  3.999897  0  0  -0.090255  -0.121662  0  3.962123  0
C  C39  1  0.18131698  0.93396161  0.19359416  1  0  -0.10241  0  3.734229  0  0  -0.123518  0  3.977368  0  0  -0.126075  0  3.99992  0  0  -0.090225  -0.121616  0  3.962154  0
C  C40  1  0.39525969  0.42675045  0.11063283  1  0  -0.072022  0  3.792892  0  0  -0.081327  0  4.036965  0  0  -0.083516  0  4.059099  0  0  -0.092922  -0.079731  0  4.021859  0
C  C41  1  0.89524691  0.07324902  0.88936841  1  0  -0.072173  0  3.793025  0  0  -0.081545  0  4.037099  0  0  -0.083735  0  4.059238  0  0  -0.092977  -0.079948  0  4.021992  0
C  C42  1  0.60474874  0.57324991  0.88936871  1  0  -0.072155  0  3.793038  0  0  -0.08148  0  4.037109  0  0  -0.083671  0  4.059244  0  0  -0.092932  -0.079885  0  4.022002  0
C  C43  1  0.10475306  0.92675330  0.11063203  1  0  -0.07215  0  3.792968  0  0  -0.081506  0  4.037049  0  0  -0.083689  0  4.059186  0  0  -0.092961  -0.07991  0  4.021944  0
C  C44  1  0.58751758  0.33083423  0.07742776  1  0  -0.08677  0  3.796452  0  0  -0.100999  0  4.043114  0  0  -0.103231  0  4.065372  0  0  -0.096858  -0.099335  0  4.027727  0
C  C45  1  0.08750827  0.16916040  0.92256987  1  0  -0.086783  0  3.796434  0  0  -0.101038  0  4.043121  0  0  -0.103269  0  4.065378  0  0  -0.096898  -0.099373  0  4.02773  0
C  C46  1  0.41248662  0.66915916  0.92257026  1  0  -0.08667  0  3.796272  0  0  -0.10092  0  4.042947  0  0  -0.103151  0  4.065204  0  0  -0.096857  -0.099257  0  4.027558  0
C  C47  1  0.91248747  0.83083994  0.07743044  1  0  -0.08668  0  3.796352  0  0  -0.100944  0  4.043024  0  0  -0.103174  0  4.065276  0  0  -0.096872  -0.099277  0  4.027631  0
C  C48  1  0.70098729  0.24116445  0.12723834  1  0  -0.069147  0  3.798935  0  0  -0.078903  0  4.043178  0  0  -0.081291  0  4.066486  0  0  -0.09327  -0.077075  0  4.027289  0
C  C49  1  0.20097622  0.25883186  0.87276148  1  0  -0.069089  0  3.798959  0  0  -0.078835  0  4.043181  0  0  -0.08122  0  4.066487  0  0  -0.093207  -0.077006  0  4.027291  0
C  C50  1  0.29901691  0.75882796  0.87276084  1  0  -0.06913  0  3.79882  0  0  -0.078886  0  4.043073  0  0  -0.081272  0  4.066378  0  0  -0.093267  -0.077057  0  4.027181  0
C  C51  1  0.79902163  0.74117044  0.12723834  1  0  -0.06921  0  3.798849  0  0  -0.078949  0  4.043107  0  0  -0.081337  0  4.066415  0  0  -0.093259  -0.07712  0  4.027217  0
C  C52  1  0.62301358  0.24726433  0.20981112  1  0  -0.100687  0  3.71973  0  0  -0.121318  0  3.961672  0  0  -0.123707  0  3.982778  0  0  -0.092981  -0.119642  0  3.947464  0
C  C53  1  0.12299494  0.25273546  0.79018735  1  0  -0.10079  0  3.719923  0  0  -0.121362  0  3.961924  0  0  -0.12375  0  3.983024  0  0  -0.092939  -0.119683  0  3.947713  0
C  C54  1  0.37699697  0.75273005  0.79018697  1  0  -0.100784  0  3.719832  0  0  -0.121386  0  3.96182  0  0  -0.123776  0  3.982924  0  0  -0.092936  -0.119704  0  3.947608  0
C  C55  1  0.87700080  0.74726489  0.20981358  1  0  -0.100714  0  3.71972  0  0  -0.121301  0  3.961715  0  0  -0.12369  0  3.982817  0  0  -0.092916  -0.119621  0  3.947504  0
C  C56  1  0.34345891  0.34702305  0.33269263  1  0  0.078282  0  3.66375  0  0  0.052915  0  3.904714  0  0  0.055121  0  3.912118  0  0  0.000513  0.051415  0  3.899683  0
C  C57  1  0.84344650  0.15297709  0.66730759  1  0  0.078175  0  3.664019  0  0  0.052999  0  3.904791  0  0  0.055174  0  3.912257  0  0  0.000545  0.051499  0  3.899758  0
C  C58  1  0.65654741  0.65297630  0.66730700  1  0  0.078271  0  3.663857  0  0  0.052985  0  3.904719  0  0  0.05518  0  3.912142  0  0  0.000558  0.051486  0  3.899688  0
C  C59  1  0.15654712  0.84702622  0.33269292  1  0  0.078284  0  3.663671  0  0  0.052996  0  3.90458  0  0  0.055188  0  3.912012  0  0  0.000645  0.051498  0  3.899549  0
C  C60  1  0.58503334  0.40532959  0.38873479  1  0  0.61681  0  3.873953  0  0  0.561728  0  4.168144  0  0  0.595505  0  4.165309  0  0  0.204454  0.538658  0  4.169333  0
C  C61  1  0.08502115  0.09467490  0.61126288  1  0  0.616834  0  3.873995  0  0  0.561715  0  4.168208  0  0  0.595497  0  4.165368  0  0  0.204437  0.538648  0  4.169394  0
C  C62  1  0.41496875  0.59466979  0.61126729  1  0  0.616692  0  3.874219  0  0  0.561593  0  4.168386  0  0  0.595373  0  4.165549  0  0  0.204407  0.538524  0  4.169572  0
C  C63  1  0.91496825  0.90532838  0.38873579  1  0  0.616903  0  3.873952  0  0  0.56182  0  4.168137  0  0  0.5956  0  4.165297  0  0  0.204472  0.53875  0  4.169327  0
O  O64  1  0.72697983  0.32600973  0.42795891  1  0  -0.630483  0  2.224514  0  0  -0.536934  0  2.510029  0  0  -0.571333  0  2.496762  0  0  -0.326779  -0.513019  0  2.51816  0
O  O65  1  0.22696093  0.17399458  0.57203707  1  0  -0.630449  0  2.224479  0  0  -0.536896  0  2.510033  0  0  -0.571292  0  2.49676  0  0  -0.32678  -0.512984  0  2.518161  0
O  O66  1  0.27302438  0.67398862  0.57204066  1  0  -0.630458  0  2.224579  0  0  -0.536906  0  2.510092  0  0  -0.571304  0  2.496821  0  0  -0.326762  -0.512993  0  2.518222  0
O  O67  1  0.77302212  0.82600768  0.42795970  1  0  -0.630504  0  2.224522  0  0  -0.536985  0  2.510077  0  0  -0.571381  0  2.496802  0  0  -0.326803  -0.513072  0  2.518209  0
O  O68  1  0.62959763  0.52801613  0.38993922  1  0  -0.594529  0  2.110949  0  0  -0.521181  0  2.385294  0  0  -0.553089  0  2.374706  0  0  -0.311966  -0.49917  0  2.391939  0
O  O69  1  0.12959035  0.97198819  0.61006028  1  0  -0.594497  0  2.110967  0  0  -0.52119  0  2.385345  0  0  -0.553113  0  2.374792  0  0  -0.311936  -0.499168  0  2.391964  0
O  O70  1  0.37039599  0.47198329  0.61006531  1  0  -0.594528  0  2.111115  0  0  -0.52116  0  2.385445  0  0  -0.553072  0  2.374863  0  0  -0.311952  -0.499137  0  2.392059  0
O  O71  1  0.87040328  0.02801510  0.38993961  1  0  -0.594623  0  2.111073  0  0  -0.521244  0  2.385359  0  0  -0.553153  0  2.374768  0  0  -0.311967  -0.499232  0  2.392002  0
O  O72  1  0.27537426  0.21664950  0.35147405  1  0  -0.556344  0  2.174434  0  0  -0.501808  0  2.426367  0  0  -0.51991  0  2.412611  0  0  -0.397631  -0.488771  0  2.435649  0
O  O73  1  0.77536221  0.28335121  0.64852582  1  0  -0.556381  0  2.174512  0  0  -0.501922  0  2.426312  0  0  -0.520026  0  2.412585  0  0  -0.397659  -0.488886  0  2.435595  0
O  O74  1  0.72462571  0.78334980  0.64852313  1  0  -0.556394  0  2.174449  0  0  -0.501859  0  2.426336  0  0  -0.519962  0  2.41259  0  0  -0.397659  -0.488823  0  2.435618  0
O  O75  1  0.22463353  0.71665214  0.35147714  1  0  -0.556484  0  2.174315  0  0  -0.501982  0  2.426172  0  0  -0.52009  0  2.412435  0  0  -0.397745  -0.488945  0  2.435456  0
