# generated using pymatgen
data_V2CuP2H14C12(NO5)2
_symmetry_space_group_name_H-M   'P 1'
_cell_length_a   9.41653956
_cell_length_b   9.74422179
_cell_length_c   12.05514231
_cell_angle_alpha   106.22392465
_cell_angle_beta   105.15211113
_cell_angle_gamma   108.63292767
_symmetry_Int_Tables_number   1
_chemical_formula_structural   V2CuP2H14C12(NO5)2
_chemical_formula_sum   'V4 Cu2 P4 H28 C24 N4 O20'
_cell_volume   928.67900605
_cell_formula_units_Z   2
loop_
 _symmetry_equiv_pos_site_id
 _symmetry_equiv_pos_as_xyz
  1  'x, y, z'
loop_
 _atom_site_type_symbol
 _atom_site_label
 _atom_site_symmetry_multiplicity
 _atom_site_fract_x
 _atom_site_fract_y
 _atom_site_fract_z
 _atom_site_occupancy
 _atom_site_hle17_ddec_charge
 _atom_site_hle17_ddec_spin_density
 _atom_site_hle17_ddec_sum_bond_order
 _atom_site_hle17_magmom
 _atom_site_hse06_10hf_ddec_charge
 _atom_site_hse06_10hf_ddec_spin_density
 _atom_site_hse06_10hf_ddec_sum_bond_order
 _atom_site_hse06_10hf_magmom
 _atom_site_hse06_ddec_charge
 _atom_site_hse06_ddec_spin_density
 _atom_site_hse06_ddec_sum_bond_order
 _atom_site_hse06_magmom
 _atom_site_pbe_cm5_charge
 _atom_site_pbe_ddec_charge
 _atom_site_pbe_ddec_spin_density
 _atom_site_pbe_ddec_sum_bond_order
 _atom_site_pbe_magmom
V  V0  1  0.21311802  0.14339763  0.88555320  1  2.040886  0.017296  2.778276  0.015  2.107431  0.007706  3.131118  0.007  2.299969  0.007426  2.929309  0.006  1.513786  2.043909  0.008417  3.142369  0.007
V  V1  1  0.82774825  0.25815350  0.11463499  1  2.039395  0.017281  2.779561  0.015  2.10543  0.007705  3.133009  0.007  2.297483  0.007417  2.932353  0.006  1.513386  2.041134  0.007767  3.14551  0.007
V  V2  1  0.01392601  0.05042455  0.04958678  1  2.027361  0.003699  2.797537  0.003  2.085858  0.00016  3.157356  0.0  2.273695  0.000444  2.961928  0.0  1.515858  2.02443  -0.000306  3.16757  0.0
V  V3  1  0.46453603  0.00119954  0.95070602  1  2.025588  0.003679  2.7995  0.003  2.084209  0.000161  3.159491  0.0  2.272048  0.000421  2.964119  0.0  1.515335  2.022509  -0.000446  3.17005  -0.001
Cu  Cu4  1  0.90592329  0.22283313  0.70607583  1  0.946164  -0.710818  1.831915  -0.53  0.936131  -0.792309  2.221878  -0.644  1.016152  -0.854504  2.157062  -0.727  0.774541  0.886805  -0.745788  2.268386  -0.587
Cu  Cu5  1  0.69966478  0.51672453  0.29392553  1  0.945007  -0.711523  1.834111  -0.53  0.934649  -0.792976  2.223827  -0.644  1.028016  -0.855202  2.135393  -0.727  0.775374  0.88622  -0.747072  2.269663  -0.587
P  P6  1  0.70227308  0.99764396  0.80511979  1  1.614083  -0.001156  4.707083  0.0  1.48733  -0.003456  5.207537  -0.002  1.548534  -0.002353  5.166386  -0.002  0.352813  1.445727  -0.004221  5.241076  -0.002
P  P7  1  0.39725825  0.19286114  0.19507215  1  1.614565  -0.001141  4.704111  0.0  1.487107  -0.003428  5.205126  -0.002  1.54807  -0.002346  5.165282  -0.002  0.353048  1.445672  -0.004259  5.238518  -0.002
P  P8  1  0.08445589  0.41084980  0.00462391  1  1.620672  -0.001702  4.673158  0.0  1.500424  -0.003815  5.166418  -0.002  1.562217  -0.002596  5.125729  -0.002  0.358102  1.458513  -0.004621  5.199715  -0.002
P  P9  1  0.57978683  0.40628220  0.99536472  1  1.619759  -0.001716  4.673732  0.0  1.498992  -0.003796  5.167422  -0.002  1.560684  -0.002595  5.127674  -0.002  0.357311  1.457108  -0.004672  5.2007  -0.003
H  H10  1  0.22189611  0.52415512  0.82062318  1  0.103927  -0.001584  0.938767  -0.003  0.111651  -0.001266  0.999931  -0.002  0.11339  -0.000834  0.997504  -0.002  0.128275  0.110155  -0.001606  1.001662  -0.003
H  H11  1  0.90075747  0.70276628  0.17912594  1  0.103293  -0.001586  0.940666  -0.003  0.111751  -0.001269  1.000871  -0.002  0.113528  -0.000838  0.99844  -0.002  0.128658  0.110206  -0.001605  1.002682  -0.003
H  H12  1  0.41740105  0.66131466  0.73908260  1  0.120187  -0.000601  0.969305  0.0  0.129066  -0.000535  1.029723  0.0  0.131565  -0.000375  1.030094  0.0  0.113931  0.126915  -0.000587  1.030037  -0.001
H  H13  1  0.17768872  0.92146950  0.26036010  1  0.120539  -0.0006  0.969901  0.0  0.129502  -0.000535  1.030135  0.0  0.132022  -0.000375  1.030431  0.0  0.114175  0.127374  -0.000596  1.030423  -0.001
H  H14  1  0.36039877  0.53907508  0.50780333  1  0.095168  -0.000254  0.931662  0.0  0.110445  -0.0  0.982  0.0  0.112478  5e-05  0.980963  0.0  0.111602  0.109032  -5.8e-05  0.982385  0.0
H  H15  1  0.35208084  0.03103862  0.49162462  1  0.095156  -0.000253  0.932175  0.0  0.110139  1e-06  0.982786  0.0  0.112179  5.1e-05  0.981749  0.0  0.111642  0.108793  -5.5e-05  0.983074  0.0
H  H16  1  0.11322731  0.28918214  0.37117529  1  0.145594  -0.000853  0.954404  -0.001  0.157076  -0.000667  1.007264  -0.001  0.16184  -0.000445  1.003983  -0.001  0.119594  0.153902  -0.000835  1.009217  -0.001
H  H17  1  0.24183949  0.91803633  0.62851436  1  0.145472  -0.000853  0.95342  -0.001  0.15656  -0.000668  1.006932  -0.001  0.16129  -0.000446  1.003714  -0.001  0.119478  0.153414  -0.000858  1.008914  -0.001
H  H18  1  0.91387896  0.06529199  0.27584712  1  0.132601  -0.000828  0.97902  -0.001  0.139217  -0.000635  1.042651  -0.001  0.143164  -0.000428  1.041176  -0.001  0.119005  0.136228  -0.000787  1.044585  -0.001
H  H19  1  0.13770980  0.78968016  0.72422497  1  0.133795  -0.000828  0.978992  -0.001  0.140723  -0.000635  1.042099  -0.001  0.144642  -0.000427  1.040643  -0.001  0.119355  0.137808  -0.000817  1.043948  -0.001
H  H20  1  0.67587021  0.80429525  0.18024985  1  0.120415  -0.000274  0.91931  0.0  0.134043  -7e-06  0.969607  0.0  0.137  3.4e-05  0.967051  0.0  0.123154  0.131716  -8.4e-05  0.971583  0.0
H  H21  1  0.99530711  0.62413086  0.81980571  1  0.120448  -0.000272  0.919044  0.0  0.133616  -8e-06  0.969976  0.0  0.136455  3.4e-05  0.967592  0.0  0.122748  0.131306  -6.7e-05  0.97192  0.0
H  H22  1  0.52523604  0.72246924  0.31166902  1  0.106874  -0.000286  0.962034  0.0  0.115615  -0.000184  1.025852  0.0  0.118313  -3.5e-05  1.025072  0.0  0.112661  0.112971  -0.000239  1.028036  -0.001
H  H23  1  0.71358013  0.41046792  0.68821513  1  0.10629  -0.000284  0.96351  0.0  0.115639  -0.000183  1.026539  0.0  0.118637  -3.9e-05  1.024957  0.0  0.112606  0.112935  -0.000313  1.028603  0.0
H  H24  1  0.61361930  0.91617929  0.53266717  1  0.083742  -0.001252  0.965002  -0.003  0.094426  -0.001074  1.023367  -0.002  0.096016  -0.000714  1.022158  -0.002  0.119704  0.093496  -0.001314  1.023148  -0.002
H  H25  1  0.58099094  0.38330062  0.46727889  1  0.08452  -0.001253  0.96495  -0.003  0.094434  -0.001075  1.023972  -0.002  0.096103  -0.000714  1.022774  -0.002  0.12006  0.093538  -0.001393  1.023726  -0.002
H  H26  1  0.21315392  0.69286694  0.06886673  1  0.171353  0.000416  0.936658  0.0  0.191789  6.5e-05  0.987092  0.0  0.195156  4.8e-05  0.985015  0.0  0.106105  0.189532  4.8e-05  0.988378  0.0
H  H27  1  0.64430417  0.62419675  0.93131614  1  0.171224  0.000414  0.938201  0.0  0.191532  6.5e-05  0.988743  0.0  0.194914  4.7e-05  0.986636  0.0  0.106054  0.189191  7.6e-05  0.990098  0.0
H  H28  1  0.35174199  0.60432960  0.05881771  1  0.180346  0.000119  0.931804  0.0  0.199293  -3.3e-05  0.983374  0.0  0.202339  -6e-06  0.981891  0.0  0.109802  0.197254  -6e-05  0.983969  0.0
H  H29  1  0.79293354  0.54576123  0.94123615  1  0.17992  0.000116  0.932054  0.0  0.199165  -3.4e-05  0.98315  0.0  0.202217  -7e-06  0.981696  0.0  0.10963  0.197078  -6.7e-05  0.983747  0.0
H  H30  1  0.28824726  0.62841220  0.18810118  1  0.157632  -0.000686  0.952281  -0.001  0.176569  -0.000559  1.005478  0.0  0.178778  -0.000383  1.005336  0.0  0.102401  0.175338  -0.000646  1.005019  -0.001
H  H31  1  0.60022549  0.44070482  0.81194084  1  0.156939  -0.000679  0.951859  -0.001  0.17575  -0.000554  1.005499  0.0  0.177966  -0.00038  1.005384  0.0  0.101944  0.174434  -0.000684  1.005024  -0.001
H  H32  1  0.83707143  0.85808166  0.71353718  1  0.175704  -9.9e-05  0.966077  0.0  0.192338  -5.3e-05  1.021897  0.0  0.195024  -1.7e-05  1.022121  0.0  0.105554  0.190473  -5.6e-05  1.021836  0.0
H  H33  1  0.62391274  0.14518967  0.28642218  1  0.175658  -9.8e-05  0.965796  0.0  0.192098  -5.2e-05  1.021844  0.0  0.194779  -1.6e-05  1.022071  0.0  0.105495  0.190188  -5.6e-05  1.021906  0.0
H  H34  1  0.62053390  0.75112020  0.63592980  1  0.149711  9e-06  0.96233  0.0  0.167606  -1.1e-05  1.020972  0.0  0.17032  -8e-06  1.020181  0.0  0.098144  0.165997  -1e-06  1.020911  0.0
H  H35  1  0.48517840  0.11560523  0.36415866  1  0.149617  9e-06  0.963086  0.0  0.167363  -1.2e-05  1.021651  0.0  0.170053  -8e-06  1.020851  0.0  0.097799  0.165828  -7e-06  1.021447  0.0
H  H36  1  0.72370745  0.75449396  0.78484797  1  0.169273  0.000135  0.94904  0.0  0.18824  8.1e-05  1.003875  0.0  0.190422  7.3e-05  1.004542  0.0  0.108026  0.1868  8.4e-05  1.003392  0.0
H  H37  1  0.43946459  0.97011266  0.21521913  1  0.169571  0.000134  0.950276  0.0  0.188673  8.1e-05  1.004521  0.0  0.190834  7.3e-05  1.005176  0.0  0.108269  0.187248  7.5e-05  1.004034  0.0
C  C38  1  0.20459602  0.47572634  0.72268389  1  0.157611  0.012284  3.6609  0.009  0.128948  0.003187  3.916719  0.002  0.138563  0.004962  3.934743  0.004  0.064674  0.122587  0.001921  3.904834  0.001
C  C39  1  0.98145634  0.75255997  0.27708456  1  0.158024  0.012366  3.65986  0.009  0.128751  0.003219  3.915313  0.002  0.138221  0.004994  3.934236  0.004  0.064581  0.122479  0.001971  3.903413  0.001
C  C40  1  0.31314178  0.55023921  0.67599218  1  -0.109543  -0.010185  3.691062  -0.011  -0.12329  -0.004385  3.941222  -0.006  -0.131055  -0.00374  3.963672  -0.005  -0.073927  -0.117846  -0.005084  3.925437  -0.006
C  C41  1  0.13666557  0.87375553  0.32360421  1  -0.11  -0.010218  3.692859  -0.011  -0.124248  -0.004387  3.943573  -0.006  -0.131962  -0.003745  3.965907  -0.005  -0.074015  -0.118827  -0.005131  3.927661  -0.006
C  C42  1  0.28008056  0.48315629  0.54851982  1  -0.00669  0.012226  3.722357  0.008  -0.025293  0.004648  3.972147  0.003  -0.022157  0.005102  3.991892  0.003  -0.062738  -0.027359  0.004317  3.957655  0.002
C  C43  1  0.23108189  0.93442040  0.45107064  1  -0.006893  0.01228  3.725125  0.008  -0.02505  0.004655  3.974806  0.003  -0.021905  0.00512  3.994468  0.003  -0.063202  -0.027057  0.004362  3.960241  0.002
C  C44  1  0.14206714  0.34280884  0.47143124  1  -0.121845  -0.006952  3.638121  -0.007  -0.139272  -0.002893  3.876758  -0.003  -0.145633  -0.002538  3.894963  -0.003  -0.067651  -0.134478  -0.003194  3.86384  -0.003
C  C45  1  0.17032178  0.87133161  0.52831103  1  -0.120158  -0.006979  3.640105  -0.007  -0.137742  -0.00289  3.87859  -0.003  -0.143996  -0.002543  3.896758  -0.003  -0.066979  -0.133056  -0.003205  3.86565  -0.003
C  C46  1  0.03949723  0.27402045  0.52510053  1  0.177898  0.005839  3.750259  0.003  0.175007  0.000745  3.993919  0.0  0.18217  0.002302  4.015256  0.001  0.122637  0.170303  -0.00039  3.979406  -0.001
C  C47  1  0.01416611  0.74882631  0.47480895  1  0.174476  0.005869  3.752217  0.003  0.172146  0.000741  3.99449  0.0  0.178925  0.002304  4.017045  0.001  0.121826  0.167646  -0.000362  3.979788  -0.001
C  C48  1  0.89405309  0.12346059  0.45617186  1  0.178228  0.004761  3.749168  0.003  0.17632  0.000771  3.991685  0.0  0.185386  0.00209  4.011088  0.001  0.122636  0.169967  -0.0002  3.978755  -0.001
C  C49  1  0.93773157  0.66730425  0.54386252  1  0.179884  0.004726  3.744714  0.003  0.17815  0.000778  3.986558  0.0  0.187207  0.002096  4.006967  0.001  0.122635  0.171592  -0.000345  3.973852  -0.001
C  C50  1  0.84696081  0.02706078  0.33093993  1  -0.121347  -0.00573  3.639512  -0.006  -0.137991  -0.002471  3.881094  -0.003  -0.144555  -0.002197  3.898317  -0.002  -0.064984  -0.134179  -0.0027  3.869725  -0.003
C  C51  1  0.01580553  0.69625721  0.66914381  1  -0.122399  -0.005699  3.640903  -0.006  -0.139317  -0.002478  3.88211  -0.003  -0.145866  -0.002202  3.899318  -0.002  -0.065273  -0.1354  -0.002757  3.870666  -0.003
C  C52  1  0.71272296  0.88192822  0.27713992  1  0.034643  0.01088  3.65848  0.007  0.013725  0.004401  3.911225  0.002  0.020078  0.004883  3.925411  0.003  -0.048845  0.009836  0.004209  3.901904  0.002
C  C53  1  0.93539154  0.60481558  0.72289556  1  0.034534  0.010837  3.660278  0.007  0.013718  0.004412  3.913414  0.002  0.02029  0.004891  3.927093  0.003  -0.048588  0.009741  0.003988  3.903979  0.002
C  C54  1  0.62856938  0.83658206  0.34969519  1  -0.132305  -0.008148  3.731266  -0.01  -0.154777  -0.003124  4.002205  -0.005  -0.163978  -0.002529  4.02386  -0.004  -0.080163  -0.149616  -0.003849  3.989094  -0.006
C  C55  1  0.77881600  0.48663738  0.65026004  1  -0.13196  -0.008125  3.733959  -0.01  -0.154968  -0.003134  4.00481  -0.005  -0.163595  -0.002549  4.025062  -0.004  -0.080199  -0.149672  -0.003685  3.991435  -0.005
C  C56  1  0.67770659  0.94077696  0.47239129  1  0.135558  0.010807  3.702876  0.008  0.109924  0.003037  3.955548  0.002  0.118871  0.0045  3.97629  0.003  0.049692  0.104579  0.00169  3.940586  0.001
C  C57  1  0.70531850  0.46820953  0.52758477  1  0.135124  0.010754  3.702854  0.008  0.110145  0.003035  3.955328  0.002  0.118842  0.004495  3.977104  0.003  0.049512  0.104913  0.001936  3.940312  0.002
C  C58  1  0.25059039  0.60351189  0.08796426  1  -0.629509  -0.007  3.578858  -0.007  -0.684818  -0.003672  3.801641  -0.004  -0.695614  -0.002414  3.798348  -0.003  -0.24642  -0.676129  -0.005043  3.801419  -0.005
C  C59  1  0.66265211  0.51575152  0.91210783  1  -0.627207  -0.006954  3.579342  -0.007  -0.682623  -0.003655  3.802376  -0.004  -0.693398  -0.002404  3.798957  -0.003  -0.245664  -0.674062  -0.004755  3.802299  -0.005
C  C60  1  0.72209417  0.82324409  0.72682203  1  -0.661699  0.000715  3.635219  0.0  -0.717224  0.000379  3.861741  0.0  -0.728762  0.00042  3.861514  0.0  -0.25274  -0.70879  0.000323  3.860849  0.0
C  C61  1  0.49568193  0.09684273  0.27321134  1  -0.661481  0.000726  3.637092  0.0  -0.716612  0.000393  3.863401  0.0  -0.728143  0.000425  3.863314  0.0  -0.252575  -0.708249  0.000326  3.862463  0.0
N  N62  1  0.80769749  0.08017536  0.52447787  1  -0.337442  -0.078753  3.319799  -0.102  -0.298819  -0.055085  3.613599  -0.076  -0.328464  -0.044011  3.632477  -0.066  -0.344035  -0.280337  -0.06227  3.601931  -0.082
N  N63  1  0.78309625  0.55563917  0.47551380  1  -0.337416  -0.078872  3.317343  -0.102  -0.298758  -0.055196  3.610389  -0.076  -0.33091  -0.044093  3.629607  -0.066  -0.343533  -0.280635  -0.062173  3.598992  -0.082
N  N64  1  0.07080362  0.34257676  0.64853090  1  -0.327775  -0.08821  3.318681  -0.114  -0.286491  -0.06095  3.603949  -0.084  -0.317629  -0.048186  3.627564  -0.072  -0.331827  -0.267712  -0.068942  3.58931  -0.091
N  N65  1  0.92195095  0.69375659  0.35136157  1  -0.326373  -0.088273  3.31932  -0.114  -0.284853  -0.060944  3.604007  -0.084  -0.3182  -0.048199  3.627931  -0.072  -0.331953  -0.266111  -0.068847  3.589249  -0.091
O  O66  1  0.07792865  0.11702167  0.75626888  1  -0.738842  -0.003399  1.42731  -0.007  -0.767671  -0.000365  1.707054  -0.003  -0.819625  -0.000305  1.674435  -0.003  -0.584832  -0.749475  -0.000529  1.714598  -0.003
O  O67  1  0.82203884  0.36118507  0.24394675  1  -0.737857  -0.003392  1.428515  -0.007  -0.766301  -0.000365  1.708081  -0.003  -0.820243  -0.000287  1.674229  -0.003  -0.584353  -0.747929  -0.000451  1.715667  -0.003
O  O68  1  0.71067470  0.10157060  0.73029323  1  -0.806201  -0.066192  1.929596  -0.09  -0.764529  -0.041309  2.214961  -0.061  -0.800377  -0.0307  2.188238  -0.049  -0.380926  -0.73893  -0.048791  2.231527  -0.068
O  O69  1  0.48026625  0.37158915  0.26993833  1  -0.80563  -0.066049  1.928165  -0.09  -0.763911  -0.041239  2.213953  -0.061  -0.802332  -0.030633  2.186084  -0.049  -0.381227  -0.738522  -0.048506  2.230498  -0.068
O  O70  1  0.00409811  0.39453371  0.87033532  1  -0.835453  -0.068782  2.007506  -0.094  -0.795087  -0.040287  2.312677  -0.059  -0.834894  -0.029851  2.290635  -0.047  -0.384323  -0.766483  -0.048073  2.326476  -0.067
O  O71  1  0.63341168  0.52410968  0.12964815  1  -0.834528  -0.068731  2.007417  -0.094  -0.793947  -0.040256  2.312739  -0.059  -0.836391  -0.02982  2.289404  -0.047  -0.383827  -0.765772  -0.047735  2.326514  -0.066
O  O72  1  0.96822462  0.41347215  0.07609559  1  -0.854922  -0.002277  1.941475  -0.003  -0.817671  -0.000846  2.208214  -0.001  -0.867787  -0.000386  2.184519  -0.001  -0.427582  -0.794119  -0.001588  2.217991  -0.002
O  O73  1  0.39207214  0.33726439  0.92375172  1  -0.855337  -0.002296  1.940323  -0.003  -0.81817  -0.000855  2.207258  -0.001  -0.868397  -0.000393  2.183481  -0.001  -0.427839  -0.794557  -0.002001  2.216932  -0.003
O  O74  1  0.83770157  0.08386817  0.93804602  1  -0.960554  -2.8e-05  2.205022  -0.001  -0.920495  0.000369  2.493598  0.0  -0.983355  0.000609  2.48536  0.0  -0.42322  -0.894753  -1.6e-05  2.499784  -0.001
O  O75  1  0.39979760  0.14641524  0.06213198  1  -0.96122  -1.7e-05  2.20394  -0.001  -0.920984  0.000373  2.492715  0.0  -0.983864  0.000614  2.484603  0.0  -0.423324  -0.895517  5.8e-05  2.499232  -0.001
O  O76  1  0.53439375  0.93784098  0.81589546  1  -0.845425  -0.008681  1.961518  -0.011  -0.803437  -0.004749  2.229777  -0.007  -0.851745  -0.002948  2.204788  -0.004  -0.420369  -0.779618  -0.007081  2.240116  -0.009
O  O77  1  0.21866433  0.12208543  0.18436594  1  -0.846354  -0.008667  1.960674  -0.011  -0.803622  -0.004742  2.229006  -0.006  -0.8519  -0.002947  2.203982  -0.004  -0.420327  -0.779857  -0.007016  2.239276  -0.009
O  O78  1  0.30743376  0.02821166  0.83033121  1  -0.871884  -0.000985  1.594966  -0.001  -0.900167  -5.3e-05  1.876994  0.0  -0.977163  -5.5e-05  1.851425  0.0  -0.643421  -0.873394  -0.000267  1.878088  0.0
O  O79  1  0.97730187  0.19816138  0.16982384  1  -0.872208  -0.000996  1.593924  -0.001  -0.900475  -5.4e-05  1.876207  0.0  -0.977298  -6e-05  1.850748  0.0  -0.643658  -0.873536  -0.000116  1.877315  0.0
O  O80  1  0.15352018  0.28778348  0.01386507  1  -0.936117  -0.000242  2.034961  -0.001  -0.90138  0.00036  2.315483  0.0  -0.959588  0.000527  2.302218  0.0  -0.41348  -0.878094  -3.7e-05  2.324949  -0.001
O  O81  1  0.63979821  0.27408113  0.98625550  1  -0.936665  -0.00024  2.034532  -0.001  -0.901466  0.000363  2.314985  0.0  -0.959703  0.000529  2.302058  0.0  -0.413438  -0.877868  3e-06  2.324058  -0.001
O  O82  1  0.91010959  0.88677016  0.05445222  1  -0.66348  -0.001665  1.223927  -0.002  -0.671482  -0.000549  1.445106  -0.001  -0.716156  -0.000389  1.41312  -0.001  -0.558443  -0.657335  -0.000743  1.450274  -0.001
O  O83  1  0.35595546  0.83289318  0.94620027  1  -0.662464  -0.001656  1.22466  -0.002  -0.670589  -0.000549  1.445758  -0.001  -0.715286  -0.00038  1.413845  -0.001  -0.558039  -0.656336  -0.00071  1.450897  -0.001
O  O84  1  0.07988653  0.99296172  0.92856589  1  -0.88396  -0.001253  1.58576  -0.002  -0.918034  -0.000292  1.874705  0.0  -1.002972  -0.000194  1.857434  0.0  -0.642862  -0.887156  -0.000369  1.871138  -0.001
O  O85  1  0.65151159  0.06486318  0.07178136  1  -0.88329  -0.001249  1.585764  -0.002  -0.917146  -0.000291  1.874615  0.0  -1.001949  -0.000193  1.857477  0.0  -0.642818  -0.88606  -0.000432  1.871147  -0.001
