# generated using pymatgen
data_ErH5(C3O2)3
_symmetry_space_group_name_H-M   'P 1'
_cell_length_a   6.57248881
_cell_length_b   10.64207946
_cell_length_c   12.79927678
_cell_angle_alpha   89.99988474
_cell_angle_beta   89.99966135
_cell_angle_gamma   95.17729733
_symmetry_Int_Tables_number   1
_chemical_formula_structural   ErH5(C3O2)3
_chemical_formula_sum   'Er4 H20 C36 O24'
_cell_volume   891.59236088
_cell_formula_units_Z   4
loop_
 _symmetry_equiv_pos_site_id
 _symmetry_equiv_pos_as_xyz
  1  'x, y, z'
loop_
 _atom_site_type_symbol
 _atom_site_label
 _atom_site_symmetry_multiplicity
 _atom_site_fract_x
 _atom_site_fract_y
 _atom_site_fract_z
 _atom_site_occupancy
 _atom_site_hle17_bader_spin_density
 _atom_site_hle17_ddec_charge
 _atom_site_hle17_ddec_spin_density
 _atom_site_hle17_ddec_sum_bond_order
 _atom_site_hle17_magmom
 _atom_site_hse06_10hf_bader_spin_density
 _atom_site_hse06_10hf_ddec_charge
 _atom_site_hse06_10hf_ddec_spin_density
 _atom_site_hse06_10hf_ddec_sum_bond_order
 _atom_site_hse06_10hf_magmom
 _atom_site_hse06_bader_spin_density
 _atom_site_hse06_ddec_charge
 _atom_site_hse06_ddec_spin_density
 _atom_site_hse06_ddec_sum_bond_order
 _atom_site_hse06_magmom
 _atom_site_pbe_bader_spin_density
 _atom_site_pbe_cm5_charge
 _atom_site_pbe_ddec_charge
 _atom_site_pbe_ddec_spin_density
 _atom_site_pbe_ddec_sum_bond_order
 _atom_site_pbe_magmom
Er  Er0  1  0.39956268  0.57386757  0.12687327  1  0  2.284251  0  1.644642  0  0  2.142262  0  2.117026  0  0  2.27536  0  1.921902  0  0  1.534786  2.104349  0  2.148957  0
Er  Er1  1  0.10044206  0.42613232  0.62687319  1  0  2.284272  0  1.644509  0  0  2.142241  0  2.116897  0  0  2.275356  0  1.921745  0  0  1.534849  2.104323  0  2.148916  0
Er  Er2  1  0.60043570  0.42612997  0.87312775  1  0  2.284201  0  1.644683  0  0  2.142161  0  2.11712  0  0  2.275286  0  1.92195  0  0  1.53476  2.104236  0  2.149048  0
Er  Er3  1  0.89955865  0.57387089  0.37312861  1  0  2.284235  0  1.644545  0  0  2.142169  0  2.117015  0  0  2.275307  0  1.921803  0  0  1.534813  2.104315  0  2.148911  0
H  H4  1  0.98210967  0.97222965  0.27948067  1  0  0.097547  0  0.977704  0  0  0.105368  0  1.043732  0  0  0.107733  0  1.043825  0  0  0.103108  0.103765  0  1.043462  0
H  H5  1  0.51789121  0.02776679  0.77948386  1  0  0.097536  0  0.977675  0  0  0.105355  0  1.043702  0  0  0.107724  0  1.04379  0  0  0.103112  0.103752  0  1.043428  0
H  H6  1  0.01789121  0.02776412  0.72051644  1  0  0.097537  0  0.977712  0  0  0.105358  0  1.043735  0  0  0.107719  0  1.043832  0  0  0.103107  0.103753  0  1.043472  0
H  H7  1  0.48210879  0.97224207  0.22051638  1  0  0.097539  0  0.977701  0  0  0.105357  0  1.04372  0  0  0.107723  0  1.043808  0  0  0.103107  0.10375  0  1.043459  0
H  H8  1  0.93092104  0.41682527  0.13339796  1  0  0.047818  0  0.910224  0  0  0.055555  0  0.97578  0  0  0.056771  0  0.970748  0  0  0.139801  0.054071  0  0.980272  0
H  H9  1  0.56907107  0.58317255  0.63339537  1  0  0.047859  0  0.910123  0  0  0.055582  0  0.975686  0  0  0.056813  0  0.970637  0  0  0.139829  0.054108  0  0.98019  0
H  H10  1  0.06907720  0.58317133  0.86660540  1  0  0.047836  0  0.910198  0  0  0.055555  0  0.975768  0  0  0.056781  0  0.970723  0  0  0.139815  0.05407  0  0.980263  0
H  H11  1  0.43092744  0.41682593  0.36660877  1  0  0.04789  0  0.910079  0  0  0.05559  0  0.975664  0  0  0.056841  0  0.970583  0  0  0.139818  0.054109  0  0.980184  0
H  H12  1  0.08778328  0.19614491  0.22847042  1  0  0.100881  0  0.942007  0  0  0.110626  0  1.001705  0  0  0.11417  0  0.999546  0  0  0.104107  0.108339  0  1.002803  0
H  H13  1  0.41221250  0.80385370  0.72847189  1  0  0.100868  0  0.94205  0  0  0.110635  0  1.001719  0  0  0.114179  0  0.999561  0  0  0.10412  0.108351  0  1.002805  0
H  H14  1  0.91221455  0.80384885  0.77152981  1  0  0.100818  0  0.942005  0  0  0.110627  0  1.001627  0  0  0.114171  0  0.999468  0  0  0.104111  0.108341  0  1.002723  0
H  H15  1  0.58779318  0.19615233  0.27153225  1  0  0.100897  0  0.942005  0  0  0.110675  0  1.001655  0  0  0.114226  0  0.999488  0  0  0.104109  0.108389  0  1.002746  0
H  H16  1  0.34631613  0.06610327  0.94454341  1  0  0.10623  0  0.957268  0  0  0.113907  0  1.021343  0  0  0.117313  0  1.01952  0  0  0.107199  0.111595  0  1.022469  0
H  H17  1  0.15368674  0.93389846  0.44454597  1  0  0.106133  0  0.957404  0  0  0.113825  0  1.02146  0  0  0.117231  0  1.019636  0  0  0.10717  0.111528  0  1.022565  0
H  H18  1  0.65368224  0.93389427  0.05545604  1  0  0.106206  0  0.957336  0  0  0.113883  0  1.021407  0  0  0.117292  0  1.019582  0  0  0.107212  0.111579  0  1.022504  0
H  H19  1  0.84631647  0.06610097  0.55545660  1  0  0.106142  0  0.957357  0  0  0.113833  0  1.021412  0  0  0.11724  0  1.019588  0  0  0.107176  0.111537  0  1.022509  0
H  H20  1  0.24529553  0.84212573  0.99673961  1  0  0.100687  0  0.943492  0  0  0.108967  0  1.005862  0  0  0.112037  0  1.004842  0  0  0.109316  0.106466  0  1.007367  0
H  H21  1  0.25470686  0.15787679  0.49674239  1  0  0.100685  0  0.943521  0  0  0.108975  0  1.005886  0  0  0.112042  0  1.004869  0  0  0.109318  0.106485  0  1.007399  0
H  H22  1  0.75470133  0.15787181  0.00325750  1  0  0.100721  0  0.94348  0  0  0.108988  0  1.005859  0  0  0.112063  0  1.004831  0  0  0.109298  0.106485  0  1.00737  0
H  H23  1  0.74529676  0.84212548  0.50325550  1  0  0.100697  0  0.943573  0  0  0.108985  0  1.005926  0  0  0.112053  0  1.00491  0  0  0.1093  0.106499  0  1.007433  0
C  C24  1  0.29863301  0.27549322  0.05169911  1  0  0.72948  0  3.819734  0  0  0.685058  0  4.107534  0  0  0.721687  0  4.099184  0  0  0.235767  0.660199  0  4.11547  0
C  C25  1  0.20136626  0.72450500  0.55169979  1  0  0.729468  0  3.8198  0  0  0.685065  0  4.10755  0  0  0.721681  0  4.099209  0  0  0.235769  0.660203  0  4.115566  0
C  C26  1  0.70136661  0.72450244  0.94830112  1  0  0.729332  0  3.819795  0  0  0.684906  0  4.10759  0  0  0.721515  0  4.099255  0  0  0.23572  0.660035  0  4.115525  0
C  C27  1  0.79863597  0.27549820  0.44830357  1  0  0.729417  0  3.819971  0  0  0.684937  0  4.107826  0  0  0.721548  0  4.099496  0  0  0.235733  0.660066  0  4.115848  0
C  C28  1  0.78348646  0.45878280  0.13144804  1  0  0.662065  0  3.798139  0  0  0.592233  0  4.101707  0  0  0.628568  0  4.097929  0  0  0.17912  0.567072  0  4.112741  0
C  C29  1  0.71651257  0.54122069  0.63143491  1  0  0.661968  0  3.798343  0  0  0.592151  0  4.101891  0  0  0.628459  0  4.098136  0  0  0.179055  0.56699  0  4.112977  0
C  C30  1  0.21651039  0.54121473  0.86855298  1  0  0.662105  0  3.79804  0  0  0.592289  0  4.101593  0  0  0.628623  0  4.097813  0  0  0.179159  0.56713  0  4.112625  0
C  C31  1  0.28348787  0.45878063  0.36856688  1  0  0.661854  0  3.798307  0  0  0.592049  0  4.101857  0  0  0.628375  0  4.098073  0  0  0.179016  0.566893  0  4.112952  0
C  C32  1  0.10761306  0.89402795  0.14118519  1  0  -0.059264  0  3.712825  0  0  -0.038097  0  3.943601  0  0  -0.043859  0  3.962032  0  0  -0.005995  -0.033552  0  3.929953  0
C  C33  1  0.39239303  0.10597189  0.64118789  1  0  -0.059435  0  3.713064  0  0  -0.038285  0  3.94388  0  0  -0.04407  0  3.962319  0  0  -0.00603  -0.033747  0  3.930279  0
C  C34  1  0.89238478  0.10596582  0.85881192  1  0  -0.059323  0  3.712897  0  0  -0.038134  0  3.943713  0  0  -0.043908  0  3.962147  0  0  -0.005971  -0.033588  0  3.930098  0
C  C35  1  0.60760920  0.89403131  0.35881157  1  0  -0.059423  0  3.712977  0  0  -0.038212  0  3.943765  0  0  -0.043991  0  3.962193  0  0  -0.005998  -0.033658  0  3.930161  0
C  C36  1  0.06154101  0.99382635  0.20615838  1  0  -0.063075  0  3.709947  0  0  -0.086263  0  3.958777  0  0  -0.086894  0  3.979098  0  0  -0.078039  -0.085607  0  3.944233  0
C  C37  1  0.43845822  0.00617328  0.70615876  1  0  -0.062862  0  3.709902  0  0  -0.086039  0  3.958736  0  0  -0.08667  0  3.97906  0  0  -0.077949  -0.085364  0  3.944179  0
C  C38  1  0.93845683  0.00616742  0.79384030  1  0  -0.063069  0  3.709893  0  0  -0.086243  0  3.958741  0  0  -0.086879  0  3.979077  0  0  -0.078063  -0.085576  0  3.944177  0
C  C39  1  0.56154442  0.99383275  0.29384070  1  0  -0.062922  0  3.709777  0  0  -0.086097  0  3.958611  0  0  -0.086729  0  3.978945  0  0  -0.078008  -0.085416  0  3.944033  0
C  C40  1  0.12076150  0.11812764  0.17785899  1  0  -0.070681  0  3.72473  0  0  -0.092906  0  3.974526  0  0  -0.094275  0  3.994734  0  0  -0.081721  -0.09166  0  3.959832  0
C  C41  1  0.37923806  0.88187208  0.67785964  1  0  -0.070713  0  3.724688  0  0  -0.09297  0  3.974466  0  0  -0.094346  0  3.994675  0  0  -0.081725  -0.091717  0  3.959769  0
C  C42  1  0.87923647  0.88186707  0.82214281  1  0  -0.070637  0  3.724725  0  0  -0.09293  0  3.974499  0  0  -0.094306  0  3.994707  0  0  -0.081699  -0.091687  0  3.959804  0
C  C43  1  0.62076596  0.11813301  0.32214216  1  0  -0.070852  0  3.724531  0  0  -0.093132  0  3.974315  0  0  -0.094511  0  3.994523  0  0  -0.081752  -0.091872  0  3.95962  0
C  C44  1  0.22547603  0.14382916  0.08366051  1  0  -0.070075  0  3.73313  0  0  -0.048028  0  3.961084  0  0  -0.054777  0  3.982147  0  0  -0.013755  -0.042535  0  3.945028  0
C  C45  1  0.27452783  0.85617180  0.58366075  1  0  -0.070046  0  3.732962  0  0  -0.047946  0  3.960847  0  0  -0.054677  0  3.981895  0  0  -0.01376  -0.042447  0  3.944835  0
C  C46  1  0.77452857  0.85616933  0.91633738  1  0  -0.070081  0  3.733228  0  0  -0.04797  0  3.961096  0  0  -0.054705  0  3.982154  0  0  -0.013813  -0.042475  0  3.945041  0
C  C47  1  0.72547605  0.14383235  0.41634105  1  0  -0.069938  0  3.732941  0  0  -0.047804  0  3.960798  0  0  -0.054546  0  3.981864  0  0  -0.013721  -0.042316  0  3.944799  0
C  C48  1  0.26742922  0.04398709  0.01783025  1  0  -0.0692  0  3.736365  0  0  -0.090525  0  3.983965  0  0  -0.091604  0  4.004771  0  0  -0.079173  -0.089532  0  3.96886  0
C  C49  1  0.23257046  0.95601123  0.51783357  1  0  -0.069118  0  3.736414  0  0  -0.090458  0  3.984026  0  0  -0.091546  0  4.004827  0  0  -0.07915  -0.089471  0  3.968986  0
C  C50  1  0.73257220  0.95601045  0.98216686  1  0  -0.069224  0  3.736481  0  0  -0.090555  0  3.984057  0  0  -0.091645  0  4.004865  0  0  -0.07919  -0.089556  0  3.96895  0
C  C51  1  0.76743150  0.04399009  0.48216588  1  0  -0.06914  0  3.736441  0  0  -0.090477  0  3.984036  0  0  -0.091562  0  4.004841  0  0  -0.07916  -0.089482  0  3.96899  0
C  C52  1  0.05889387  0.76009261  0.17450913  1  0  0.740725  0  3.817816  0  0  0.692933  0  4.10726  0  0  0.729965  0  4.099491  0  0  0.240928  0.667293  0  4.116328  0
C  C53  1  0.44109481  0.23990523  0.67449739  1  0  0.740817  0  3.817543  0  0  0.69305  0  4.106991  0  0  0.730125  0  4.099186  0  0  0.241012  0.667421  0  4.116077  0
C  C54  1  0.94110715  0.23990211  0.82548720  1  0  0.741027  0  3.817589  0  0  0.693074  0  4.107299  0  0  0.730112  0  4.099522  0  0  0.240953  0.667392  0  4.116434  0
C  C55  1  0.55890424  0.76009703  0.32550050  1  0  0.740982  0  3.817454  0  0  0.693091  0  4.107103  0  0  0.730149  0  4.099307  0  0  0.240971  0.667423  0  4.116257  0
C  C56  1  0.21023505  0.92015005  0.04659529  1  0  -0.06195  0  3.72819  0  0  -0.087168  0  3.982794  0  0  -0.087865  0  4.002475  0  0  -0.074652  -0.086512  0  3.969426  0
C  C57  1  0.28976594  0.07984913  0.54659366  1  0  -0.062011  0  3.728133  0  0  -0.087268  0  3.9828  0  0  -0.087951  0  4.002476  0  0  -0.074703  -0.086609  0  3.969502  0
C  C58  1  0.78976457  0.07984561  0.95340104  1  0  -0.061997  0  3.728289  0  0  -0.087221  0  3.982909  0  0  -0.087907  0  4.002583  0  0  -0.074651  -0.086562  0  3.969559  0
C  C59  1  0.71023602  0.92015218  0.45340580  1  0  -0.06201  0  3.728214  0  0  -0.087263  0  3.982844  0  0  -0.087952  0  4.002518  0  0  -0.07464  -0.086613  0  3.969546  0
O  O60  1  0.27509312  0.36529973  0.11585582  1  0  -0.749848  0  2.029475  0  0  -0.702242  0  2.286176  0  0  -0.739128  0  2.270752  0  0  -0.401577  -0.68345  0  2.293671  0
O  O61  1  0.22490580  0.63470112  0.61585580  1  0  -0.749829  0  2.029528  0  0  -0.702217  0  2.286211  0  0  -0.739107  0  2.270795  0  0  -0.401552  -0.683411  0  2.293749  0
O  O62  1  0.72490373  0.63469780  0.88414441  1  0  -0.749696  0  2.029476  0  0  -0.702084  0  2.286176  0  0  -0.738974  0  2.270765  0  0  -0.401465  -0.683284  0  2.293665  0
O  O63  1  0.77509948  0.36530209  0.38414678  1  0  -0.749819  0  2.029602  0  0  -0.702175  0  2.286327  0  0  -0.739072  0  2.27091  0  0  -0.401484  -0.683375  0  2.293855  0
O  O64  1  0.96705356  0.73849881  0.26021652  1  0  -0.709068  0  2.07581  0  0  -0.659635  0  2.337001  0  0  -0.696489  0  2.323929  0  0  -0.380282  -0.641973  0  2.344128  0
O  O65  1  0.53296385  0.26150525  0.76022239  1  0  -0.709128  0  2.074976  0  0  -0.659739  0  2.336172  0  0  -0.696607  0  2.323101  0  0  -0.380294  -0.64204  0  2.343286  0
O  O66  1  0.03295216  0.26149685  0.73978215  1  0  -0.709172  0  2.075722  0  0  -0.659683  0  2.336977  0  0  -0.696537  0  2.323912  0  0  -0.380246  -0.641988  0  2.344129  0
O  O67  1  0.46703270  0.73850078  0.23977628  1  0  -0.709131  0  2.074941  0  0  -0.65972  0  2.336212  0  0  -0.696586  0  2.323142  0  0  -0.380216  -0.642009  0  2.343341  0
O  O68  1  0.38360827  0.28856366  0.96254653  1  0  -0.72328  0  2.061547  0  0  -0.675447  0  2.320954  0  0  -0.712571  0  2.307011  0  0  -0.399007  -0.657881  0  2.328046  0
O  O69  1  0.11638540  0.71143896  0.46254880  1  0  -0.723196  0  2.061418  0  0  -0.675442  0  2.32094  0  0  -0.712546  0  2.306983  0  0  -0.398947  -0.657873  0  2.328078  0
O  O70  1  0.61638720  0.71143482  0.03745214  1  0  -0.723205  0  2.061489  0  0  -0.675415  0  2.320953  0  0  -0.712513  0  2.307007  0  0  -0.39904  -0.657842  0  2.32804  0
O  O71  1  0.88361227  0.28856424  0.53745456  1  0  -0.723255  0  2.061572  0  0  -0.675464  0  2.321096  0  0  -0.712567  0  2.307142  0  0  -0.399029  -0.65788  0  2.328231  0
O  O72  1  0.71771607  0.51197392  0.21254799  1  0  -0.755437  0  2.134979  0  0  -0.701975  0  2.41154  0  0  -0.747217  0  2.398656  0  0  -0.39334  -0.683889  0  2.41918  0
O  O73  1  0.78228283  0.48802461  0.71254882  1  0  -0.755458  0  2.134558  0  0  -0.701984  0  2.411085  0  0  -0.74723  0  2.398213  0  0  -0.39333  -0.683864  0  2.418732  0
O  O74  1  0.28227966  0.48802645  0.78745381  1  0  -0.755414  0  2.134956  0  0  -0.701929  0  2.411432  0  0  -0.747157  0  2.398529  0  0  -0.393325  -0.683832  0  2.419069  0
O  O75  1  0.21772052  0.51197577  0.28745142  1  0  -0.755422  0  2.134625  0  0  -0.701936  0  2.411131  0  0  -0.747199  0  2.398259  0  0  -0.393305  -0.683827  0  2.418792  0
O  O76  1  0.11808149  0.67292950  0.11497060  1  0  -0.767458  0  2.019549  0  0  -0.718922  0  2.285898  0  0  -0.757638  0  2.269632  0  0  -0.429512  -0.699472  0  2.294755  0
O  O77  1  0.38192021  0.32706947  0.61496983  1  0  -0.767434  0  2.019942  0  0  -0.718914  0  2.28631  0  0  -0.757642  0  2.270027  0  0  -0.429526  -0.699472  0  2.295196  0
O  O78  1  0.88191192  0.32706520  0.88502417  1  0  -0.767535  0  2.019548  0  0  -0.718968  0  2.28604  0  0  -0.757682  0  2.269747  0  0  -0.42955  -0.699501  0  2.294913  0
O  O79  1  0.61807925  0.67293562  0.38502650  1  0  -0.767557  0  2.020034  0  0  -0.718967  0  2.286432  0  0  -0.757685  0  2.270148  0  0  -0.429542  -0.699521  0  2.29534  0
O  O80  1  0.67769493  0.45284151  0.04860915  1  0  -0.770373  0  2.246808  0  0  -0.705657  0  2.51251  0  0  -0.751265  0  2.499389  0  0  -0.417187  -0.68712  0  2.519975  0
O  O81  1  0.82229582  0.54716129  0.54861288  1  0  -0.770276  0  2.247381  0  0  -0.705556  0  2.513061  0  0  -0.751161  0  2.499959  0  0  -0.417116  -0.687047  0  2.520592  0
O  O82  1  0.32230456  0.54715320  0.95139343  1  0  -0.770473  0  2.246797  0  0  -0.705756  0  2.512477  0  0  -0.751376  0  2.499369  0  0  -0.417262  -0.687226  0  2.519952  0
O  O83  1  0.17770391  0.45284569  0.45138813  1  0  -0.770219  0  2.247302  0  0  -0.705497  0  2.512963  0  0  -0.751114  0  2.499869  0  0  -0.417087  -0.686978  0  2.520498  0
