# generated using pymatgen
data_Cu2P2H43C23NCl2
_symmetry_space_group_name_H-M   'P 1'
_cell_length_a   14.51692684
_cell_length_b   14.48560278
_cell_length_c   15.39706704
_cell_angle_alpha   89.99999844
_cell_angle_beta   90.00005524
_cell_angle_gamma   89.99991584
_symmetry_Int_Tables_number   1
_chemical_formula_structural   Cu2P2H43C23NCl2
_chemical_formula_sum   'Cu8 P8 H172 C92 N4 Cl8'
_cell_volume   3237.79434969
_cell_formula_units_Z   4
loop_
 _symmetry_equiv_pos_site_id
 _symmetry_equiv_pos_as_xyz
  1  'x, y, z'
loop_
 _atom_site_type_symbol
 _atom_site_label
 _atom_site_symmetry_multiplicity
 _atom_site_fract_x
 _atom_site_fract_y
 _atom_site_fract_z
 _atom_site_occupancy
 _atom_site_pbe_bader_charge
 _atom_site_pbe_bader_spin_density
 _atom_site_pbe_cm5_charge
 _atom_site_pbe_ddec_charge
 _atom_site_pbe_ddec_spin_density
 _atom_site_pbe_ddec_sum_bond_order
 _atom_site_pbe_magmom
Cu  Cu0  1  0.39289006  0.61759844  0.38017842  1  0.474308  0  0.370479  0.152025  0  2.682355  0
Cu  Cu1  1  0.10710824  0.38240167  0.88017807  1  0.474318  0  0.370457  0.152039  0  2.682214  0
Cu  Cu2  1  0.89289182  0.88240169  0.61982234  1  0.47428  0  0.370454  0.15203  0  2.682269  0
Cu  Cu3  1  0.60710919  0.11759839  0.11982244  1  0.474284  0  0.37045  0.152058  0  2.682235  0
Cu  Cu4  1  0.25981980  0.74626837  0.40059069  1  0.398871  0  0.313126  0.11634  0  2.609843  0
Cu  Cu5  1  0.24017990  0.25373243  0.90058916  1  0.398808  0  0.313115  0.116333  0  2.609803  0
Cu  Cu6  1  0.75981966  0.75373127  0.59940930  1  0.398852  0  0.313137  0.116368  0  2.609817  0
Cu  Cu7  1  0.74017995  0.24626811  0.09941082  1  0.398785  0  0.313113  0.116316  0  2.609842  0
P  P8  1  0.38847801  0.50198779  0.28909224  1  1.031366  0  -0.050109  0.227651  0  3.924943  0
P  P9  1  0.11152158  0.49801301  0.78909124  1  1.031113  0  -0.050109  0.227662  0  3.924773  0
P  P10  1  0.88848107  0.99801165  0.71090851  1  1.031393  0  -0.050116  0.227588  0  3.924915  0
P  P11  1  0.61152072  0.00198842  0.21090798  1  1.031102  0  -0.050155  0.227605  0  3.924837  0
P  P12  1  0.61677702  0.71197060  0.60305733  1  1.012065  0  -0.046909  0.251368  0  3.943401  0
P  P13  1  0.88322259  0.28802740  0.10306028  1  1.012123  0  -0.046883  0.251351  0  3.943261  0
P  P14  1  0.11677641  0.78802649  0.39694188  1  1.012153  0  -0.046919  0.251306  0  3.943144  0
P  P15  1  0.38322260  0.21197293  0.89694048  1  1.012107  0  -0.046907  0.251369  0  3.943167  0
H  H16  1  0.68601758  0.47201782  0.26832933  1  0.057297  0  0.103168  0.116667  0  1.02428  0
H  H17  1  0.81397876  0.52798087  0.76832656  1  0.057365  0  0.103115  0.116614  0  1.024282  0
H  H18  1  0.18602113  0.02798350  0.73167125  1  0.057258  0  0.103121  0.11662  0  1.024297  0
H  H19  1  0.31397771  0.97201938  0.23166763  1  0.057305  0  0.103149  0.116688  0  1.024241  0
H  H20  1  0.79215361  0.59849643  0.31968137  1  0.059614  0  0.100032  0.08776  0  1.031379  0
H  H21  1  0.70784416  0.40150157  0.81967785  1  0.059706  0  0.100011  0.087715  0  1.031444  0
H  H22  1  0.29215588  0.90150454  0.68031670  1  0.059575  0  0.100019  0.087732  0  1.031413  0
H  H23  1  0.20784429  0.09850041  0.18031690  1  0.059585  0  0.1  0.087692  0  1.031444  0
H  H24  1  0.73246395  0.71502665  0.42565736  1  0.118543  0  0.089463  0.107661  0  1.072514  0
H  H25  1  0.76753324  0.28497203  0.92565586  1  0.118484  0  0.089427  0.107626  0  1.072517  0
H  H26  1  0.23246490  0.78497647  0.57434130  1  0.11853  0  0.089447  0.107656  0  1.072567  0
H  H27  1  0.26753653  0.21502986  0.07434090  1  0.118492  0  0.089453  0.107604  0  1.072546  0
H  H28  1  0.49380137  0.40430797  0.36585951  1  0.047611  0  0.109935  0.141506  0  0.982053  0
H  H29  1  0.00619760  0.59569352  0.86585646  1  0.047643  0  0.109908  0.141471  0  0.982073  0
H  H30  1  0.99380150  0.09569359  0.63414265  1  0.047621  0  0.109916  0.141488  0  0.982085  0
H  H31  1  0.50619814  0.90430856  0.13414200  1  0.047644  0  0.109937  0.141497  0  0.982082  0
H  H32  1  0.53203599  0.41205909  0.25740186  1  0.089611  0  0.093153  0.136599  0  1.034601  0
H  H33  1  0.96796309  0.58793960  0.75739923  1  0.089614  0  0.093136  0.136583  0  1.034604  0
H  H34  1  0.03203671  0.08794108  0.74259988  1  0.08956  0  0.093133  0.136611  0  1.034631  0
H  H35  1  0.46796214  0.91205904  0.24259965  1  0.089561  0  0.093127  0.136587  0  1.034618  0
H  H36  1  0.26083755  0.33838337  0.43229219  1  0.022  0  0.084988  0.116649  0  1.004329  0
H  H37  1  0.23916080  0.66161743  0.93229129  1  0.022029  0  0.08495  0.116552  0  1.004314  0
H  H38  1  0.76083958  0.16161576  0.56770717  1  0.022034  0  0.084962  0.11656  0  1.004289  0
H  H39  1  0.73916068  0.83838224  0.06770867  1  0.022031  0  0.08495  0.116565  0  1.004296  0
H  H40  1  0.27552928  0.46069101  0.44043985  1  0.070495  0  0.079876  0.116527  0  1.053318  0
H  H41  1  0.22446908  0.53930979  0.94043894  1  0.070223  0  0.079882  0.116531  0  1.053316  0
H  H42  1  0.77553079  0.03930742  0.55955952  1  0.070217  0  0.07987  0.116515  0  1.053329  0
H  H43  1  0.72446878  0.96069059  0.05956036  1  0.070213  0  0.079891  0.116547  0  1.053309  0
H  H44  1  0.37239212  0.38644895  0.44447313  1  -0.009159  0  0.085157  0.118266  0  1.008063  0
H  H45  1  0.12760624  0.61355185  0.94447214  1  -0.009199  0  0.08517  0.118294  0  1.008003  0
H  H46  1  0.87239352  0.11354934  0.55552697  1  -0.009203  0  0.085176  0.118316  0  1.008033  0
H  H47  1  0.62760535  0.88644867  0.05552773  1  -0.009217  0  0.085148  0.118271  0  1.008034  0
H  H48  1  0.21233262  0.41168102  0.20638550  1  0.039498  0  0.086648  0.123783  0  1.028426  0
H  H49  1  0.28766757  0.58831979  0.70638531  1  0.039489  0  0.086673  0.123813  0  1.02836  0
H  H50  1  0.71233430  0.08831819  0.79361380  1  0.039515  0  0.086657  0.123785  0  1.028422  0
H  H51  1  0.78766688  0.91168119  0.29361406  1  0.039514  0  0.086663  0.123791  0  1.02842  0
H  H52  1  0.18923475  0.48736446  0.29539530  1  0.055253  0  0.087072  0.119942  0  1.027365  0
H  H53  1  0.31076415  0.51263704  0.79539513  1  0.055238  0  0.087088  0.119957  0  1.027331  0
H  H54  1  0.68923576  0.01263548  0.70460464  1  0.05525  0  0.087072  0.119946  0  1.027326  0
H  H55  1  0.81076395  0.98736390  0.20460361  1  0.055222  0  0.087071  0.119943  0  1.027297  0
H  H56  1  0.16693329  0.36725901  0.30484449  1  0.008189  0  0.084884  0.115076  0  1.011922  0
H  H57  1  0.33306493  0.63274110  0.80484499  1  0.008282  0  0.084874  0.115063  0  1.011937  0
H  H58  1  0.66693412  0.13274095  0.69515542  1  0.008289  0  0.084888  0.115062  0  1.011936  0
H  H59  1  0.83306559  0.86725843  0.19515442  1  0.008273  0  0.08489  0.11508  0  1.011894  0
H  H60  1  0.29941251  0.25246631  0.29970397  1  0.015719  0  0.083484  0.11485  0  1.001728  0
H  H61  1  0.20058639  0.74753449  0.79970434  1  0.015742  0  0.083487  0.11487  0  1.001708  0
H  H62  1  0.79941386  0.24753346  0.70029542  1  0.015715  0  0.083491  0.114866  0  1.001727  0
H  H63  1  0.70058722  0.75246661  0.20029560  1  0.015712  0  0.083491  0.114863  0  1.001711  0
H  H64  1  0.41516288  0.29002766  0.30732170  1  0.035485  0  0.086644  0.123105  0  1.017899  0
H  H65  1  0.08483534  0.70997314  0.80732262  1  0.035537  0  0.086631  0.123085  0  1.017921  0
H  H66  1  0.91516497  0.20997056  0.69267649  1  0.035546  0  0.086633  0.123089  0  1.01791  0
H  H67  1  0.58483680  0.79002744  0.19267786  1  0.035465  0  0.086632  0.123082  0  1.01792  0
H  H68  1  0.35306290  0.30556521  0.20941342  1  0.019185  0  0.085225  0.12298  0  1.040166  0
H  H69  1  0.14693522  0.69443629  0.70941244  1  0.019178  0  0.085236  0.123013  0  1.040099  0
H  H70  1  0.85306511  0.19443380  0.79058602  1  0.019208  0  0.085217  0.122961  0  1.040202  0
H  H71  1  0.64693607  0.80556420  0.29058680  1  0.019191  0  0.085236  0.123006  0  1.040115  0
H  H72  1  0.54241062  0.55894769  0.16826280  1  0.038683  0  0.085402  0.122625  0  1.015228  0
H  H73  1  0.95759112  0.44105376  0.66826212  1  0.038701  0  0.085391  0.122637  0  1.015274  0
H  H74  1  0.04241092  0.94105365  0.83173893  1  0.038653  0  0.085369  0.122613  0  1.015243  0
H  H75  1  0.45759078  0.05894784  0.33173676  1  0.038712  0  0.085391  0.122635  0  1.015278  0
H  H76  1  0.47409790  0.65394551  0.20480415  1  0.065672  0  0.080438  0.117077  0  1.046609  0
H  H77  1  0.02590297  0.34605530  0.70480372  1  0.065694  0  0.080433  0.117075  0  1.046643  0
H  H78  1  0.97410058  0.84605588  0.79519798  1  0.065682  0  0.080441  0.117104  0  1.046651  0
H  H79  1  0.52590336  0.15394557  0.29519542  1  0.065663  0  0.080416  0.117061  0  1.046622  0
H  H80  1  0.47625604  0.62346973  0.09277307  1  0.037437  0  0.085828  0.117641  0  0.995828  0
H  H81  1  0.02374472  0.37653039  0.59277134  1  0.037413  0  0.08584  0.117638  0  0.995801  0
H  H82  1  0.97625741  0.87653097  0.90722906  1  0.037372  0  0.085827  0.117646  0  0.99581  0
H  H83  1  0.52374458  0.12347048  0.40722779  1  0.037423  0  0.085831  0.117649  0  0.995799  0
H  H84  1  0.41470659  0.47447149  0.04286094  1  0.012093  0  0.085197  0.120714  0  1.01342  0
H  H85  1  0.08529343  0.52553139  0.54285991  1  0.012091  0  0.085202  0.120688  0  1.013387  0
H  H86  1  0.91470647  0.02553156  0.95714050  1  0.012089  0  0.085192  0.120672  0  1.013409  0
H  H87  1  0.58529282  0.97447126  0.45713991  1  0.012084  0  0.085212  0.120703  0  1.013407  0
H  H88  1  0.34136815  0.40581234  0.10715952  1  0.049934  0  0.078374  0.119459  0  1.049785  0
H  H89  1  0.15863194  0.59418916  0.60715986  1  0.049914  0  0.078343  0.1194  0  1.049855  0
H  H90  1  0.84136786  0.09418875  0.89283925  1  0.049909  0  0.078346  0.119398  0  1.049846  0
H  H91  1  0.65863067  0.90581200  0.39284134  1  0.049942  0  0.078379  0.119446  0  1.04982  0
H  H92  1  0.46317631  0.40536767  0.12637168  1  0.044633  0  0.078631  0.11729  0  1.04761  0
H  H93  1  0.03682311  0.59463314  0.62637255  1  0.044612  0  0.07864  0.117269  0  1.04756  0
H  H94  1  0.96317669  0.09463393  0.87362786  1  0.044616  0  0.078647  0.117273  0  1.047542  0
H  H95  1  0.53682320  0.90536821  0.37362788  1  0.044638  0  0.078633  0.117256  0  1.047618  0
H  H96  1  0.30021881  0.64818958  0.18795800  1  0.039117  0  0.080826  0.110306  0  1.051451  0
H  H97  1  0.19978274  0.35180985  0.68795773  1  0.039079  0  0.080812  0.110319  0  1.051446  0
H  H98  1  0.80021875  0.85180862  0.81204072  1  0.039053  0  0.080812  0.110323  0  1.051443  0
H  H99  1  0.69978177  0.14818869  0.31204221  1  0.039108  0  0.080816  0.110321  0  1.051465  0
H  H100  1  0.24341483  0.54633677  0.15006959  1  0.024546  0  0.086361  0.125159  0  1.017903  0
H  H101  1  0.25658599  0.45366197  0.65006807  1  0.024521  0  0.086379  0.125162  0  1.017911  0
H  H102  1  0.74341603  0.95366359  0.84993038  1  0.024562  0  0.086373  0.125197  0  1.017911  0
H  H103  1  0.75658659  0.04633786  0.34993062  1  0.024506  0  0.086364  0.12515  0  1.017921  0
H  H104  1  0.31330420  0.61107479  0.07842481  1  0.036653  0  0.085606  0.121376  0  1.005506  0
H  H105  1  0.18669793  0.38892602  0.57842518  1  0.036657  0  0.085613  0.121395  0  1.005526  0
H  H106  1  0.81330350  0.88892615  0.92157458  1  0.036672  0  0.085599  0.121366  0  1.005484  0
H  H107  1  0.68669782  0.11107460  0.42157476  1  0.036665  0  0.085615  0.121412  0  1.005504  0
H  H108  1  0.48395961  0.70619186  0.50323761  1  0.075143  0  0.093989  0.132161  0  1.044728  0
H  H109  1  0.01603693  0.29381103  0.00323633  1  0.074904  0  0.093992  0.132213  0  1.04468  0
H  H110  1  0.98395999  0.79380952  0.49676453  1  0.075135  0  0.093958  0.132159  0  1.044709  0
H  H111  1  0.51603864  0.20619054  0.99676214  1  0.074859  0  0.093989  0.132209  0  1.044715  0
H  H112  1  0.56796836  0.78998327  0.47459323  1  0.109009  0  0.109747  0.147931  0  1.008977  0
H  H113  1  0.93202957  0.21001748  0.97459318  1  0.109008  0  0.109738  0.147925  0  1.009003  0
H  H114  1  0.06796868  0.71001803  0.52540918  1  0.108997  0  0.109736  0.147898  0  1.009024  0
H  H115  1  0.43203201  0.28998278  0.02540633  1  0.109005  0  0.109747  0.147953  0  1.009041  0
H  H116  1  0.49636572  0.88191667  0.56074207  1  0.023074  0  0.092086  0.130402  0  1.003202  0
H  H117  1  0.00363226  0.11808000  0.06074274  1  0.02311  0  0.092043  0.130391  0  1.003165  0
H  H118  1  0.99636974  0.61807779  0.43925878  1  0.023112  0  0.092056  0.13042  0  1.003149  0
H  H119  1  0.50363297  0.38191952  0.93925768  1  0.023088  0  0.09207  0.130428  0  1.00314  0
H  H120  1  0.61252804  0.90603087  0.59137783  1  0.067673  0  0.086863  0.116418  0  1.039041  0
H  H121  1  0.88746949  0.09396644  0.09137884  1  0.067624  0  0.086886  0.116445  0  1.039017  0
H  H122  1  0.11253186  0.59396553  0.40862137  1  0.067589  0  0.086883  0.116431  0  1.039028  0
H  H123  1  0.38747129  0.40603458  0.90862192  1  0.067664  0  0.086871  0.1164  0  1.039047  0
H  H124  1  0.51965509  0.94324789  0.65806776  1  0.028891  0  0.087686  0.122118  0  1.009527  0
H  H125  1  0.98034320  0.05674873  0.15806821  1  0.028806  0  0.087678  0.122109  0  1.009482  0
H  H126  1  0.01965889  0.55674795  0.34193201  1  0.028814  0  0.087682  0.122128  0  1.009502  0
H  H127  1  0.48034351  0.44325147  0.84193199  1  0.028809  0  0.087681  0.122107  0  1.009483  0
H  H128  1  0.56764470  0.87465837  0.78781263  1  -0.009092  0  0.084692  0.117468  0  1.026844  0
H  H129  1  0.93235786  0.12533962  0.28781368  1  -0.009153  0  0.084659  0.117426  0  1.026866  0
H  H130  1  0.06764344  0.62534086  0.21218654  1  -0.009131  0  0.084671  0.117467  0  1.026839  0
H  H131  1  0.43235606  0.37466133  0.71218713  1  -0.009158  0  0.084663  0.117434  0  1.026845  0
H  H132  1  0.67206212  0.83912854  0.73761480  1  0.030971  0  0.081444  0.104926  0  1.076487  0
H  H133  1  0.82793970  0.16086808  0.23761965  1  0.031035  0  0.08143  0.104924  0  1.076538  0
H  H134  1  0.17206155  0.66086985  0.26238186  1  0.030975  0  0.081447  0.10492  0  1.076519  0
H  H135  1  0.32793870  0.33913165  0.76238365  1  0.030972  0  0.081436  0.104911  0  1.076545  0
H  H136  1  0.60502804  0.75842984  0.79686761  1  0.034726  0  0.087225  0.124225  0  1.017858  0
H  H137  1  0.89497590  0.24156678  0.29686993  1  0.03473  0  0.087264  0.124241  0  1.017886  0
H  H138  1  0.10502454  0.74156934  0.20313288  1  0.034765  0  0.087248  0.124245  0  1.017887  0
H  H139  1  0.39497426  0.25843285  0.70313214  1  0.034786  0  0.087258  0.124234  0  1.017871  0
H  H140  1  0.41382014  0.82364301  0.72478497  1  -0.005734  0  0.083238  0.109397  0  1.020597  0
H  H141  1  0.08618145  0.17635435  0.22478246  1  -0.005767  0  0.083249  0.109414  0  1.020562  0
H  H142  1  0.91381909  0.67635295  0.27521906  1  -0.005863  0  0.083251  0.109426  0  1.020582  0
H  H143  1  0.58618070  0.32364643  0.77521738  1  -0.005744  0  0.083246  0.109412  0  1.020553  0
H  H144  1  0.44748300  0.70697749  0.73420106  1  0.025952  0  0.084692  0.111914  0  1.047931  0
H  H145  1  0.05251997  0.29301987  0.23419787  1  0.026053  0  0.084594  0.111812  0  1.04792  0
H  H146  1  0.94748039  0.79301842  0.26580299  1  0.026099  0  0.084578  0.111817  0  1.047941  0
H  H147  1  0.55251939  0.20698027  0.76580129  1  0.026057  0  0.084604  0.111809  0  1.047921  0
H  H148  1  0.40860830  0.74978623  0.63247583  1  0.049662  0  0.08534  0.129589  0  1.026935  0
H  H149  1  0.09138975  0.25020975  0.13247202  1  0.049634  0  0.085358  0.129649  0  1.026863  0
H  H150  1  0.90860930  0.75020835  0.36752884  1  0.049611  0  0.085361  0.129637  0  1.026883  0
H  H151  1  0.59139058  0.24979033  0.86752718  1  0.049637  0  0.085334  0.129593  0  1.026914  0
H  H152  1  0.55652820  0.61864142  0.77628575  1  0.027507  0  0.087113  0.118452  0  1.022181  0
H  H153  1  0.94347365  0.38135727  0.27628811  1  0.027447  0  0.08712  0.118427  0  1.022156  0
H  H154  1  0.05652865  0.88135782  0.22371145  1  0.02749  0  0.087111  0.118427  0  1.022176  0
H  H155  1  0.44347156  0.11864229  0.72371336  1  0.027505  0  0.087127  0.118459  0  1.022155  0
H  H156  1  0.67809662  0.61852950  0.75951118  1  0.040091  0  0.088753  0.119401  0  1.019843  0
H  H157  1  0.82190453  0.38146988  0.25951278  1  0.04012  0  0.088787  0.119409  0  1.019834  0
H  H158  1  0.17809709  0.88147026  0.24048808  1  0.040074  0  0.088767  0.119422  0  1.019824  0
H  H159  1  0.32190245  0.11853055  0.74048857  1  0.04007  0  0.088757  0.119414  0  1.019815  0
H  H160  1  0.61540437  0.51301719  0.76081076  1  0.02015  0  0.084906  0.111366  0  1.029508  0
H  H161  1  0.88459747  0.48698219  0.26081046  1  0.020158  0  0.084896  0.111318  0  1.02956  0
H  H162  1  0.11540399  0.98698197  0.23919040  1  0.020177  0  0.084902  0.111346  0  1.029567  0
H  H163  1  0.38459623  0.01301815  0.73919031  1  0.020167  0  0.084897  0.111338  0  1.02957  0
H  H164  1  0.49232860  0.54706834  0.54780585  1  0.054257  0  0.084076  0.124903  0  1.046068  0
H  H165  1  0.00767143  0.45293040  0.04780586  1  0.05426  0  0.084078  0.124903  0  1.046061  0
H  H166  1  0.99232871  0.95292958  0.45219370  1  0.05419  0  0.084084  0.124899  0  1.046066  0
H  H167  1  0.50767195  0.04707049  0.95219391  1  0.054258  0  0.084087  0.1249  0  1.046049  0
H  H168  1  0.44654276  0.58647163  0.64746766  1  0.023867  0  0.083484  0.121309  0  1.043397  0
H  H169  1  0.05346012  0.41352711  0.14746772  1  0.023814  0  0.083495  0.12131  0  1.043328  0
H  H170  1  0.94654076  0.91352704  0.35253184  1  0.023818  0  0.083481  0.121287  0  1.043331  0
H  H171  1  0.55345773  0.08647372  0.85253210  1  0.023843  0  0.083486  0.121299  0  1.043343  0
H  H172  1  0.50099100  0.47712716  0.64184129  1  0.022269  0  0.081497  0.110024  0  1.026574  0
H  H173  1  0.99901003  0.52287153  0.14184110  1  0.022301  0  0.081523  0.110065  0  1.026529  0
H  H174  1  0.00099073  0.02287098  0.35815847  1  0.02231  0  0.081531  0.11007  0  1.026546  0
H  H175  1  0.49900961  0.97712913  0.85815911  1  0.022316  0  0.081519  0.110073  0  1.02653  0
H  H176  1  0.66958660  0.45963657  0.62426854  1  -0.001659  0  0.084492  0.117738  0  0.999105  0
H  H177  1  0.83041578  0.54036282  0.12427014  1  -0.001674  0  0.084506  0.117733  0  0.999105  0
H  H178  1  0.16958358  0.04036270  0.37573073  1  -0.001657  0  0.084487  0.117717  0  0.999113  0
H  H179  1  0.33041472  0.95963810  0.87573186  1  -0.001677  0  0.084497  0.117747  0  0.999128  0
H  H180  1  0.74313171  0.55777050  0.61323400  1  0.053874  0  0.079474  0.10968  0  1.044808  0
H  H181  1  0.75686998  0.44222819  0.11323684  1  0.053912  0  0.079472  0.109692  0  1.044784  0
H  H182  1  0.24313017  0.94222847  0.38676467  1  0.053893  0  0.079466  0.109663  0  1.044793  0
H  H183  1  0.25686814  0.05777233  0.88676640  1  0.053872  0  0.079469  0.10968  0  1.044789  0
H  H184  1  0.66642812  0.52694892  0.52801125  1  0.05438  0  0.084777  0.123508  0  1.030811  0
H  H185  1  0.83357279  0.47304908  0.02801350  1  0.054351  0  0.084726  0.12346  0  1.030669  0
H  H186  1  0.16642663  0.97304947  0.47198736  1  0.054414  0  0.084743  0.123469  0  1.030824  0
H  H187  1  0.33357315  0.02695064  0.97198851  1  0.054387  0  0.084757  0.123487  0  1.030814  0
C  C188  1  0.57090506  0.52543646  0.34069826  1  0.480261  0  0.118101  0.289797  0  3.963042  0
C  C189  1  0.92909204  0.47456361  0.84069624  1  0.480112  0  0.118089  0.28968  0  3.962962  0
C  C190  1  0.07090650  0.97456346  0.65930221  1  0.480124  0  0.118082  0.289695  0  3.962967  0
C  C191  1  0.42909364  0.02543804  0.15930131  1  0.48036  0  0.118089  0.289648  0  3.963089  0
C  C192  1  0.66239824  0.52541844  0.31292028  1  -0.000556  0  -0.095128  -0.201928  0  3.959492  0
C  C193  1  0.83760159  0.47458231  0.81291883  1  -0.000645  0  -0.095036  -0.201754  0  3.959459  0
C  C194  1  0.16239765  0.97458341  0.68707962  1  -0.000463  0  -0.095099  -0.201856  0  3.959207  0
C  C195  1  0.33759908  0.02541947  0.18707799  1  -0.000533  0  -0.095115  -0.201922  0  3.959389  0
C  C196  1  0.72100771  0.59514004  0.34205767  1  -0.00451  0  -0.07484  -0.017524  0  4.009898  0
C  C197  1  0.77899008  0.40486003  0.84205423  1  -0.004678  0  -0.074812  -0.017505  0  4.009909  0
C  C198  1  0.22101064  0.90486034  0.65794098  1  -0.004525  0  -0.074715  -0.017374  0  4.009695  0
C  C199  1  0.27899088  0.09514254  0.15794060  1  -0.004548  0  -0.074739  -0.017333  0  4.009928  0
C  C200  1  0.68817223  0.66024195  0.40074286  1  -0.135676  0  -0.094383  -0.198121  0  3.953849  0
C  C201  1  0.81182562  0.33975674  0.90074139  1  -0.135304  0  -0.094387  -0.198139  0  3.953641  0
C  C202  1  0.18817451  0.83975849  0.59925706  1  -0.1354  0  -0.0944  -0.198152  0  3.95388  0
C  C203  1  0.31182764  0.16024509  0.09925671  1  -0.135414  0  -0.094407  -0.198162  0  3.953865  0
C  C204  1  0.59653164  0.65446593  0.42858838  1  0.515621  0  0.121986  0.29934  0  3.938375  0
C  C205  1  0.90346692  0.34553551  0.92858959  1  0.515137  0  0.121996  0.299351  0  3.938127  0
C  C206  1  0.09653250  0.84553532  0.57141081  1  0.515099  0  0.121986  0.299351  0  3.938143  0
C  C207  1  0.40346824  0.15446618  0.07140924  1  0.515293  0  0.122034  0.299489  0  3.938217  0
C  C208  1  0.50412305  0.45271051  0.31153683  1  -0.457  0  -0.167044  -0.378283  0  3.881402  0
C  C209  1  0.99587401  0.54728887  0.81153487  1  -0.456648  0  -0.167034  -0.378261  0  3.8813  0
C  C210  1  0.00412378  0.04729039  0.68846489  1  -0.456894  0  -0.167028  -0.378292  0  3.881203  0
C  C211  1  0.49587432  0.95271180  0.18846403  1  -0.456699  0  -0.167048  -0.378283  0  3.881339  0
C  C212  1  0.31132402  0.40040216  0.31380730  1  -0.296432  0  -0.019446  0.172933  0  3.770173  0
C  C213  1  0.18867490  0.59959726  0.81380832  1  -0.296457  0  -0.019464  0.172829  0  3.770351  0
C  C214  1  0.81132489  0.09959759  0.68619144  1  -0.296388  0  -0.019459  0.172935  0  3.770047  0
C  C215  1  0.68867343  0.90040248  0.18619031  1  -0.296416  0  -0.019436  0.172887  0  3.770285  0
C  C216  1  0.30493085  0.39700292  0.41354708  1  -0.061381  0  -0.244144  -0.414679  0  3.936083  0
C  C217  1  0.19506679  0.60299788  0.91354615  1  -0.061062  0  -0.244125  -0.414565  0  3.936021  0
C  C218  1  0.80493230  0.10299615  0.58645231  1  -0.061086  0  -0.244114  -0.4146  0  3.936017  0
C  C219  1  0.69506661  0.89700255  0.08645313  1  -0.061067  0  -0.244109  -0.414594  0  3.936105  0
C  C220  1  0.21470437  0.41858097  0.27735162  1  -0.085891  0  -0.241403  -0.401568  0  3.894103  0
C  C221  1  0.28529520  0.58141914  0.77735142  1  -0.085994  0  -0.241421  -0.401567  0  3.894043  0
C  C222  1  0.71470530  0.08141824  0.72264834  1  -0.086021  0  -0.241412  -0.401539  0  3.894037  0
C  C223  1  0.78529444  0.91858114  0.22264794  1  -0.085973  0  -0.241433  -0.401578  0  3.893994  0
C  C224  1  0.34746809  0.30760102  0.28023794  1  -0.053913  0  -0.244805  -0.39845  0  3.894104  0
C  C225  1  0.15253011  0.69239909  0.78023827  1  -0.05397  0  -0.244807  -0.398483  0  3.894063  0
C  C226  1  0.84746885  0.19239937  0.71976084  1  -0.053986  0  -0.244794  -0.398454  0  3.894124  0
C  C227  1  0.65253088  0.80760139  0.21976162  1  -0.053887  0  -0.244808  -0.398449  0  3.894083  0
C  C228  1  0.39306429  0.53138043  0.16992864  1  -0.262807  0  -0.019019  0.178653  0  3.768292  0
C  C229  1  0.10693723  0.46861969  0.66992828  1  -0.262834  0  -0.019035  0.178559  0  3.768427  0
C  C230  1  0.89306545  0.96861971  0.83007147  1  -0.262753  0  -0.019063  0.178603  0  3.768335  0
C  C231  1  0.60693714  0.03138036  0.33007158  1  -0.262898  0  -0.019029  0.178562  0  3.768356  0
C  C232  1  0.47691326  0.59552129  0.15932276  1  -0.131756  0  -0.243428  -0.40229  0  3.90083  0
C  C233  1  0.02308757  0.40447952  0.65932168  1  -0.131732  0  -0.243402  -0.402261  0  3.900912  0
C  C234  1  0.97691521  0.90447941  0.84067872  1  -0.131706  0  -0.243365  -0.402288  0  3.90092  0
C  C235  1  0.52308740  0.09552204  0.34067746  1  -0.131741  0  -0.243352  -0.402239  0  3.900845  0
C  C236  1  0.40365196  0.44860444  0.10926644  1  -0.091854  0  -0.249889  -0.415463  0  3.905724  0
C  C237  1  0.09634881  0.55139637  0.60926672  1  -0.091816  0  -0.24989  -0.415356  0  3.905647  0
C  C238  1  0.90365104  0.05139587  0.89073304  1  -0.091871  0  -0.249888  -0.415341  0  3.905642  0
C  C239  1  0.59634817  0.94860488  0.39073377  1  -0.091853  0  -0.249947  -0.415409  0  3.905782  0
C  C240  1  0.30680632  0.58720143  0.14603769  1  -0.079926  0  -0.244492  -0.404627  0  3.896293  0
C  C241  1  0.19319519  0.41279662  0.64603806  1  -0.079909  0  -0.244475  -0.404602  0  3.89624  0
C  C242  1  0.80680414  0.91279675  0.85396040  1  -0.079899  0  -0.24446  -0.404644  0  3.896177  0
C  C243  1  0.69319504  0.08720193  0.35396253  1  -0.079855  0  -0.244481  -0.404624  0  3.89624  0
C  C244  1  0.55823220  0.71840600  0.49588040  1  -0.45452  0  -0.167691  -0.372004  0  3.854489  0
C  C245  1  0.94176574  0.28159406  0.99587905  1  -0.454198  0  -0.167693  -0.37216  0  3.854646  0
C  C246  1  0.05823240  0.78159393  0.50412330  1  -0.454465  0  -0.167652  -0.372019  0  3.854512  0
C  C247  1  0.44176827  0.21840619  0.00412176  1  -0.454214  0  -0.167728  -0.372262  0  3.854708  0
C  C248  1  0.54732359  0.79718422  0.66926147  1  -0.270668  0  -0.019296  0.178379  0  3.75678  0
C  C249  1  0.95267609  0.20281240  0.16926254  1  -0.270753  0  -0.019309  0.178596  0  3.756491  0
C  C250  1  0.04732441  0.70281227  0.33073963  1  -0.270631  0  -0.019321  0.178583  0  3.756511  0
C  C251  1  0.45267591  0.29718784  0.83073894  1  -0.270598  0  -0.019335  0.178473  0  3.756647  0
C  C252  1  0.54394261  0.88690849  0.61589611  1  -0.107534  0  -0.240963  -0.412953  0  3.900087  0
C  C253  1  0.95605632  0.11308882  0.11589653  1  -0.107466  0  -0.240917  -0.412979  0  3.89991  0
C  C254  1  0.04394500  0.61308801  0.38410433  1  -0.107457  0  -0.240933  -0.413045  0  3.900015  0
C  C255  1  0.45605675  0.38691141  0.88410430  1  -0.107511  0  -0.240942  -0.412962  0  3.899967  0
C  C256  1  0.60131438  0.81767556  0.75279558  1  -0.036075  0  -0.24587  -0.412774  0  3.91477  0
C  C257  1  0.89868814  0.18232174  0.25279725  1  -0.036122  0  -0.245847  -0.412786  0  3.914907  0
C  C258  1  0.10131308  0.68232293  0.24720426  1  -0.036196  0  -0.245857  -0.412818  0  3.914743  0
C  C259  1  0.39868715  0.31767857  0.74720417  1  -0.036194  0  -0.245822  -0.412714  0  3.914809  0
C  C260  1  0.44900391  0.76678929  0.69064796  1  -0.057011  0  -0.243282  -0.403059  0  3.900684  0
C  C261  1  0.05099626  0.23320738  0.19064542  1  -0.056969  0  -0.243215  -0.403095  0  3.90053  0
C  C262  1  0.94900351  0.73320593  0.30935544  1  -0.05693  0  -0.243185  -0.403081  0  3.900616  0
C  C263  1  0.55099631  0.26679345  0.80935439  1  -0.057032  0  -0.243176  -0.402996  0  3.900515  0
C  C264  1  0.59818986  0.58932884  0.64167702  1  -0.276147  0  -0.020103  0.174919  0  3.755885  0
C  C265  1  0.90181185  0.41066985  0.14167998  1  -0.276258  0  -0.020086  0.17488  0  3.7558  0
C  C266  1  0.09818903  0.91066896  0.35832217  1  -0.276218  0  -0.020058  0.174983  0  3.755708  0
C  C267  1  0.40181062  0.08933115  0.85832274  1  -0.276248  0  -0.020078  0.174986  0  3.755716  0
C  C268  1  0.61290515  0.58577841  0.74031139  1  -0.097288  0  -0.239836  -0.403879  0  3.91074  0
C  C269  1  0.88709598  0.41422097  0.24031240  1  -0.097322  0  -0.239859  -0.403781  0  3.910762  0
C  C270  1  0.11290559  0.91422076  0.25968781  1  -0.097303  0  -0.239846  -0.403867  0  3.910757  0
C  C271  1  0.38709396  0.08577867  0.75968901  1  -0.097277  0  -0.239835  -0.403874  0  3.910751  0
C  C272  1  0.50400741  0.54880661  0.61812639  1  -0.057372  0  -0.249102  -0.402985  0  3.889702  0
C  C273  1  0.99599359  0.45119140  0.11812684  1  -0.057337  0  -0.249156  -0.403041  0  3.889656  0
C  C274  1  0.00400654  0.95119134  0.38187272  1  -0.057295  0  -0.249154  -0.403025  0  3.889645  0
C  C275  1  0.49599313  0.04880877  0.88187337  1  -0.057392  0  -0.249142  -0.403032  0  3.88964  0
C  C276  1  0.67409920  0.53060427  0.59877343  1  -0.095816  0  -0.245296  -0.407341  0  3.911671  0
C  C277  1  0.82590247  0.46939373  0.09877567  1  -0.095698  0  -0.245261  -0.407269  0  3.911458  0
C  C278  1  0.17409764  0.96939342  0.40122583  1  -0.09578  0  -0.245265  -0.407273  0  3.911578  0
C  C279  1  0.32590206  0.03060669  0.90122633  1  -0.095732  0  -0.245293  -0.407358  0  3.911647  0
N  N280  1  0.53826865  0.59044172  0.39607632  1  -1.203214  0  -0.340631  -0.308537  0  3.458002  0
N  N281  1  0.96172850  0.40956111  0.89607629  1  -1.202987  0  -0.340621  -0.3084  0  3.457676  0
N  N282  1  0.03827083  0.90956170  0.60392542  1  -1.203011  0  -0.340671  -0.308509  0  3.457838  0
N  N283  1  0.46172925  0.09044118  0.10392325  1  -1.203233  0  -0.340645  -0.30847  0  3.457881  0
Cl  Cl284  1  0.39255031  0.77750273  0.33154643  1  -0.648009  0  -0.322243  -0.413247  0  1.573105  0
Cl  Cl285  1  0.10744931  0.22249738  0.83154673  1  -0.647967  0  -0.322245  -0.413257  0  1.5731  0
Cl  Cl286  1  0.89255029  0.72249740  0.66845368  1  -0.648038  0  -0.322251  -0.413278  0  1.573108  0
Cl  Cl287  1  0.60744732  0.27750198  0.16845443  1  -0.647941  0  -0.32224  -0.413268  0  1.573086  0
Cl  Cl288  1  0.30982570  0.64147600  0.50733507  1  -0.650185  0  -0.296283  -0.407616  0  1.627641  0
Cl  Cl289  1  0.19017360  0.35852343  0.00733460  1  -0.650171  0  -0.2963  -0.407647  0  1.627603  0
Cl  Cl290  1  0.80982598  0.85852356  0.49266626  1  -0.650159  0  -0.296295  -0.407633  0  1.627622  0
Cl  Cl291  1  0.69017334  0.14147788  0.99266599  1  -0.650159  0  -0.296289  -0.407629  0  1.627621  0
