# generated using pymatgen
data_NaCuH10C16(SN)6
_symmetry_space_group_name_H-M   'P 1'
_cell_length_a   8.22941681
_cell_length_b   10.08353435
_cell_length_c   13.01605460
_cell_angle_alpha   90.00026657
_cell_angle_beta   103.72942223
_cell_angle_gamma   90.00036714
_symmetry_Int_Tables_number   1
_chemical_formula_structural   NaCuH10C16(SN)6
_chemical_formula_sum   'Na2 Cu2 H20 C32 S12 N12'
_cell_volume   1049.23203030
_cell_formula_units_Z   2
loop_
 _symmetry_equiv_pos_site_id
 _symmetry_equiv_pos_as_xyz
  1  'x, y, z'
loop_
 _atom_site_type_symbol
 _atom_site_label
 _atom_site_symmetry_multiplicity
 _atom_site_fract_x
 _atom_site_fract_y
 _atom_site_fract_z
 _atom_site_occupancy
 _atom_site_hle17_bader_spin_density
 _atom_site_hle17_ddec_charge
 _atom_site_hle17_ddec_spin_density
 _atom_site_hle17_ddec_sum_bond_order
 _atom_site_hle17_magmom
 _atom_site_hse06_10hf_bader_spin_density
 _atom_site_hse06_10hf_ddec_charge
 _atom_site_hse06_10hf_ddec_spin_density
 _atom_site_hse06_10hf_ddec_sum_bond_order
 _atom_site_hse06_10hf_magmom
 _atom_site_hse06_bader_spin_density
 _atom_site_hse06_ddec_charge
 _atom_site_hse06_ddec_spin_density
 _atom_site_hse06_ddec_sum_bond_order
 _atom_site_hse06_magmom
 _atom_site_pbe_bader_spin_density
 _atom_site_pbe_cm5_charge
 _atom_site_pbe_ddec_charge
 _atom_site_pbe_ddec_spin_density
 _atom_site_pbe_ddec_sum_bond_order
 _atom_site_pbe_magmom
Na  Na0  1  0.99999694  0.00000852  0.00000106  1  0  0.848063  0  0.475834  0  0  0.76724  0  0.67919  0  0  0.779352  0  0.65847  0  0  0.730868  0.758482  0  0.694006  0
Na  Na1  1  0.49998589  0.49999566  0.99999309  1  0  0.848016  0  0.475905  0  0  0.767212  0  0.679246  0  0  0.77934  0  0.658496  0  0  0.730856  0.758457  0  0.69406  0
Cu  Cu2  1  0.00000409  0.49999782  0.50000127  1  0  0.387043  0  2.732036  0  0  0.369711  0  3.203748  0  0  0.388529  0  3.17114  0  0  0.504312  0.359273  0  3.225404  0
Cu  Cu3  1  0.49999190  0.99999939  0.50000122  1  0  0.386981  0  2.732222  0  0  0.36973  0  3.203922  0  0  0.388595  0  3.171318  0  0  0.504312  0.359305  0  3.225585  0
H  H4  1  0.22647475  0.62292066  0.19563710  1  0  0.118672  0  0.952271  0  0  0.129004  0  1.014368  0  0  0.132347  0  1.013033  0  0  0.102326  0.126856  0  1.014865  0
H  H5  1  0.27352262  0.12292134  0.80436804  1  0  0.118563  0  0.952214  0  0  0.128836  0  1.014408  0  0  0.132174  0  1.01308  0  0  0.102261  0.126689  0  1.014905  0
H  H6  1  0.77352913  0.37707062  0.80436632  1  0  0.118575  0  0.952266  0  0  0.128857  0  1.014433  0  0  0.132204  0  1.013098  0  0  0.102283  0.126709  0  1.01493  0
H  H7  1  0.72646625  0.87708183  0.19563328  1  0  0.118612  0  0.952204  0  0  0.128896  0  1.014347  0  0  0.132239  0  1.013013  0  0  0.102304  0.126743  0  1.014846  0
H  H8  1  0.93665548  0.18297261  0.20586712  1  0  0.115638  0  0.961571  0  0  0.128939  0  1.018948  0  0  0.131282  0  1.019251  0  0  0.105203  0.127394  0  1.018519  0
H  H9  1  0.56335311  0.68297569  0.79413823  1  0  0.115604  0  0.961437  0  0  0.128964  0  1.018726  0  0  0.131292  0  1.019067  0  0  0.105204  0.127415  0  1.018297  0
H  H10  1  0.06335205  0.81703057  0.79413298  1  0  0.115701  0  0.961409  0  0  0.129013  0  1.018773  0  0  0.13134  0  1.019112  0  0  0.105251  0.127465  0  1.018335  0
H  H11  1  0.43664591  0.31703642  0.20586989  1  0  0.115669  0  0.961348  0  0  0.128896  0  1.018854  0  0  0.131222  0  1.019195  0  0  0.105228  0.127357  0  1.018414  0
H  H12  1  0.05783891  0.08433552  0.61239109  1  0  0.144676  0  0.956912  0  0  0.161108  0  1.019155  0  0  0.162734  0  1.019833  0  0  0.099558  0.159944  0  1.018601  0
H  H13  1  0.44217079  0.58432520  0.38762332  1  0  0.144787  0  0.956741  0  0  0.161204  0  1.019006  0  0  0.162826  0  1.019691  0  0  0.099595  0.160039  0  1.018453  0
H  H14  1  0.94215740  0.91566369  0.38760897  1  0  0.144695  0  0.956862  0  0  0.16114  0  1.019097  0  0  0.162768  0  1.019772  0  0  0.099555  0.159975  0  1.018541  0
H  H15  1  0.55784548  0.41566607  0.61237723  1  0  0.14469  0  0.956859  0  0  0.161122  0  1.019087  0  0  0.162746  0  1.019767  0  0  0.09952  0.159959  0  1.018532  0
H  H16  1  0.83715143  0.09966236  0.56194618  1  0  0.143221  0  0.945601  0  0  0.153678  0  1.020844  0  0  0.156938  0  1.017404  0  0  0.099716  0.150923  0  1.023877  0
H  H17  1  0.66285990  0.59965289  0.43805232  1  0  0.143276  0  0.945587  0  0  0.153758  0  1.020823  0  0  0.157022  0  1.017375  0  0  0.099765  0.150999  0  1.023849  0
H  H18  1  0.16284502  0.90033487  0.43805927  1  0  0.143286  0  0.945544  0  0  0.153755  0  1.020764  0  0  0.157017  0  1.017322  0  0  0.099751  0.150997  0  1.023796  0
H  H19  1  0.33715984  0.40033838  0.56193795  1  0  0.143281  0  0.945555  0  0  0.153744  0  1.020762  0  0  0.157005  0  1.017322  0  0  0.099743  0.150989  0  1.023794  0
H  H20  1  0.92708762  0.93937422  0.59562448  1  0  0.144191  0  0.954446  0  0  0.159475  0  1.019889  0  0  0.161002  0  1.02062  0  0  0.100873  0.158005  0  1.019856  0
H  H21  1  0.57292815  0.43937146  0.40436899  1  0  0.144135  0  0.954468  0  0  0.159441  0  1.01992  0  0  0.160967  0  1.020651  0  0  0.100869  0.157975  0  1.019894  0
H  H22  1  0.07290983  0.06062301  0.40437113  1  0  0.144229  0  0.954358  0  0  0.159503  0  1.019819  0  0  0.161028  0  1.020553  0  0  0.100892  0.158037  0  1.01979  0
H  H23  1  0.42709640  0.56062180  0.59561428  1  0  0.144201  0  0.954467  0  0  0.159479  0  1.019894  0  0  0.161006  0  1.020627  0  0  0.100862  0.158004  0  1.019871  0
C  C24  1  0.16481490  0.52771480  0.19763165  1  0  -0.216026  0  3.728958  0  0  -0.2411  0  3.983296  0  0  -0.246722  0  4.00213  0  0  -0.108304  -0.236751  0  3.96992  0
C  C25  1  0.33520272  0.02769496  0.80237291  1  0  -0.215943  0  3.729311  0  0  -0.241  0  3.983618  0  0  -0.246622  0  4.002468  0  0  -0.108195  -0.236665  0  3.97023  0
C  C26  1  0.83520018  0.47229830  0.80237104  1  0  -0.215875  0  3.729418  0  0  -0.240924  0  3.983738  0  0  -0.246541  0  4.00257  0  0  -0.108214  -0.23659  0  3.970367  0
C  C27  1  0.66479126  0.97230821  0.19763297  1  0  -0.216089  0  3.729524  0  0  -0.241098  0  3.983798  0  0  -0.246726  0  4.00264  0  0  -0.108247  -0.236748  0  3.970416  0
C  C28  1  0.99850535  0.27794938  0.20375093  1  0  -0.179246  0  3.674638  0  0  -0.204448  0  3.921837  0  0  -0.20838  0  3.940036  0  0  -0.101066  -0.201844  0  3.909639  0
C  C29  1  0.50149143  0.77796306  0.79624389  1  0  -0.179336  0  3.674672  0  0  -0.204461  0  3.921922  0  0  -0.208398  0  3.940142  0  0  -0.101025  -0.201858  0  3.909714  0
C  C30  1  0.00149813  0.72203694  0.79623707  1  0  -0.179399  0  3.674852  0  0  -0.204578  0  3.922082  0  0  -0.208517  0  3.940295  0  0  -0.101034  -0.201974  0  3.909872  0
C  C31  1  0.49850501  0.22204309  0.20376079  1  0  -0.179349  0  3.674721  0  0  -0.204475  0  3.922048  0  0  -0.208416  0  3.940268  0  0  -0.101052  -0.20187  0  3.909855  0
C  C32  1  0.06622656  0.31084788  0.11740948  1  0  0.192343  0  3.819042  0  0  0.188922  0  4.073978  0  0  0.19365  0  4.093079  0  0  0.103794  0.185793  0  4.061206  0
C  C33  1  0.43377652  0.81084249  0.88260100  1  0  0.192533  0  3.818561  0  0  0.188916  0  4.073753  0  0  0.193643  0  4.09285  0  0  0.103767  0.185783  0  4.060963  0
C  C34  1  0.93377867  0.68915926  0.88259797  1  0  0.192429  0  3.818681  0  0  0.188931  0  4.073702  0  0  0.193664  0  4.092797  0  0  0.10379  0.185797  0  4.060914  0
C  C35  1  0.56621509  0.18916168  0.11740992  1  0  0.192418  0  3.818917  0  0  0.188906  0  4.073919  0  0  0.193629  0  4.093016  0  0  0.103783  0.185778  0  4.061149  0
C  C36  1  0.15183254  0.43561982  0.11435827  1  0  0.182594  0  3.828609  0  0  0.180176  0  4.084312  0  0  0.185254  0  4.103642  0  0  0.098883  0.176571  0  4.07144  0
C  C37  1  0.34817530  0.93561897  0.88564488  1  0  0.182558  0  3.828724  0  0  0.180238  0  4.08443  0  0  0.185309  0  4.103778  0  0  0.098838  0.176642  0  4.071529  0
C  C38  1  0.84817737  0.56438038  0.88563755  1  0  0.182408  0  3.829007  0  0  0.180045  0  4.084666  0  0  0.185111  0  4.104021  0  0  0.098731  0.176461  0  4.071755  0
C  C39  1  0.65182117  0.06438619  0.11436134  1  0  0.182549  0  3.828955  0  0  0.180201  0  4.084615  0  0  0.185284  0  4.103942  0  0  0.098812  0.176603  0  4.071724  0
C  C40  1  0.01412573  0.36859190  0.28540124  1  0  0.067229  0  3.800939  0  0  0.081771  0  4.054604  0  0  0.085485  0  4.076299  0  0  -0.012829  0.078711  0  4.040319  0
C  C41  1  0.48586418  0.86859667  0.71460837  1  0  0.067369  0  3.801332  0  0  0.081762  0  4.055149  0  0  0.085457  0  4.07686  0  0  -0.012899  0.078696  0  4.040846  0
C  C42  1  0.98587204  0.63140235  0.71460670  1  0  0.067359  0  3.801464  0  0  0.0819  0  4.055071  0  0  0.085607  0  4.076757  0  0  -0.012875  0.078835  0  4.040777  0
C  C43  1  0.51412979  0.13140552  0.28539751  1  0  0.067389  0  3.801156  0  0  0.081905  0  4.054798  0  0  0.085615  0  4.076481  0  0  -0.012805  0.078845  0  4.040514  0
C  C44  1  0.91430550  0.05914352  0.72405394  1  0  0.415171  0  3.720631  0  0  0.407847  0  4.0105  0  0  0.421457  0  4.02609  0  0  0.200578  0.398681  0  3.998864  0
C  C45  1  0.58569040  0.55914359  0.27594149  1  0  0.415361  0  3.720382  0  0  0.408063  0  4.010249  0  0  0.421674  0  4.025835  0  0  0.200673  0.398896  0  3.998619  0
C  C46  1  0.08568976  0.94085172  0.27595365  1  0  0.415241  0  3.720244  0  0  0.407912  0  4.010119  0  0  0.421529  0  4.025717  0  0  0.200523  0.398741  0  3.998485  0
C  C47  1  0.41432302  0.44085264  0.72404560  1  0  0.415384  0  3.720083  0  0  0.408045  0  4.009957  0  0  0.42166  0  4.025545  0  0  0.200664  0.398878  0  3.998323  0
C  C48  1  0.93532873  0.04490718  0.61760965  1  0  -0.375245  0  3.754914  0  0  -0.443503  0  3.978309  0  0  -0.447194  0  3.982518  0  0  -0.218595  -0.44065  0  3.975766  0
C  C49  1  0.56467464  0.54490381  0.38239061  1  0  -0.375362  0  3.754809  0  0  -0.443666  0  3.978258  0  0  -0.447356  0  3.982465  0  0  -0.218671  -0.440811  0  3.975714  0
C  C50  1  0.06467259  0.95508707  0.38239110  1  0  -0.375356  0  3.755153  0  0  -0.443613  0  3.978557  0  0  -0.447309  0  3.982768  0  0  -0.218627  -0.44076  0  3.976017  0
C  C51  1  0.43534017  0.45509143  0.61760205  1  0  -0.375392  0  3.755045  0  0  -0.443659  0  3.978474  0  0  -0.447354  0  3.98269  0  0  -0.218589  -0.440803  0  3.975934  0
C  C52  1  0.09577687  0.49415125  0.28179448  1  0  0.063648  0  3.801981  0  0  0.077982  0  4.053716  0  0  0.082249  0  4.075765  0  0  -0.014364  0.07515  0  4.038857  0
C  C53  1  0.40421921  0.99414074  0.71821338  1  0  0.063558  0  3.802337  0  0  0.077992  0  4.053993  0  0  0.082267  0  4.076034  0  0  -0.014385  0.07518  0  4.039099  0
C  C54  1  0.90422699  0.50585391  0.71820817  1  0  0.06353  0  3.8022  0  0  0.077896  0  4.053859  0  0  0.082165  0  4.075905  0  0  -0.014406  0.075063  0  4.039001  0
C  C55  1  0.59576966  0.00586342  0.28178794  1  0  0.063694  0  3.80224  0  0  0.078052  0  4.053928  0  0  0.082319  0  4.07597  0  0  -0.014377  0.075224  0  4.039065  0
S  S56  1  0.15746813  0.31632492  0.95559958  1  0  0.486723  0  3.039333  0  0  0.471734  0  3.432497  0  0  0.483835  0  3.436031  0  0  0.394765  0.462738  0  3.430751  0
S  S57  1  0.34252462  0.81632391  0.04439487  1  0  0.486867  0  3.03952  0  0  0.471858  0  3.432692  0  0  0.483952  0  3.436228  0  0  0.394837  0.462848  0  3.430952  0
S  S58  1  0.84253294  0.68367925  0.04439192  1  0  0.486815  0  3.03963  0  0  0.471806  0  3.432808  0  0  0.483908  0  3.436344  0  0  0.394835  0.462799  0  3.431063  0
S  S59  1  0.65747184  0.18368125  0.95561059  1  0  0.486745  0  3.03965  0  0  0.471744  0  3.432812  0  0  0.48384  0  3.436354  0  0  0.394795  0.462745  0  3.43107  0
S  S60  1  0.93505389  0.32996330  0.39481001  1  0  -0.228858  0  2.245086  0  0  -0.226642  0  2.61883  0  0  -0.239026  0  2.614655  0  0  -0.161382  -0.21776  0  2.62203  0
S  S61  1  0.56494094  0.82996525  0.60518626  1  0  -0.228885  0  2.244641  0  0  -0.226648  0  2.618426  0  0  -0.239036  0  2.614272  0  0  -0.161405  -0.217763  0  2.621614  0
S  S62  1  0.06495604  0.67003194  0.60518657  1  0  -0.228921  0  2.244698  0  0  -0.22671  0  2.618421  0  0  -0.239095  0  2.614256  0  0  -0.161407  -0.217822  0  2.621603  0
S  S63  1  0.43504678  0.17003892  0.39481874  1  0  -0.228895  0  2.244672  0  0  -0.22669  0  2.618409  0  0  -0.239087  0  2.614253  0  0  -0.161415  -0.217818  0  2.621633  0
S  S64  1  0.10702151  0.60559565  0.38555962  1  0  -0.237952  0  2.275706  0  0  -0.229665  0  2.64754  0  0  -0.242684  0  2.642672  0  0  -0.159385  -0.221532  0  2.650854  0
S  S65  1  0.39297432  0.10559580  0.61444063  1  0  -0.237975  0  2.275558  0  0  -0.229725  0  2.647363  0  0  -0.242755  0  2.642499  0  0  -0.159426  -0.221601  0  2.65068  0
S  S66  1  0.89298723  0.39439662  0.61443911  1  0  -0.237924  0  2.275464  0  0  -0.229648  0  2.647268  0  0  -0.242666  0  2.642397  0  0  -0.159387  -0.221513  0  2.650588  0
S  S67  1  0.60699823  0.89440242  0.38555609  1  0  -0.238017  0  2.275412  0  0  -0.229766  0  2.647235  0  0  -0.2428  0  2.642376  0  0  -0.159426  -0.221636  0  2.650554  0
N  N68  1  0.06238443  0.23478004  0.03120990  1  0  -0.488798  0  3.009343  0  0  -0.450099  0  3.307606  0  0  -0.459334  0  3.317  0  0  -0.39289  -0.443635  0  3.301741  0
N  N69  1  0.43760392  0.73477618  0.96878977  1  0  -0.48886  0  3.009381  0  0  -0.450116  0  3.307689  0  0  -0.459346  0  3.317079  0  0  -0.392886  -0.443654  0  3.301822  0
N  N70  1  0.93760553  0.76522711  0.96878542  1  0  -0.488768  0  3.009547  0  0  -0.450067  0  3.307842  0  0  -0.459299  0  3.317234  0  0  -0.392898  -0.443605  0  3.301974  0
N  N71  1  0.56239134  0.26522601  0.03121782  1  0  -0.48877  0  3.009479  0  0  -0.450055  0  3.307764  0  0  -0.45929  0  3.317161  0  0  -0.392904  -0.443597  0  3.301907  0
N  N72  1  0.90160722  0.06794424  0.81105733  1  0  -0.502075  0  2.633002  0  0  -0.483792  0  2.88265  0  0  -0.497918  0  2.892666  0  0  -0.37978  -0.473855  0  2.875075  0
N  N73  1  0.59837507  0.56795277  0.18893852  1  0  -0.50227  0  2.633034  0  0  -0.483968  0  2.882654  0  0  -0.498097  0  2.892666  0  0  -0.379866  -0.47402  0  2.875062  0
N  N74  1  0.09838889  0.93204902  0.18893501  1  0  -0.502185  0  2.632398  0  0  -0.483896  0  2.882043  0  0  -0.498031  0  2.892065  0  0  -0.379723  -0.473944  0  2.874445  0
N  N75  1  0.40162360  0.43204148  0.81105648  1  0  -0.502248  0  2.632434  0  0  -0.483963  0  2.882112  0  0  -0.498099  0  2.892135  0  0  -0.379852  -0.474011  0  2.874512  0
N  N76  1  0.21120943  0.44931828  0.02617156  1  0  -0.463474  0  2.912407  0  0  -0.429913  0  3.208488  0  0  -0.438946  0  3.217461  0  0  -0.374728  -0.423664  0  3.202867  0
N  N77  1  0.28878479  0.94930972  0.97382973  1  0  -0.463476  0  2.912578  0  0  -0.429848  0  3.20843  0  0  -0.438866  0  3.217398  0  0  -0.374648  -0.423605  0  3.202808  0
N  N78  1  0.78878678  0.55069383  0.97382464  1  0  -0.463349  0  2.912406  0  0  -0.429763  0  3.208388  0  0  -0.438792  0  3.217365  0  0  -0.374579  -0.423525  0  3.202764  0
N  N79  1  0.71121298  0.05069644  0.02617821  1  0  -0.463399  0  2.91269  0  0  -0.42981  0  3.208646  0  0  -0.438838  0  3.217618  0  0  -0.374623  -0.423563  0  3.203021  0
