# generated using pymatgen
data_Al6H48(C17O6)5
_symmetry_space_group_name_H-M   'P 1'
_cell_length_a   12.37799207
_cell_length_b   12.64537722
_cell_length_c   28.70468915
_cell_angle_alpha   90.14153919
_cell_angle_beta   89.65863323
_cell_angle_gamma   61.46166232
_symmetry_Int_Tables_number   1
_chemical_formula_structural   Al6H48(C17O6)5
_chemical_formula_sum   'Al6 H48 C85 O30'
_cell_volume   3946.93318204
_cell_formula_units_Z   1
loop_
 _symmetry_equiv_pos_site_id
 _symmetry_equiv_pos_as_xyz
  1  'x, y, z'
loop_
 _atom_site_type_symbol
 _atom_site_label
 _atom_site_symmetry_multiplicity
 _atom_site_fract_x
 _atom_site_fract_y
 _atom_site_fract_z
 _atom_site_occupancy
 _atom_site_pbe_bader_charge
 _atom_site_pbe_bader_spin_density
 _atom_site_pbe_cm5_charge
 _atom_site_pbe_ddec_charge
 _atom_site_pbe_ddec_spin_density
 _atom_site_pbe_ddec_sum_bond_order
 _atom_site_pbe_magmom
Al  Al0  1  0.41068344  0.41192232  0.49977226  1  2.492431  0  0.399003  1.683745  0  2.554106  0
Al  Al1  1  0.42271109  0.65996372  0.50131516  1  2.479975  0  0.50804  1.660723  0  2.510621  0
Al  Al2  1  0.66130162  0.42856958  0.49962575  1  2.477627  0  0.508204  1.661922  0  2.510084  0
Al  Al3  1  0.93102924  0.91515141  0.00274660  1  2.498119  0  0.398957  1.683767  0  2.554846  0
Al  Al4  1  0.67389397  0.91050917  0.99934040  1  2.480427  0  0.508438  1.660032  0  2.510823  0
Al  Al5  1  0.90622525  0.67385969  0.00010887  1  2.474976  0  0.508304  1.662107  0  2.512124  0
H  H6  1  0.47709709  0.27280829  0.71090830  1  0.096183  0  0.114462  0.118208  0  0.980076  0
H  H7  1  0.65851273  0.31658783  0.19330480  1  0.116018  0  0.110213  0.119602  0  1.006304  0
H  H8  1  0.65798171  0.35483633  0.27863494  1  0.075918  0  0.106167  0.104854  0  1.009477  0
H  H9  1  0.08143523  0.85427705  0.29717302  1  0.079027  0  0.107535  0.118791  0  1.003408  0
H  H10  1  0.24550558  0.47402512  0.20625592  1  0.072963  0  0.108701  0.12082  0  1.002194  0
H  H11  1  0.44787180  0.75563502  0.72688075  1  0.054575  0  0.097086  0.08529  0  1.030932  0
H  H12  1  0.56466084  0.56419053  0.79111839  1  0.062218  0  0.106123  0.099126  0  0.981484  0
H  H13  1  0.76722501  0.45061958  0.72909063  1  0.058602  0  0.103095  0.094248  0  0.989345  0
H  H14  1  0.87959348  0.57518563  0.77277144  1  0.066251  0  0.100044  0.093  0  1.005007  0
H  H15  1  0.87153254  0.12263136  0.70651830  1  0.082829  0  0.113368  0.115985  0  0.98137  0
H  H16  1  0.88066346  0.08055929  0.79171018  1  0.097522  0  0.111653  0.114466  0  0.999136  0
H  H17  1  0.11421537  0.53358270  0.70179925  1  0.082565  0  0.112879  0.117574  0  0.981013  0
H  H18  1  0.48619444  0.23119829  0.79613955  1  0.067643  0  0.114086  0.117406  0  0.979128  0
H  H19  1  0.54077283  0.99917644  0.70975379  1  0.037347  0  0.087306  0.115891  0  1.016455  0
H  H20  1  0.41410554  0.97091930  0.71536039  1  0.000456  0  0.086275  0.112423  0  1.003564  0
H  H21  1  0.41501570  0.09193037  0.74643813  1  0.007438  0  0.085299  0.11037  0  1.012964  0
H  H22  1  0.46565581  0.92489773  0.80195121  1  0.036519  0  0.095101  0.091572  0  0.971393  0
H  H23  1  0.59746650  0.94147584  0.79369084  1  0.04089  0  0.092731  0.088287  0  0.996513  0
H  H24  1  0.11941101  0.97002350  0.79019193  1  0.004825  0  0.081783  0.104057  0  1.012976  0
H  H25  1  0.07672598  0.91593385  0.84067816  1  0.058742  0  0.0918  0.124155  0  1.003355  0
H  H26  1  0.18610494  0.96840754  0.84519328  1  0.039408  0  0.094991  0.127325  0  0.985961  0
H  H27  1  0.29238752  0.74426925  0.84564671  1  0.042776  0  0.100115  0.101301  0  0.975527  0
H  H28  1  0.08770062  0.53471464  0.78830764  1  0.080621  0  0.109577  0.109255  0  0.996702  0
H  H29  1  0.33535414  0.79739764  0.79566800  1  0.019539  0  0.092046  0.085595  0  1.005108  0
H  H30  1  0.91636146  0.28144869  0.20190882  1  0.598437  0  0.347882  0.386776  0  0.854757  0
H  H31  1  0.75726512  0.92321560  0.74698537  1  0.032333  0  0.081397  0.106679  0  1.045116  0
H  H32  1  0.89157998  0.78523688  0.75815870  1  0.035131  0  0.081124  0.108149  0  1.026809  0
H  H33  1  0.88690985  0.87343445  0.70953292  1  0.033319  0  0.085974  0.11547  0  1.00471  0
H  H34  1  0.85826593  0.70479008  0.67996133  1  0.038133  0  0.094197  0.089322  0  0.976166  0
H  H35  1  0.71887581  0.83865266  0.67384496  1  0.040961  0  0.096422  0.093023  0  0.977729  0
H  H36  1  0.92552795  0.01570143  0.26328862  1  0.034508  0  0.081897  0.107088  0  1.030899  0
H  H37  1  0.06420158  0.01212743  0.24432343  1  0.019305  0  0.086482  0.113369  0  0.998302  0
H  H38  1  0.92742577  0.08762329  0.21089921  1  0.013304  0  0.082613  0.105318  0  1.03028  0
H  H39  1  0.27054160  0.77128294  0.71743541  1  0.053149  0  0.106497  0.11121  0  1.010715  0
H  H40  1  0.06351304  0.89462883  0.17189277  1  0.061648  0  0.10526  0.112524  0  0.953045  0
H  H41  1  0.93013829  0.89557805  0.19196635  1  0.038661  0  0.094803  0.092279  0  0.979002  0
H  H42  1  0.26564189  0.31688650  0.25670233  1  0.032359  0  0.086002  0.11354  0  0.999736  0
H  H43  1  0.40544143  0.31433300  0.24003983  1  0.023978  0  0.079628  0.103669  0  1.0355  0
H  H44  1  0.39918641  0.23993343  0.29131731  1  0.036784  0  0.086243  0.117491  0  1.010314  0
H  H45  1  0.39497488  0.43300845  0.31243753  1  0.019854  0  0.094467  0.092225  0  0.977473  0
H  H46  1  0.26124168  0.43190022  0.33070255  1  0.068353  0  0.10515  0.11176  0  0.952546  0
H  H47  1  0.77397069  0.47008733  0.29003709  1  0.106104  0  0.120572  0.130643  0  0.983834  0
H  H48  1  0.55345277  0.86153647  0.20824645  1  0.094609  0  0.118103  0.122824  0  0.977816  0
H  H49  1  0.53997679  0.85485949  0.29460182  1  0.09944  0  0.119996  0.124349  0  0.970448  0
H  H50  1  0.66998350  0.01484021  0.30732674  1  0.070523  0  0.11291  0.114893  0  0.984343  0
H  H51  1  0.67173879  0.97619261  0.22221596  1  0.094683  0  0.105858  0.103371  0  1.012159  0
H  H52  1  0.28885738  0.32951042  0.52713875  1  0.575895  0  0.293274  0.383042  0  0.922815  0
H  H53  1  0.05059924  0.00104709  0.97601844  1  0.571007  0  0.293111  0.382729  0  0.923513  0
C  C54  1  0.28142957  0.62391987  0.56715431  1  1.674123  0  0.276878  0.710796  0  4.165887  0
C  C55  1  0.64746539  0.64252625  0.65403945  1  -0.417511  0  -0.008693  0.003017  0  4.056821  0
C  C56  1  0.65251042  0.24702150  0.61350667  1  0.133527  0  -0.030573  -0.176908  0  3.93987  0
C  C57  1  0.61821279  0.61184122  0.56501980  1  1.660997  0  0.282579  0.723851  0  4.153834  0
C  C58  1  0.78764548  0.14695447  0.72645827  1  -0.110512  0  -0.074006  -0.121476  0  3.964699  0
C  C59  1  0.79272908  0.12374237  0.77380314  1  0.023724  0  -0.072781  -0.112965  0  3.946833  0
C  C60  1  0.56991133  0.20827992  0.77629996  1  -0.062473  0  -0.073371  -0.117361  0  3.959534  0
C  C61  1  0.56485107  0.23132605  0.72897492  1  0.01585  0  -0.071836  -0.114082  0  3.950792  0
C  C62  1  0.67373668  0.20020331  0.70322981  1  0.127741  0  0.006313  0.127412  0  4.108907  0
C  C63  1  0.68402981  0.15306769  0.79936406  1  0.034321  0  0.005639  0.123391  0  4.115634  0
C  C64  1  0.69101835  0.12317553  0.84705269  1  -0.130675  0  -0.021029  -0.038279  0  4.090491  0
C  C65  1  0.63991498  0.63534262  0.61186657  1  0.100697  0  -0.046539  -0.222534  0  3.964173  0
C  C66  1  0.66605661  0.22344176  0.65489444  1  -0.392288  0  -0.021632  -0.038404  0  4.085725  0
C  C67  1  0.70073886  0.09310133  0.88775040  1  -0.123908  0  -0.030915  -0.177402  0  3.939401  0
C  C68  1  0.23261570  0.64689351  0.61385331  1  0.080223  0  -0.032157  -0.181574  0  3.936836  0
C  C69  1  0.62028209  0.29459203  0.56722481  1  1.674376  0  0.275346  0.707052  0  4.165998  0
C  C70  1  0.14255199  0.58517148  0.72434771  1  -0.064446  0  -0.07819  -0.126409  0  3.968684  0
C  C71  1  0.12828179  0.58563682  0.77223458  1  0.002303  0  -0.077456  -0.117345  0  3.994513  0
C  C72  1  0.21867968  0.71997829  0.78179105  1  0.000725  0  0.008093  0.095133  0  3.91605  0
C  C73  1  0.23080239  0.71956496  0.73352377  1  -0.039174  0  -0.077884  -0.182925  0  3.91549  0
C  C74  1  0.19374164  0.65314171  0.70428440  1  0.106089  0  0.005772  0.137751  0  4.122906  0
C  C75  1  0.16458318  0.65306752  0.80132361  1  0.109774  0  0.003992  0.067563  0  4.081031  0
C  C76  1  0.78338046  0.61471373  0.76220903  1  -0.026321  0  -0.070235  -0.107731  0  3.627977  0
C  C77  1  0.14114753  0.65834598  0.84971711  1  -0.142252  0  -0.017505  -0.025878  0  4.105481  0
C  C78  1  0.21208782  0.65154343  0.65558759  1  -0.347904  0  -0.020781  -0.034092  0  4.078965  0
C  C79  1  0.11478315  0.66912089  0.89105045  1  -0.15195  0  -0.029591  -0.182724  0  3.929556  0
C  C80  1  0.63569283  0.64527206  0.38909822  1  0.23413  0  -0.025972  -0.180372  0  3.916356  0
C  C81  1  0.28634767  0.61855077  0.43443615  1  1.672847  0  0.275942  0.7086  0  4.167867  0
C  C82  1  0.72508510  0.55579533  0.27211219  1  -0.000663  0  -0.06012  -0.121031  0  3.879865  0
C  C83  1  0.72954577  0.55841323  0.22360758  1  -0.05015  0  0.001306  -0.062942  0  3.917807  0
C  C84  1  0.60077182  0.77602164  0.22647063  1  -0.009898  0  -0.067231  -0.11284  0  3.94059  0
C  C85  1  0.59397379  0.77242910  0.27466913  1  0.02872  0  -0.063677  -0.100945  0  3.925423  0
C  C86  1  0.65617383  0.66182432  0.29833380  1  0.121427  0  0.011393  0.130417  0  4.099261  0
C  C87  1  0.67135115  0.67765118  0.79733494  1  0.142019  0  0.00547  0.080178  0  3.798645  0
C  C88  1  0.66761630  0.66995574  0.19983218  1  0.072494  0  0.023484  0.120921  0  4.047076  0
C  C89  1  0.67599698  0.68004745  0.15097228  1  -0.49814  0  -0.002783  -0.001793  0  4.045681  0
C  C90  1  0.64639169  0.65485079  0.34728502  1  -0.4834  0  -0.006191  -0.012944  0  4.046803  0
C  C91  1  0.68484976  0.69747456  0.10970495  1  0.292584  0  -0.016923  -0.161343  0  3.884238  0
C  C92  1  0.65422595  0.23739235  0.38799460  1  0.131023  0  -0.028206  -0.18013  0  3.926109  0
C  C93  1  0.60957595  0.62125166  0.43554945  1  1.661965  0  0.286458  0.720754  0  4.149118  0
C  C94  1  0.66770452  0.08041020  0.28223968  1  -0.026247  0  -0.073826  -0.119757  0  3.961385  0
C  C95  1  0.66785581  0.05930290  0.23480321  1  -0.019818  0  -0.075021  -0.115718  0  3.955686  0
C  C96  1  0.66076517  0.25134913  0.21855112  1  -0.013313  0  -0.076102  -0.124631  0  3.950275  0
C  C97  1  0.66107005  0.27215397  0.26597962  1  -0.035576  0  -0.074768  -0.111487  0  3.949348  0
C  C98  1  0.72155519  0.54601190  0.73866539  1  -0.008112  0  -0.066484  -0.067409  0  3.631735  0
C  C99  1  0.66459236  0.18715119  0.29855221  1  0.092652  0  0.007349  0.123208  0  4.110221  0
C  C100  1  0.66485514  0.14416887  0.20227492  1  0.045433  0  0.007558  0.124975  0  4.109363  0
C  C101  1  0.67080325  0.11954907  0.15400123  1  -0.186701  0  -0.011342  -0.019014  0  4.06151  0
C  C102  1  0.66099745  0.21188507  0.34674892  1  -0.372947  0  -0.012582  -0.021719  0  4.068258  0
C  C103  1  0.68079457  0.09544653  0.11256378  1  -0.057569  0  -0.025102  -0.175164  0  3.918627  0
C  C104  1  0.23562017  0.64974088  0.38867652  1  0.220969  0  -0.036958  -0.203012  0  3.947494  0
C  C105  1  0.62839905  0.28759954  0.43432194  1  1.6556  0  0.282679  0.705861  0  4.170252  0
C  C106  1  0.11640768  0.77199980  0.27648248  1  -0.030888  0  -0.083658  -0.17873  0  3.942952  0
C  C107  1  0.09139332  0.77755599  0.22914442  1  -0.018978  0  0.002237  0.082881  0  3.921918  0
C  C108  1  0.21037273  0.55629509  0.22694504  1  -0.051436  0  -0.081931  -0.177282  0  3.938102  0
C  C109  1  0.65551273  0.65213881  0.70272633  1  0.131305  0  0.005291  0.080187  0  3.802794  0
C  C110  1  0.23537042  0.55066749  0.27429443  1  -0.007273  0  0.003492  0.086252  0  3.917157  0
C  C111  1  0.18665577  0.66149168  0.29924435  1  0.133726  0  -0.001007  0.066012  0  4.10836  0
C  C112  1  0.14011540  0.66672463  0.20420493  1  0.094733  0  -0.000136  0.06814  0  4.107009  0
C  C113  1  0.11669466  0.66860803  0.15605385  1  -0.466918  0  -0.010889  -0.007981  0  4.096371  0
C  C114  1  0.21041196  0.65948746  0.34736556  1  -0.523777  0  -0.011925  -0.009064  0  4.098737  0
C  C115  1  0.09233937  0.67807162  0.11467958  1  0.217749  0  -0.035663  -0.200938  0  3.945103  0
C  C116  1  0.72788690  0.04066033  0.93341760  1  1.689599  0  0.276126  0.709064  0  4.164997  0
C  C117  1  0.71902615  0.72170815  0.72731994  1  0.008892  0  0.011368  0.070646  0  3.588692  0
C  C118  1  0.71204015  0.72835945  0.93409221  1  1.637742  0  0.282488  0.724938  0  4.149824  0
C  C119  1  0.05924134  0.69891973  0.93661673  1  1.671093  0  0.2765  0.707921  0  4.171268  0
C  C120  1  0.60850102  0.60892963  0.77238584  1  -0.008806  0  -0.064065  -0.066117  0  3.625903  0
C  C121  1  0.70890382  0.04677303  0.06602889  1  1.678948  0  0.283204  0.707605  0  4.166369  0
C  C122  1  0.71314587  0.72101427  0.06358788  1  1.675183  0  0.288161  0.718805  0  4.146036  0
C  C123  1  0.04357141  0.70950968  0.06864747  1  1.643094  0  0.27829  0.710317  0  4.168527  0
C  C124  1  0.60443964  0.78538000  0.76148274  1  0.021444  0  0.005509  0.056143  0  3.604677  0
C  C125  1  0.68827551  0.70347567  0.88765539  1  0.154278  0  -0.046884  -0.221431  0  3.962801  0
C  C126  1  0.53527392  0.91542071  0.77566510  1  -0.006668  0  -0.159748  -0.1437  0  4.002361  0
C  C127  1  0.47298500  0.99888403  0.73453964  1  -0.038825  0  -0.242612  -0.34762  0  3.968724  0
C  C128  1  0.25825389  0.79177563  0.81250627  1  0.020743  0  -0.158251  -0.150327  0  3.979818  0
C  C129  1  0.15364455  0.91920847  0.82267828  1  -0.066069  0  -0.237907  -0.347178  0  3.943605  0
C  C130  1  0.79330850  0.44372418  0.19660628  1  1.545758  0  0.233249  0.567012  0  4.133086  0
C  C131  1  0.54376481  0.71540195  0.73773802  1  -0.033479  0  -0.072938  -0.11421  0  3.649498  0
C  C132  1  0.78260943  0.77719667  0.70002607  1  -0.001309  0  -0.159854  -0.146482  0  4.007083  0
C  C133  1  0.83221857  0.84338630  0.73043601  1  -0.087603  0  -0.247873  -0.347488  0  3.961771  0
C  C134  1  0.01501921  0.89457342  0.20419493  1  -0.010565  0  -0.156359  -0.141451  0  3.978542  0
C  C135  1  0.98181875  0.00833786  0.23246313  1  -0.058416  0  -0.246476  -0.350812  0  3.987493  0
C  C136  1  0.31140212  0.43326963  0.29906537  1  0.013355  0  -0.156303  -0.141132  0  3.97878  0
C  C137  1  0.34710162  0.32017884  0.27000546  1  -0.069253  0  -0.247499  -0.354807  0  3.987038  0
C  C138  1  0.67972314  0.69049853  0.84590166  1  -0.446426  0  -0.010055  0.0001  0  4.05561  0
O  O139  1  0.51253502  0.32354589  0.55413061  1  -1.214881  0  -0.209599  -0.558164  0  2.294481  0
O  O140  1  0.80985771  0.64972070  0.95377890  1  -1.24702  0  -0.225853  -0.588629  0  2.24957  0
O  O141  1  0.02447664  0.62531250  0.95340814  1  -1.245521  0  -0.239255  -0.598011  0  2.234579  0
O  O142  1  0.29669755  0.52834750  0.54743819  1  -1.217919  0  -0.21103  -0.56629  0  2.286139  0
O  O143  1  0.01745532  0.81408799  0.05517130  1  -1.218488  0  -0.204353  -0.545763  0  2.294029  0
O  O144  1  0.81103402  0.02598782  0.04878376  1  -1.207852  0  -0.196215  -0.528094  0  2.27378  0
O  O145  1  0.62830563  0.02358466  0.04687488  1  -1.248445  0  -0.239548  -0.601266  0  2.23286  0
O  O146  1  0.63794329  0.81997673  0.04442067  1  -1.241368  0  -0.224734  -0.587117  0  2.250201  0
O  O147  1  0.81625350  0.64266285  0.04621880  1  -1.237063  0  -0.221596  -0.578599  0  2.238034  0
O  O148  1  0.02630583  0.63127019  0.04549694  1  -1.257259  0  -0.243884  -0.610857  0  2.236849  0
O  O149  1  0.83596145  0.83246584  0.00037788  1  -1.61083  0  -0.390942  -1.275835  0  2.297905  0
O  O150  1  0.50543410  0.69614030  0.45317504  1  -1.243967  0  -0.223603  -0.58108  0  2.238466  0
O  O151  1  0.31086930  0.70137312  0.55036721  1  -1.253654  0  -0.239626  -0.59806  0  2.229622  0
O  O152  1  0.51969755  0.68952338  0.54533926  1  -1.251704  0  -0.228076  -0.59049  0  2.250335  0
O  O153  1  0.69654269  0.51095118  0.54690838  1  -1.248678  0  -0.22979  -0.592363  0  2.24223  0
O  O154  1  0.70232708  0.30785647  0.54380435  1  -1.253216  0  -0.243145  -0.606605  0  2.230879  0
O  O155  1  0.52996937  0.30318349  0.45348582  1  -1.210667  0  -0.196093  -0.52678  0  2.277037  0
O  O156  1  0.31872697  0.51218645  0.44745216  1  -1.222334  0  -0.204774  -0.54696  0  2.290123  0
O  O157  1  0.29899511  0.69927387  0.45794537  1  -1.258533  0  -0.245931  -0.613388  0  2.233927  0
O  O158  1  0.76620998  0.42943184  0.15717422  1  -1.115449  0  -0.268678  -0.455962  0  2.084226  0
O  O159  1  0.88360342  0.35375333  0.22164352  1  -1.094164  0  -0.334023  -0.484622  0  2.219694  0
O  O160  1  0.68905763  0.52397916  0.45451687  1  -1.23081  0  -0.223576  -0.58408  0  2.252189  0
O  O161  1  0.70658614  0.31726957  0.45132223  1  -1.251118  0  -0.239152  -0.599949  0  2.233337  0
O  O162  1  0.49925180  0.50117858  0.50051438  1  -1.604492  0  -0.391067  -1.274594  0  2.297788  0
O  O163  1  0.04400032  0.79571112  0.95518422  1  -1.21644  0  -0.210362  -0.562058  0  2.281137  0
O  O164  1  0.83524262  0.00736558  0.94820064  1  -1.21984  0  -0.210704  -0.563327  0  2.299556  0
O  O165  1  0.64222751  0.02851398  0.95452544  1  -1.24922  0  -0.241734  -0.603492  0  2.23167  0
O  O166  1  0.63612530  0.83089575  0.95177094  1  -1.251481  0  -0.23016  -0.593072  0  2.241047  0
O  O167  1  0.33250688  0.32768568  0.49887021  1  -1.355766  0  -0.573664  -0.98896  0  1.793572  0
O  O168  1  0.01647607  0.99216717  0.00517805  1  -1.354058  0  -0.573743  -0.988982  0  1.794356  0
