# generated using pymatgen
data_ZnH12(C7N4)3
_symmetry_space_group_name_H-M   'P 1'
_cell_length_a   8.55775262
_cell_length_b   8.80272956
_cell_length_c   14.85988854
_cell_angle_alpha   90.00019493
_cell_angle_beta   90.00001872
_cell_angle_gamma   113.33459242
_symmetry_Int_Tables_number   1
_chemical_formula_structural   ZnH12(C7N4)3
_chemical_formula_sum   'Zn2 H24 C42 N24'
_cell_volume   1027.85873045
_cell_formula_units_Z   2
loop_
 _symmetry_equiv_pos_site_id
 _symmetry_equiv_pos_as_xyz
  1  'x, y, z'
loop_
 _atom_site_type_symbol
 _atom_site_label
 _atom_site_symmetry_multiplicity
 _atom_site_fract_x
 _atom_site_fract_y
 _atom_site_fract_z
 _atom_site_occupancy
 _atom_site_hle17_bader_spin_density
 _atom_site_hle17_ddec_charge
 _atom_site_hle17_ddec_spin_density
 _atom_site_hle17_ddec_sum_bond_order
 _atom_site_hle17_magmom
 _atom_site_hse06_10hf_bader_spin_density
 _atom_site_hse06_10hf_ddec_charge
 _atom_site_hse06_10hf_ddec_spin_density
 _atom_site_hse06_10hf_ddec_sum_bond_order
 _atom_site_hse06_10hf_magmom
 _atom_site_hse06_bader_spin_density
 _atom_site_hse06_ddec_charge
 _atom_site_hse06_ddec_spin_density
 _atom_site_hse06_ddec_sum_bond_order
 _atom_site_hse06_magmom
 _atom_site_pbe_bader_spin_density
 _atom_site_pbe_cm5_charge
 _atom_site_pbe_ddec_charge
 _atom_site_pbe_ddec_spin_density
 _atom_site_pbe_ddec_sum_bond_order
 _atom_site_pbe_magmom
Zn  Zn0  1  0.67634667  0.53812888  0.93789727  1  0  0.91649  0  2.026602  0  0  0.721382  0  2.486499  0  0  0.763276  0  2.444916  0  0  0.714031  0.692821  0  2.514418  0
Zn  Zn1  1  0.32365041  0.46187006  0.43789611  1  0  0.916508  0  2.02653  0  0  0.721428  0  2.486411  0  0  0.763321  0  2.44483  0  0  0.714055  0.692867  0  2.514329  0
H  H2  1  0.39405801  0.95985310  0.15236217  1  0  0.110944  0  0.945797  0  0  0.118216  0  1.012589  0  0  0.121139  0  1.01026  0  0  0.111839  0.116073  0  1.014257  0
H  H3  1  0.60593975  0.04014505  0.65235963  1  0  0.110955  0  0.945825  0  0  0.118217  0  1.01262  0  0  0.121167  0  1.010261  0  0  0.111855  0.116074  0  1.014284  0
H  H4  1  0.70839259  0.04877442  0.13066664  1  0  0.119528  0  0.970356  0  0  0.125494  0  1.035637  0  0  0.128688  0  1.034643  0  0  0.109143  0.123208  0  1.036501  0
H  H5  1  0.29160458  0.95122233  0.63066385  1  0  0.119506  0  0.970357  0  0  0.125494  0  1.035608  0  0  0.128689  0  1.034613  0  0  0.10913  0.123206  0  1.036473  0
H  H6  1  0.81283487  0.87269698  0.03746355  1  0  0.078923  0  0.931728  0  0  0.087649  0  0.993182  0  0  0.08991  0  0.991494  0  0  0.11835  0.085956  0  0.994502  0
H  H7  1  0.18716299  0.12730158  0.53746178  1  0  0.078911  0  0.931734  0  0  0.087638  0  0.993184  0  0  0.0899  0  0.991497  0  0  0.118323  0.085946  0  0.994504  0
H  H8  1  0.32248331  0.53837404  0.98250928  1  0  0.089069  0  0.933512  0  0  0.095852  0  0.997819  0  0  0.098259  0  0.996249  0  0  0.121919  0.094064  0  0.99902  0
H  H9  1  0.67751677  0.46162646  0.48250751  1  0  0.08904  0  0.933531  0  0  0.095819  0  0.997837  0  0  0.098223  0  0.996275  0  0  0.121909  0.094033  0  0.999039  0
H  H10  1  0.66250885  0.30873854  0.18267469  1  0  0.125553  0  0.936522  0  0  0.135419  0  0.995099  0  0  0.138337  0  0.994411  0  0  0.115891  0.133285  0  0.995797  0
H  H11  1  0.33748835  0.69126106  0.68267745  1  0  0.125535  0  0.936534  0  0  0.135393  0  0.995122  0  0  0.138312  0  0.994431  0  0  0.1159  0.133242  0  0.995836  0
H  H12  1  0.44340738  0.25802865  0.30248036  1  0  0.096828  0  0.944679  0  0  0.100866  0  1.015106  0  0  0.10392  0  1.012004  0  0  0.117517  0.098604  0  1.017454  0
H  H13  1  0.55659141  0.74197180  0.80248326  1  0  0.096856  0  0.944646  0  0  0.100864  0  1.015095  0  0  0.103918  0  1.011993  0  0  0.11753  0.098603  0  1.017444  0
H  H14  1  0.59036892  0.76000663  0.34817705  1  0  0.085563  0  0.968523  0  0  0.091041  0  1.036827  0  0  0.093209  0  1.035571  0  0  0.116141  0.089451  0  1.037734  0
H  H15  1  0.40963586  0.23999415  0.84817757  1  0  0.085665  0  0.968408  0  0  0.091145  0  1.036696  0  0  0.093308  0  1.035457  0  0  0.116198  0.08955  0  1.037606  0
H  H16  1  0.81134945  0.83319395  0.22902012  1  0  0.107131  0  0.966738  0  0  0.114457  0  1.032541  0  0  0.11712  0  1.032133  0  0  0.108298  0.112507  0  1.032979  0
H  H17  1  0.18865509  0.16680350  0.72901978  1  0  0.107141  0  0.966728  0  0  0.114471  0  1.032529  0  0  0.117148  0  1.032104  0  0  0.108303  0.112521  0  1.032967  0
H  H18  1  0.10205641  0.95125232  0.24999813  1  0  0.117266  0  0.933614  0  0  0.126277  0  0.996462  0  0  0.128814  0  0.994616  0  0  0.117295  0.124361  0  0.997928  0
H  H19  1  0.89794570  0.04874775  0.74999701  1  0  0.117244  0  0.933604  0  0  0.126255  0  0.996451  0  0  0.128793  0  0.994603  0  0  0.117275  0.12434  0  0.997915  0
H  H20  1  0.19435272  0.99034126  0.41078404  1  0  0.102948  0  0.984237  0  0  0.111878  0  1.045077  0  0  0.11388  0  1.046093  0  0  0.107513  0.110428  0  1.044526  0
H  H21  1  0.80565279  0.00966120  0.91078282  1  0  0.102948  0  0.984215  0  0  0.111898  0  1.04505  0  0  0.113898  0  1.046063  0  0  0.107523  0.110448  0  1.0445  0
H  H22  1  0.27384517  0.77377285  0.48503539  1  0  0.086367  0  0.945344  0  0  0.091436  0  1.015655  0  0  0.093662  0  1.013751  0  0  0.117159  0.089726  0  1.017167  0
H  H23  1  0.72616243  0.22622890  0.98503527  1  0  0.086392  0  0.945379  0  0  0.091498  0  1.015651  0  0  0.093701  0  1.013774  0  0  0.117213  0.08979  0  1.017162  0
H  H24  1  0.16320151  0.48663282  0.25386445  1  0  0.106677  0  0.942158  0  0  0.108899  0  1.014842  0  0  0.111226  0  1.013487  0  0  0.121663  0.107153  0  1.01591  0
H  H25  1  0.83679710  0.51336729  0.75386627  1  0  0.106698  0  0.942104  0  0  0.108892  0  1.01482  0  0  0.111221  0  1.013463  0  0  0.121661  0.107149  0  1.015891  0
C  C26  1  0.44289329  0.88679980  0.11064173  1  0  -0.013059  0  3.653322  0  0  -0.044042  0  3.900383  0  0  -0.039442  0  3.917548  0  0  -0.053888  -0.046632  0  3.888614  0
C  C27  1  0.55710533  0.11320052  0.61064001  1  0  -0.013121  0  3.653417  0  0  -0.044121  0  3.90049  0  0  -0.039546  0  3.917649  0  0  -0.053946  -0.046712  0  3.88872  0
C  C28  1  0.61751082  0.93687215  0.09905490  1  0  -0.111364  0  3.719231  0  0  -0.120482  0  3.969006  0  0  -0.128615  0  3.991085  0  0  -0.077401  -0.11533  0  3.954163  0
C  C29  1  0.38248675  0.06312561  0.59905237  1  0  -0.111331  0  3.719216  0  0  -0.120436  0  3.968938  0  0  -0.128574  0  3.99103  0  0  -0.077383  -0.115286  0  3.954097  0
C  C30  1  0.67675489  0.83924951  0.04719372  1  0  0.124713  0  3.702607  0  0  0.092422  0  3.956726  0  0  0.099722  0  3.974437  0  0  0.050145  0.0878  0  3.944632  0
C  C31  1  0.32324351  0.16075036  0.54719272  1  0  0.124689  0  3.702507  0  0  0.0924  0  3.956628  0  0  0.099699  0  3.974338  0  0  0.050164  0.087777  0  3.944534  0
C  C32  1  0.40419828  0.65209391  0.01630431  1  0  0.118293  0  3.653397  0  0  0.077579  0  3.900562  0  0  0.084549  0  3.918331  0  0  0.061633  0.073203  0  3.888479  0
C  C33  1  0.59580118  0.34790574  0.51630306  1  0  0.118317  0  3.653384  0  0  0.077617  0  3.900535  0  0  0.084584  0  3.918303  0  0  0.061642  0.073235  0  3.888457  0
C  C34  1  0.33303622  0.74210139  0.06759617  1  0  -0.042309  0  3.780624  0  0  -0.019532  0  4.018472  0  0  -0.026476  0  4.041017  0  0  0.003826  -0.015398  0  4.003515  0
C  C35  1  0.66696159  0.25789986  0.56759744  1  0  -0.042266  0  3.780516  0  0  -0.019468  0  4.01836  0  0  -0.026397  0  4.040896  0  0  0.003878  -0.015334  0  4.003402  0
C  C36  1  0.14801124  0.68193208  0.07393194  1  0  0.276954  0  3.74176  0  0  0.24003  0  4.022874  0  0  0.253349  0  4.037048  0  0  0.234038  0.231239  0  4.013231  0
C  C37  1  0.85198842  0.31806798  0.57393202  1  0  0.277038  0  3.741584  0  0  0.240071  0  4.022749  0  0  0.253378  0  4.036947  0  0  0.234074  0.231282  0  4.013104  0
C  C38  1  0.89014892  0.61052800  0.12842360  1  0  0.286124  0  3.681558  0  0  0.248937  0  3.953224  0  0  0.263634  0  3.964637  0  0  0.242156  0.239237  0  3.945279  0
C  C39  1  0.10985210  0.38947245  0.62842369  1  0  0.286104  0  3.681581  0  0  0.248906  0  3.953263  0  0  0.263604  0  3.964672  0  0  0.242147  0.239203  0  3.945319  0
C  C40  1  0.75297747  0.57550576  0.19477263  1  0  0.045715  0  3.781775  0  0  0.057319  0  4.022934  0  0  0.058764  0  4.044108  0  0  0.011874  0.056473  0  4.008548  0
C  C41  1  0.24702277  0.42449269  0.69477215  1  0  0.045748  0  3.781754  0  0  0.057354  0  4.022917  0  0  0.058797  0  4.044093  0  0  0.011875  0.056509  0  4.008526  0
C  C42  1  0.64713599  0.41209133  0.21578877  1  0  -0.115097  0  3.663868  0  0  -0.135443  0  3.908727  0  0  -0.141566  0  3.929349  0  0  -0.068284  -0.131529  0  3.894984  0
C  C43  1  0.35286366  0.58790850  0.71579065  1  0  -0.115044  0  3.663907  0  0  -0.135394  0  3.908734  0  0  -0.141517  0  3.929355  0  0  -0.068278  -0.131464  0  3.894993  0
C  C44  1  0.52598445  0.38361538  0.28334105  1  0  0.14318  0  3.664076  0  0  0.110371  0  3.916642  0  0  0.117042  0  3.933301  0  0  0.054016  0.106043  0  3.905341  0
C  C45  1  0.47401276  0.61638122  0.78334301  1  0  0.143091  0  3.664282  0  0  0.110337  0  3.916777  0  0  0.117008  0  3.933436  0  0  0.05398  0.106007  0  3.905475  0
C  C46  1  0.60946485  0.66428615  0.30901717  1  0  0.134137  0  3.693362  0  0  0.102679  0  3.942742  0  0  0.108974  0  3.960667  0  0  0.046062  0.098611  0  3.930612  0
C  C47  1  0.39053763  0.33571188  0.80901653  1  0  0.13407  0  3.693155  0  0  0.102601  0  3.94254  0  0  0.108892  0  3.960464  0  0  0.046007  0.098537  0  3.930411  0
C  C48  1  0.73291926  0.70390681  0.24242116  1  0  -0.149617  0  3.730625  0  0  -0.170861  0  3.982311  0  0  -0.177124  0  4.003936  0  0  -0.083141  -0.166806  0  3.967854  0
C  C49  1  0.26708298  0.29609074  0.74242110  1  0  -0.149682  0  3.730548  0  0  -0.170941  0  3.982255  0  0  -0.177212  0  4.003868  0  0  -0.083172  -0.166884  0  3.967797  0
C  C50  1  0.12333233  0.71458929  0.24183632  1  0  0.121741  0  3.785743  0  0  0.12157  0  4.035526  0  0  0.120262  0  4.059654  0  0  0.094389  0.12209  0  4.019327  0
C  C51  1  0.87666858  0.28541072  0.74183568  1  0  0.121718  0  3.785709  0  0  0.121547  0  4.035486  0  0  0.120239  0  4.059616  0  0  0.094379  0.122069  0  4.01929  0
C  C52  1  0.13297726  0.85832095  0.28532401  1  0  -0.064256  0  3.684777  0  0  -0.095499  0  3.941127  0  0  -0.092104  0  3.957957  0  0  -0.05578  -0.097427  0  3.929768  0
C  C53  1  0.86702614  0.14167938  0.78532374  1  0  -0.064178  0  3.684729  0  0  -0.095399  0  3.941084  0  0  -0.092002  0  3.957914  0  0  -0.055717  -0.097328  0  3.929724  0
C  C54  1  0.18544125  0.88018840  0.37451178  1  0  -0.079969  0  3.706088  0  0  -0.090036  0  3.953121  0  0  -0.097376  0  3.974678  0  0  -0.070932  -0.085473  0  3.938784  0
C  C55  1  0.81456463  0.11981504  0.87451147  1  0  -0.080024  0  3.70612  0  0  -0.090134  0  3.953225  0  0  -0.097469  0  3.974771  0  0  -0.070968  -0.085571  0  3.938893  0
C  C56  1  0.23052010  0.76136400  0.41545612  1  0  0.151037  0  3.650584  0  0  0.114483  0  3.902084  0  0  0.122654  0  3.91845  0  0  0.062809  0.109251  0  3.890995  0
C  C57  1  0.76948441  0.23863602  0.91545872  1  0  0.151071  0  3.650457  0  0  0.11448  0  3.901995  0  0  0.12267  0  3.918365  0  0  0.062815  0.109245  0  3.890915  0
C  C58  1  0.17144823  0.60076695  0.28651286  1  0  0.06971  0  3.642736  0  0  0.029235  0  3.892875  0  0  0.035975  0  3.909349  0  0  0.058998  0.024855  0  3.881931  0
C  C59  1  0.82855517  0.39923338  0.78651243  1  0  0.069742  0  3.6427  0  0  0.029286  0  3.892838  0  0  0.036026  0  3.909316  0  0  0.05904  0.024901  0  3.881902  0
C  C60  1  0.99312429  0.83127305  0.86307604  1  0  0.523007  0  4.004045  0  0  0.479485  0  4.296643  0  0  0.508162  0  4.304946  0  0  0.307809  0.459993  0  4.290562  0
C  C61  1  0.00687102  0.16872164  0.36306817  1  0  0.523078  0  4.004005  0  0  0.479599  0  4.296585  0  0  0.508273  0  4.304886  0  0  0.307863  0.460106  0  4.290504  0
C  C62  1  0.28388407  0.93053451  0.83299711  1  0  0.458521  0  4.011322  0  0  0.430706  0  4.298884  0  0  0.453898  0  4.310792  0  0  0.275109  0.4149  0  4.290453  0
C  C63  1  0.71610629  0.06946244  0.33299456  1  0  0.458427  0  4.011118  0  0  0.430652  0  4.298669  0  0  0.453839  0  4.310586  0  0  0.275128  0.414843  0  4.290237  0
C  C64  1  0.36859002  0.26377694  0.05184793  1  0  0.507434  0  3.99668  0  0  0.470521  0  4.282012  0  0  0.497358  0  4.291619  0  0  0.303988  0.452246  0  4.275066  0
C  C65  1  0.63140858  0.73622915  0.55184881  1  0  0.507536  0  3.996625  0  0  0.470615  0  4.281935  0  0  0.497453  0  4.291543  0  0  0.304054  0.452338  0  4.274989  0
C  C66  1  0.11050235  0.22232412  0.11674472  1  0  0.444203  0  4.019678  0  0  0.422744  0  4.304504  0  0  0.445316  0  4.316738  0  0  0.266414  0.407323  0  4.295873  0
C  C67  1  0.88949247  0.77768119  0.61674573  1  0  0.444146  0  4.019288  0  0  0.42267  0  4.304128  0  0  0.445244  0  4.31636  0  0  0.266324  0.407251  0  4.295498  0
N  N68  1  0.57239678  0.69833951  0.00737564  1  0  -0.310766  0  3.286748  0  0  -0.23222  0  3.551688  0  0  -0.250466  0  3.570228  0  0  -0.314614  -0.21996  0  3.538868  0
N  N69  1  0.42760332  0.30165884  0.50737360  1  0  -0.310722  0  3.286638  0  0  -0.232194  0  3.551576  0  0  -0.25044  0  3.570117  0  0  -0.314613  -0.219934  0  3.538755  0
N  N70  1  0.03987493  0.62185292  0.00669583  1  0  -0.240736  0  2.913161  0  0  -0.231631  0  3.197624  0  0  -0.240566  0  3.212951  0  0  -0.211526  -0.225487  0  3.187154  0
N  N71  1  0.96012299  0.37814295  0.50669673  1  0  -0.24077  0  2.913288  0  0  -0.231655  0  3.197771  0  0  -0.240591  0  3.213107  0  0  -0.211557  -0.225513  0  3.187299  0
N  N72  1  0.87883637  0.57783457  0.04089464  1  0  -0.27261  0  3.128547  0  0  -0.218311  0  3.421674  0  0  -0.232695  0  3.436171  0  0  -0.211026  -0.208566  0  3.41172  0
N  N73  1  0.12116283  0.42216155  0.54089413  1  0  -0.272604  0  3.128634  0  0  -0.2183  0  3.421746  0  0  -0.232683  0  3.436245  0  0  -0.211026  -0.208553  0  3.411788  0
N  N74  1  0.05932077  0.67934755  0.15199240  1  0  -0.193756  0  3.509937  0  0  -0.115128  0  3.729032  0  0  -0.131468  0  3.750942  0  0  -0.207425  -0.104235  0  3.714114  0
N  N75  1  0.94067932  0.32065059  0.65199184  1  0  -0.19382  0  3.509903  0  0  -0.115182  0  3.729031  0  0  -0.13152  0  3.750943  0  0  -0.207453  -0.104291  0  3.714115  0
N  N76  1  0.50829449  0.50725450  0.32937045  1  0  -0.317041  0  3.283632  0  0  -0.236578  0  3.540868  0  0  -0.253639  0  3.558282  0  0  -0.318237  -0.225062  0  3.528885  0
N  N77  1  0.49170723  0.49274738  0.82937150  1  0  -0.317011  0  3.283707  0  0  -0.236537  0  3.540881  0  0  -0.253596  0  3.558293  0  0  -0.318213  -0.225021  0  3.528902  0
N  N78  1  0.22653478  0.62637819  0.37179415  1  0  -0.288394  0  3.292093  0  0  -0.207235  0  3.55254  0  0  -0.225341  0  3.569863  0  0  -0.310172  -0.195055  0  3.540474  0
N  N79  1  0.77346876  0.37362523  0.87179299  1  0  -0.288477  0  3.292027  0  0  -0.207302  0  3.552468  0  0  -0.225407  0  3.569781  0  0  -0.310252  -0.195111  0  3.540379  0
N  N80  1  0.84584618  0.74587547  0.86745080  1  0  -0.636716  0  2.875392  0  0  -0.58911  0  3.177305  0  0  -0.611571  0  3.178843  0  0  -0.403108  -0.573723  0  3.176007  0
N  N81  1  0.15414815  0.25412544  0.36744784  1  0  -0.636853  0  2.875349  0  0  -0.589262  0  3.177252  0  0  -0.611731  0  3.178796  0  0  -0.403236  -0.573876  0  3.175951  0
N  N82  1  0.14506955  0.94188348  0.86167498  1  0  -0.472693  0  3.334223  0  0  -0.419507  0  3.596484  0  0  -0.444225  0  3.601966  0  0  -0.318202  -0.402228  0  3.591938  0
N  N83  1  0.85492293  0.05811863  0.36166907  1  0  -0.472573  0  3.334236  0  0  -0.419457  0  3.596552  0  0  -0.444148  0  3.60199  0  0  -0.318128  -0.402174  0  3.592007  0
N  N84  1  0.41953013  0.94162702  0.80895052  1  0  -0.572153  0  2.597899  0  0  -0.549451  0  2.834148  0  0  -0.566031  0  2.844759  0  0  -0.371843  -0.537947  0  2.826827  0
N  N85  1  0.58045949  0.05837100  0.30894792  1  0  -0.572109  0  2.597731  0  0  -0.549424  0  2.833981  0  0  -0.566009  0  2.844598  0  0  -0.371873  -0.537927  0  2.826673  0
N  N86  1  0.49568222  0.33120994  0.01057515  1  0  -0.622667  0  2.884096  0  0  -0.574713  0  3.178175  0  0  -0.596391  0  3.181651  0  0  -0.387555  -0.559899  0  3.175651  0
N  N87  1  0.50431722  0.66878967  0.51057319  1  0  -0.622744  0  2.884037  0  0  -0.574795  0  3.178131  0  0  -0.596477  0  3.18161  0  0  -0.387594  -0.55998  0  3.175605  0
N  N88  1  0.23694993  0.17884003  0.09947403  1  0  -0.474375  0  3.280181  0  0  -0.425297  0  3.540359  0  0  -0.448877  0  3.54446  0  0  -0.32345  -0.408758  0  3.53673  0
N  N89  1  0.76304716  0.82116516  0.59947511  1  0  -0.474329  0  3.2802  0  0  -0.425224  0  3.540361  0  0  -0.448808  0  3.544466  0  0  -0.323395  -0.408688  0  3.536735  0
N  N90  1  0.99079555  0.25014797  0.13691052  1  0  -0.570478  0  2.581587  0  0  -0.551878  0  2.808266  0  0  -0.567137  0  2.817285  0  0  -0.383448  -0.541388  0  2.802136  0
N  N91  1  0.00920483  0.74985377  0.63691064  1  0  -0.570512  0  2.58122  0  0  -0.55191  0  2.807891  0  0  -0.56717  0  2.816912  0  0  -0.383435  -0.541422  0  2.801762  0
