# generated using pymatgen
data_AlH13(C2O)5
_symmetry_space_group_name_H-M   'P 1'
_cell_length_a   6.65604423
_cell_length_b   14.14212335
_cell_length_c   15.55131466
_cell_angle_alpha   90.00015805
_cell_angle_beta   90.00033183
_cell_angle_gamma   89.99887911
_symmetry_Int_Tables_number   1
_chemical_formula_structural   AlH13(C2O)5
_chemical_formula_sum   'Al4 H52 C40 O20'
_cell_volume   1463.85455579
_cell_formula_units_Z   4
loop_
 _symmetry_equiv_pos_site_id
 _symmetry_equiv_pos_as_xyz
  1  'x, y, z'
loop_
 _atom_site_type_symbol
 _atom_site_label
 _atom_site_symmetry_multiplicity
 _atom_site_fract_x
 _atom_site_fract_y
 _atom_site_fract_z
 _atom_site_occupancy
 _atom_site_pbe_bader_charge
 _atom_site_pbe_bader_spin_density
 _atom_site_pbe_cm5_charge
 _atom_site_pbe_ddec_charge
 _atom_site_pbe_ddec_spin_density
 _atom_site_pbe_ddec_sum_bond_order
 _atom_site_pbe_magmom
Al  Al0  1  0.99771956  0.74830036  0.50000284  1  2.48113  0  0.396707  1.649335  0  2.584982  0
Al  Al1  1  0.50846326  0.24706040  0.00000483  1  2.480392  0  0.397265  1.651169  0  2.581269  0
Al  Al2  1  0.49772130  0.75169453  0.50000007  1  2.481186  0  0.396774  1.649564  0  2.584572  0
Al  Al3  1  0.00847397  0.25292309  0.00000399  1  2.480381  0  0.3973  1.650943  0  2.581116  0
H  H4  1  0.99909200  0.62696841  0.75078865  1  0.048017  0  0.093761  0.092881  0  0.990159  0
H  H5  1  0.44775753  0.48507270  0.15855863  1  -0.004285  0  0.08824  0.082622  0  0.991846  0
H  H6  1  0.49908773  0.87301586  0.24921233  1  0.047332  0  0.09376  0.092792  0  0.990217  0
H  H7  1  0.94786366  0.01481680  0.84150537  1  -0.004649  0  0.088211  0.082496  0  0.99167  0
H  H8  1  0.76406730  0.66728243  0.78908472  1  0.021405  0  0.08993  0.08369  0  0.981819  0
H  H9  1  0.45586829  0.39347204  0.23431619  1  0.02068  0  0.091358  0.088724  0  0.987087  0
H  H10  1  0.26404944  0.83271308  0.21092320  1  0.021246  0  0.089971  0.083742  0  0.981707  0
H  H11  1  0.95574588  0.10644992  0.76577871  1  0.020896  0  0.091325  0.088646  0  0.986697  0
H  H12  1  0.77654010  0.55573221  0.89938147  1  0.000838  0  0.087348  0.078189  0  0.98859  0
H  H13  1  0.45269178  0.50450516  0.34579363  1  -0.002471  0  0.087676  0.081375  0  0.99062  0
H  H14  1  0.27651788  0.94426319  0.10062584  1  0.000952  0  0.087354  0.078158  0  0.988597  0
H  H15  1  0.95262047  0.99549154  0.65424193  1  -0.001453  0  0.087718  0.081485  0  0.990579  0
H  H16  1  0.00768481  0.51238625  0.85991855  1  0.007814  0  0.091993  0.089467  0  0.99314  0
H  H17  1  0.44189474  0.59617301  0.27003543  1  0.022719  0  0.091321  0.089363  0  0.985713  0
H  H18  1  0.50767993  0.98759877  0.14008143  1  0.007242  0  0.092037  0.089502  0  0.993042  0
H  H19  1  0.94195130  0.90379550  0.72997309  1  0.022712  0  0.091352  0.08941  0  0.986082  0
H  H20  1  0.01508051  0.49504316  0.64174086  1  0.057827  0  0.092454  0.091127  0  0.99469  0
H  H21  1  0.77647950  0.55573095  0.10062521  1  0.002361  0  0.087372  0.078168  0  0.98859  0
H  H22  1  0.51510471  0.00493778  0.35825418  1  0.057562  0  0.092422  0.091018  0  0.994906  0
H  H23  1  0.27672421  0.94425313  0.89936860  1  0.006262  0  0.087387  0.07824  0  0.98859  0
H  H24  1  0.01849241  0.38187866  0.75217328  1  0.051718  0  0.094133  0.09363  0  0.991009  0
H  H25  1  0.76404223  0.66728384  0.21092267  1  0.021494  0  0.089985  0.083795  0  0.981723  0
H  H26  1  0.51851819  0.11811074  0.24783013  1  0.051442  0  0.094044  0.093597  0  0.990894  0
H  H27  1  0.26423076  0.83271592  0.78906596  1  0.021441  0  0.089952  0.083753  0  0.981921  0
H  H28  1  0.45266910  0.50450875  0.65421835  1  -0.00206  0  0.087667  0.081398  0  0.99062  0
H  H29  1  0.01855330  0.38189792  0.24781592  1  0.051153  0  0.093965  0.093537  0  0.990989  0
H  H30  1  0.95268221  0.99549219  0.34579019  1  -0.002375  0  0.087657  0.0814  0  0.990642  0
H  H31  1  0.51838669  0.11816502  0.75213669  1  0.052136  0  0.094109  0.093665  0  0.990854  0
H  H32  1  0.44189526  0.59618545  0.72997403  1  0.02247  0  0.09139  0.089374  0  0.985816  0
H  H33  1  0.79446737  0.33248481  0.28887931  1  0.038017  0  0.089772  0.083756  0  0.981465  0
H  H34  1  0.94189069  0.90382124  0.27003384  1  0.022585  0  0.091398  0.089408  0  0.985607  0
H  H35  1  0.29418770  0.16752482  0.71112244  1  0.036626  0  0.089818  0.083767  0  0.981363  0
H  H36  1  0.44777104  0.48510549  0.84146296  1  -0.004459  0  0.088183  0.082568  0  0.991474  0
H  H37  1  0.79234853  0.44433746  0.39908098  1  0.008548  0  0.087295  0.078226  0  0.988308  0
H  H38  1  0.94777502  0.01490562  0.15854703  1  -0.004189  0  0.088156  0.082535  0  0.991584  0
H  H39  1  0.29214491  0.05568492  0.60090984  1  0.009881  0  0.087258  0.078369  0  0.988759  0
H  H40  1  0.45582855  0.39349385  0.76570985  1  0.02128  0  0.091352  0.088608  0  0.986893  0
H  H41  1  0.01511382  0.49505872  0.35825164  1  0.057544  0  0.092374  0.090941  0  0.994914  0
H  H42  1  0.95585472  0.10651366  0.23430274  1  0.021073  0  0.091375  0.088768  0  0.986979  0
H  H43  1  0.51499478  0.00500849  0.64170160  1  0.058529  0  0.092488  0.091222  0  0.994699  0
H  H44  1  0.79229082  0.44433300  0.60092308  1  0.010337  0  0.087284  0.078265  0  0.988362  0
H  H45  1  0.00765761  0.51239861  0.14006687  1  0.007793  0  0.091971  0.089409  0  0.993104  0
H  H46  1  0.29232882  0.05565472  0.39908510  1  0.009808  0  0.087352  0.078351  0  0.988397  0
H  H47  1  0.50779727  0.98764650  0.85987846  1  0.007193  0  0.091959  0.089517  0  0.992862  0
H  H48  1  0.79437758  0.33248302  0.71112529  1  0.037681  0  0.089789  0.083819  0  0.981515  0
H  H49  1  0.99908829  0.62697778  0.24920212  1  0.048062  0  0.09379  0.092879  0  0.99021  0
H  H50  1  0.29441722  0.16750681  0.28888483  1  0.010234  0  0.089808  0.083758  0  0.981556  0
H  H51  1  0.49918157  0.87307083  0.75073456  1  0.047149  0  0.093921  0.093068  0  0.990145  0
H  H52  1  0.25230054  0.62461567  0.50001568  1  0.635051  0  0.355963  0.432081  0  0.850415  0
H  H53  1  0.26638562  0.37541593  0.99999711  1  0.632174  0  0.355793  0.43172  0  0.849982  0
H  H54  1  0.75229172  0.87538206  0.50000184  1  0.635253  0  0.355978  0.432174  0  0.850265  0
H  H55  1  0.76639381  0.12457872  0.99997339  1  0.631831  0  0.355768  0.431606  0  0.85003  0
C  C56  1  0.24616300  0.86536060  0.61562659  1  1.561163  0  0.271932  0.636914  0  4.03343  0
C  C57  1  0.25551719  0.13499658  0.11593217  1  1.578383  0  0.271956  0.635208  0  4.035388  0
C  C58  1  0.74616371  0.63464073  0.38436841  1  1.56103  0  0.272058  0.637103  0  4.033399  0
C  C59  1  0.75551821  0.36499500  0.88408168  1  1.578689  0  0.271967  0.635276  0  4.035221  0
C  C60  1  0.24614546  0.86535154  0.38436639  1  1.560829  0  0.272185  0.637337  0  4.033035  0
C  C61  1  0.25550554  0.13499494  0.88407816  1  1.578193  0  0.272019  0.635238  0  4.035272  0
C  C62  1  0.74614670  0.63464200  0.61563696  1  1.560933  0  0.271892  0.63685  0  4.03369  0
C  C63  1  0.75552385  0.36499311  0.11592797  1  1.578309  0  0.271821  0.635004  0  4.035456  0
C  C64  1  0.84692262  0.60388913  0.76836568  1  -0.035735  0  -0.155944  -0.169398  0  3.850689  0
C  C65  1  0.53098044  0.45931750  0.21494178  1  0.018487  0  -0.164193  -0.177396  0  3.889105  0
C  C66  1  0.34691718  0.89610212  0.23163930  1  -0.034354  0  -0.155876  -0.169273  0  3.850594  0
C  C67  1  0.03096690  0.04061876  0.78511119  1  0.018916  0  -0.164244  -0.177036  0  3.888422  0
C  C68  1  0.85251348  0.52919188  0.84128168  1  -0.000137  0  -0.156416  -0.168427  0  3.856516  0
C  C69  1  0.52791126  0.53298627  0.28841341  1  0.000477  0  -0.163851  -0.176521  0  3.889319  0
C  C70  1  0.35251314  0.97080003  0.15872332  1  8.1e-05  0  -0.156585  -0.168493  0  3.856555  0
C  C71  1  0.02789942  0.96699857  0.71160658  1  -0.000637  0  -0.163868  -0.176851  0  3.889987  0
C  C72  1  0.86204208  0.47345223  0.65943016  1  -0.029445  0  -0.157789  -0.170336  0  3.859484  0
C  C73  1  0.85249546  0.52919515  0.15871623  1  -0.00013  0  -0.156455  -0.168302  0  3.856484  0
C  C74  1  0.36206732  0.02653771  0.34057568  1  -0.028441  0  -0.157836  -0.170448  0  3.859865  0
C  C75  1  0.35262732  0.97081161  0.84126176  1  -0.003708  0  -0.156456  -0.168509  0  3.856237  0
C  C76  1  0.52790110  0.53299226  0.71159821  1  9.5e-05  0  -0.163952  -0.176719  0  3.889413  0
C  C77  1  0.86421295  0.39900770  0.26744398  1  -0.079564  0  -0.156307  -0.17027  0  3.852925  0
C  C78  1  0.02790357  0.96700884  0.28840956  1  0.000343  0  -0.163902  -0.176627  0  3.889355  0
C  C79  1  0.36405958  0.10101687  0.73253422  1  -0.079363  0  -0.156711  -0.170551  0  3.852786  0
C  C80  1  0.74331059  0.56209934  0.68786876  1  0.05212  0  -0.015616  0.013515  0  3.811464  0
C  C81  1  0.74845984  0.43704897  0.18852764  1  0.020347  0  -0.015857  0.015435  0  3.806764  0
C  C82  1  0.24331154  0.93789564  0.31213652  1  0.05135  0  -0.015705  0.013406  0  3.811428  0
C  C83  1  0.24845907  0.06293418  0.81147975  1  0.019703  0  -0.015636  0.01552  0  3.80672  0
C  C84  1  0.74844304  0.43705121  0.81148012  1  0.020149  0  -0.015836  0.01549  0  3.806494  0
C  C85  1  0.74332096  0.56209700  0.31213653  1  0.051433  0  -0.015703  0.01346  0  3.811811  0
C  C86  1  0.24846234  0.06294325  0.18853242  1  0.020235  0  -0.015758  0.015439  0  3.806921  0
C  C87  1  0.24331469  0.93791283  0.68785395  1  0.052301  0  -0.01555  0.013757  0  3.811096  0
C  C88  1  0.86415340  0.39900036  0.73255642  1  -0.08004  0  -0.156505  -0.17047  0  3.853012  0
C  C89  1  0.84691275  0.60389205  0.23163614  1  -0.035895  0  -0.155945  -0.169515  0  3.850659  0
C  C90  1  0.36418825  0.10098957  0.26745522  1  -0.052312  0  -0.156425  -0.170213  0  3.852963  0
C  C91  1  0.34702470  0.89612536  0.76833604  1  -0.034519  0  -0.15613  -0.169765  0  3.850646  0
C  C92  1  0.53096642  0.45933659  0.78507814  1  0.018057  0  -0.164136  -0.177079  0  3.888276  0
C  C93  1  0.86207824  0.47345852  0.34057030  1  -0.0286  0  -0.157649  -0.170082  0  3.859711  0
C  C94  1  0.03097641  0.04066826  0.21493303  1  0.018038  0  -0.164126  -0.177299  0  3.88876  0
C  C95  1  0.36196055  0.02657314  0.65940403  1  -0.031387  0  -0.157748  -0.170543  0  3.860327  0
O  O96  1  0.41780816  0.83963407  0.41212445  1  -1.255252  0  -0.239609  -0.601702  0  2.350708  0
O  O97  1  0.08845383  0.16498416  0.91260796  1  -1.257752  0  -0.233661  -0.592017  0  2.383647  0
O  O98  1  0.91781104  0.66035020  0.58787176  1  -1.255261  0  -0.239437  -0.601384  0  2.350695  0
O  O99  1  0.58845368  0.33499261  0.08740533  1  -1.257787  0  -0.233626  -0.592082  0  2.383587  0
O  O100  1  0.07790441  0.83654522  0.58732515  1  -1.263994  0  -0.23392  -0.591524  0  2.374058  0
O  O101  1  0.42812507  0.15895822  0.08789947  1  -1.256371  0  -0.239758  -0.600344  0  2.343074  0
O  O102  1  0.57792514  0.66344767  0.41267957  1  -1.26377  0  -0.234005  -0.591634  0  2.374347  0
O  O103  1  0.92809884  0.34103186  0.91211045  1  -1.256245  0  -0.239636  -0.600156  0  2.343264  0
O  O104  1  0.07791716  0.83654125  0.41267625  1  -1.263664  0  -0.233876  -0.591483  0  2.374479  0
O  O105  1  0.42812418  0.15895105  0.91211082  1  -1.256027  0  -0.239702  -0.600323  0  2.343021  0
O  O106  1  0.57792140  0.66346154  0.58733683  1  -1.263949  0  -0.233834  -0.5914  0  2.374552  0
O  O107  1  0.92810874  0.34103478  0.08789332  1  -1.256281  0  -0.23964  -0.600116  0  2.343285  0
O  O108  1  0.91781628  0.66036037  0.41212520  1  -1.255366  0  -0.239458  -0.601402  0  2.35091  0
O  O109  1  0.58844528  0.33499959  0.91260823  1  -1.257819  0  -0.233685  -0.592282  0  2.38354  0
O  O110  1  0.41779541  0.83965431  0.58786008  1  -1.255356  0  -0.239391  -0.601406  0  2.351165  0
O  O111  1  0.08846523  0.16499698  0.08740763  1  -1.257679  0  -0.233567  -0.591971  0  2.383554  0
O  O112  1  0.24893668  0.69294772  0.50000349  1  -1.44063  0  -0.449272  -0.998527  0  2.2316  0
O  O113  1  0.26055344  0.30712531  0.00000122  1  -1.436559  0  -0.449261  -0.998791  0  2.22902  0
O  O114  1  0.74893086  0.80705005  0.49999923  1  -1.440798  0  -0.449323  -0.998668  0  2.231488  0
O  O115  1  0.76055562  0.19287084  0.00000265  1  -1.436347  0  -0.449238  -0.998684  0  2.229045  0
