# generated using pymatgen
data_CuH16C13NO4
_symmetry_space_group_name_H-M   'P 1'
_cell_length_a   11.29570145
_cell_length_b   12.04469221
_cell_length_c   12.04457880
_cell_angle_alpha   70.93864751
_cell_angle_beta   62.54147288
_cell_angle_gamma   62.54142440
_symmetry_Int_Tables_number   1
_chemical_formula_structural   CuH16C13NO4
_chemical_formula_sum   'Cu4 H64 C52 N4 O16'
_cell_volume   1276.69766768
_cell_formula_units_Z   4
loop_
 _symmetry_equiv_pos_site_id
 _symmetry_equiv_pos_as_xyz
  1  'x, y, z'
loop_
 _atom_site_type_symbol
 _atom_site_label
 _atom_site_symmetry_multiplicity
 _atom_site_fract_x
 _atom_site_fract_y
 _atom_site_fract_z
 _atom_site_occupancy
 _atom_site_pbe_bader_charge
 _atom_site_pbe_bader_spin_density
 _atom_site_pbe_cm5_charge
 _atom_site_pbe_ddec_charge
 _atom_site_pbe_ddec_spin_density
 _atom_site_pbe_ddec_sum_bond_order
 _atom_site_pbe_magmom
Cu  Cu0  1  0.75000027  0.12008721  0.87991441  1  1.053536  -0.523586  0.675685  0.743145  -0.671117  2.383786  -0.521
Cu  Cu1  1  0.24999860  0.87988984  0.12010943  1  1.054307  -0.523588  0.675772  0.743332  -0.671153  2.384476  -0.521
Cu  Cu2  1  0.75000194  0.30478873  0.69521219  1  1.051975  0.522283  0.67161  0.73232  0.670257  2.384877  0.52
Cu  Cu3  1  0.24999750  0.69520349  0.30479902  1  1.05215  0.522366  0.671617  0.732324  0.670343  2.384893  0.52
H  H4  1  0.96860752  0.90696115  0.98898491  1  0.146899  -1.9e-05  0.121217  0.102202  -1.6e-05  0.996476  0.0
H  H5  1  0.53139344  0.01100814  0.09304375  1  0.146948  -1.9e-05  0.121167  0.102149  -1.6e-05  0.996455  0.0
H  H6  1  0.03140026  0.09303018  0.01101135  1  0.146877  -1.9e-05  0.121127  0.102109  -1.6e-05  0.99657  0.0
H  H7  1  0.46860857  0.98898978  0.90696118  1  0.146839  -1.9e-05  0.121171  0.102168  -1.6e-05  0.996415  0.0
H  H8  1  0.97748696  0.72765139  0.16635401  1  0.106673  -5.3e-05  0.108863  0.117634  -3.7e-05  1.031856  0.0
H  H9  1  0.52253163  0.83363148  0.27234385  1  0.10655  -5.3e-05  0.108856  0.117595  -3.7e-05  1.031853  0.0
H  H10  1  0.02252802  0.27233238  0.83364491  1  0.10661  -5.3e-05  0.10886  0.117659  -3.7e-05  1.03185  0.0
H  H11  1  0.47746699  0.16636265  0.72766211  1  0.106608  -5.3e-05  0.108863  0.117628  -3.7e-05  1.031891  0.0
H  H12  1  0.88187995  0.50713009  0.57588478  1  0.086229  -2.9e-05  0.119238  0.087798  -4.4e-05  1.011667  0.0
H  H13  1  0.61812036  0.42412164  0.49287348  1  0.086063  -2.9e-05  0.119234  0.087753  -4.4e-05  1.011769  0.0
H  H14  1  0.11809993  0.49288480  0.42412922  1  0.08597  -2.9e-05  0.119187  0.08777  -4.3e-05  1.011634  0.0
H  H15  1  0.38189481  0.57586876  0.50712072  1  0.086057  -2.9e-05  0.119221  0.08781  -4.4e-05  1.011709  0.0
H  H16  1  0.89547573  0.68248751  0.39556826  1  0.12488  4.8e-05  0.108559  0.122699  6.3e-05  1.043237  0.0
H  H17  1  0.60453121  0.60443509  0.31751014  1  0.124091  4.8e-05  0.108538  0.12267  6.3e-05  1.043179  0.0
H  H18  1  0.10451473  0.31752833  0.60444667  1  0.125217  4.8e-05  0.108576  0.122759  6.3e-05  1.043098  0.0
H  H19  1  0.39547876  0.39555343  0.68248028  1  0.124216  4.8e-05  0.108555  0.12269  6.3e-05  1.04312  0.0
H  H20  1  0.27639633  0.27298539  0.00424102  1  0.075023  0.001064  0.100801  0.122704  0.000453  1.007503  0.0
H  H21  1  0.22360554  0.99575688  0.72701616  1  0.075033  0.001064  0.100835  0.122758  0.000453  1.007493  0.0
H  H22  1  0.72358723  0.72704670  0.99572264  1  0.076928  0.001059  0.1009  0.122905  0.000451  1.00718  0.0
H  H23  1  0.77641255  0.00428088  0.27294982  1  0.076898  0.001059  0.100897  0.122876  0.000451  1.007174  0.0
H  H24  1  0.25921865  0.41673817  0.89588836  1  0.013272  -0.001913  0.09522  0.111012  -0.000881  0.998339  -0.001
H  H25  1  0.24078293  0.10410811  0.58326090  1  0.013193  -0.001914  0.095212  0.111015  -0.000881  0.998326  -0.001
H  H26  1  0.74085073  0.58329394  0.10407635  1  0.013463  -0.001911  0.095188  0.110992  -0.00088  0.998145  -0.001
H  H27  1  0.75914496  0.89593058  0.41670396  1  0.013401  -0.001911  0.095207  0.111032  -0.00088  0.998123  -0.001
H  H28  1  0.40456015  0.53112541  0.94140845  1  0.085948  0.00138  0.107271  0.140006  0.000733  0.979697  0.001
H  H29  1  0.09543833  0.05859056  0.46887258  1  0.08592  0.00138  0.10729  0.140045  0.000733  0.979636  0.001
H  H30  1  0.59544082  0.46887731  0.05857296  1  0.085951  0.001378  0.107264  0.139981  0.000732  0.979752  0.001
H  H31  1  0.90456066  0.94142631  0.53111922  1  0.085939  0.001379  0.107261  0.139957  0.000733  0.979772  0.001
H  H32  1  0.22925222  0.60512507  0.94484549  1  0.042237  0.000676  0.103214  0.123679  0.000329  0.976309  0.0
H  H33  1  0.27074662  0.05515316  0.39487192  1  0.042248  0.000676  0.103196  0.123641  0.000329  0.976356  0.0
H  H34  1  0.77072767  0.39488507  0.05517336  1  0.04226  0.000677  0.103171  0.12361  0.00033  0.976524  0.0
H  H35  1  0.72927311  0.94482877  0.60511059  1  0.042186  0.000678  0.103183  0.123621  0.00033  0.976541  0.0
H  H36  1  0.46735945  0.32994472  0.10613981  1  0.045954  -1e-05  0.086516  0.131972  -3.9e-05  1.029399  0.0
H  H37  1  0.03264144  0.89386195  0.67005477  1  0.045948  -1e-05  0.086507  0.131961  -3.9e-05  1.02942  0.0
H  H38  1  0.53263718  0.67005412  0.89386798  1  0.045912  -1e-05  0.086482  0.131917  -3.9e-05  1.029507  0.0
H  H39  1  0.96736097  0.10613504  0.32994448  1  0.04594  -1e-05  0.086474  0.131893  -3.9e-05  1.029556  0.0
H  H40  1  0.34748715  0.24920974  0.18599392  1  0.027259  -0.000157  0.086949  0.124239  -0.000101  1.008106  0.0
H  H41  1  0.15251276  0.81400692  0.75079215  1  0.027198  -0.000157  0.086951  0.124252  -0.000101  1.008108  0.0
H  H42  1  0.65249989  0.75080235  0.81400958  1  0.027137  -0.000157  0.086937  0.124229  -0.000101  1.008013  0.0
H  H43  1  0.84749719  0.18599579  0.24919450  1  0.027163  -0.000157  0.086962  0.124274  -0.000101  1.007986  0.0
H  H44  1  0.31132197  0.38764676  0.23913101  1  0.044615  0.000197  0.084097  0.122305  0.000153  1.049322  0.0
H  H45  1  0.18867688  0.76087193  0.61235230  1  0.044589  0.000197  0.08408  0.12228  0.000153  1.049327  0.0
H  H46  1  0.68866988  0.61235870  0.76087837  1  0.044704  0.000197  0.084086  0.122257  0.000153  1.049366  0.0
H  H47  1  0.81132691  0.23912414  0.38764084  1  0.04439  0.000197  0.084082  0.122259  0.000153  1.049325  0.0
H  H48  1  0.06975818  0.51806696  0.21355880  1  0.032762  5.2e-05  0.082886  0.074628  0.000103  1.042073  0.0
H  H49  1  0.43024046  0.78644221  0.48192987  1  0.032759  5.2e-05  0.08286  0.074638  0.000103  1.04206  0.0
H  H50  1  0.93023607  0.48192809  0.78645374  1  0.032717  5.2e-05  0.082874  0.074651  0.000103  1.0421  0.0
H  H51  1  0.56976116  0.21354720  0.51807384  1  0.032668  5.2e-05  0.082861  0.074644  0.000103  1.042094  0.0
H  H52  1  0.04673114  0.51078910  0.08110541  1  0.021318  -4.5e-05  0.081103  0.071484  -4.8e-05  0.997455  0.0
H  H53  1  0.45326869  0.91889233  0.48920856  1  0.021195  -4.5e-05  0.081079  0.071478  -4.8e-05  0.99742  0.0
H  H54  1  0.95326348  0.48920978  0.91889328  1  0.021171  -4.5e-05  0.081091  0.07151  -4.7e-05  0.997522  0.0
H  H55  1  0.54673850  0.08110750  0.51079019  1  0.021195  -4.5e-05  0.081065  0.071483  -4.8e-05  0.997524  0.0
H  H56  1  0.94149362  0.37559284  0.26673686  1  0.008232  4e-06  0.079876  0.105629  -4e-06  1.041346  0.0
H  H57  1  0.55850653  0.73326190  0.62440602  1  0.008242  4e-06  0.079861  0.105591  -4e-06  1.041381  0.0
H  H58  1  0.05851116  0.62439851  0.73325405  1  0.008159  4e-06  0.07986  0.105594  -4e-06  1.04136  0.0
H  H59  1  0.44148511  0.26674640  0.37560170  1  0.008097  4e-06  0.079882  0.105608  -4e-06  1.041385  0.0
H  H60  1  0.10250347  0.29201528  0.29589035  1  0.035048  1.8e-05  0.086365  0.120543  7e-06  1.004251  0.0
H  H61  1  0.39749485  0.70410967  0.70798218  1  0.035027  1.8e-05  0.086349  0.120515  7e-06  1.004286  0.0
H  H62  1  0.89749056  0.70797319  0.70411197  1  0.034901  1.8e-05  0.086334  0.12052  7e-06  1.004355  0.0
H  H63  1  0.60250657  0.29588730  0.29202415  1  0.034935  1.8e-05  0.086341  0.120503  7e-06  1.004339  0.0
H  H64  1  0.09194813  0.27333248  0.16127688  1  0.02938  9.6e-05  0.083759  0.115524  5.6e-05  1.015971  0.0
H  H65  1  0.40805235  0.83872011  0.72666865  1  0.029405  9.6e-05  0.083753  0.115491  5.6e-05  1.016034  0.0
H  H66  1  0.90805067  0.72665887  0.83871580  1  0.029181  9.6e-05  0.083739  0.115447  5.6e-05  1.016177  0.0
H  H67  1  0.59194488  0.16128440  0.27334202  1  0.029623  9.6e-05  0.083751  0.115447  5.6e-05  1.016175  0.0
C  C68  1  0.87207171  0.88739572  0.05436838  1  0.45926  0.000542  0.05056  0.103022  0.000312  3.927463  0.0
C  C69  1  0.62793831  0.94562495  0.11260116  1  0.459417  0.000542  0.050671  0.103035  0.000312  3.927532  0.0
C  C70  1  0.12793929  0.11259275  0.94563490  1  0.458991  0.000542  0.050632  0.102984  0.000312  3.927308  0.0
C  C71  1  0.37206052  0.05436633  0.88740813  1  0.459401  0.000542  0.050638  0.102984  0.000312  3.927368  0.0
C  C72  1  0.87633016  0.78753710  0.15322719  1  0.001551  -0.000977  -0.080626  -0.168796  -0.000659  3.938709  -0.001
C  C73  1  0.62368276  0.84676148  0.21245712  1  0.001658  -0.000977  -0.08068  -0.16874  -0.000659  3.938331  -0.001
C  C74  1  0.12367524  0.21245517  0.84677313  1  0.001572  -0.000974  -0.080577  -0.16868  -0.000657  3.938305  -0.001
C  C75  1  0.37631886  0.15323265  0.78754754  1  0.001639  -0.000974  -0.080647  -0.168732  -0.000657  3.938369  -0.001
C  C76  1  0.75001067  0.76515406  0.23483418  1  -0.098201  0.000939  0.010879  0.093761  0.000596  3.987888  0.001
C  C77  1  0.24999713  0.23483725  0.76516790  1  -0.098046  0.000938  0.010818  0.093692  0.000595  3.988002  0.001
C  C78  1  0.82519287  0.53033721  0.51375428  1  0.503402  -0.000738  0.051005  0.09942  -0.000456  3.948981  0.0
C  C79  1  0.67480568  0.48624882  0.46966532  1  0.503688  -0.000738  0.050962  0.099409  -0.000456  3.948845  0.0
C  C80  1  0.17479858  0.46966918  0.48625829  1  0.503664  -0.000739  0.051007  0.099306  -0.000456  3.949022  0.0
C  C81  1  0.32519853  0.51374155  0.53033529  1  0.503634  -0.000739  0.050983  0.099214  -0.000456  3.949098  0.0
C  C82  1  0.83074382  0.62910809  0.41371720  1  -0.074941  0.000637  -0.079428  -0.177916  0.000424  3.924472  0.001
C  C83  1  0.66926358  0.58628546  0.37089096  1  -0.074062  0.000636  -0.079392  -0.177875  0.000424  3.924575  0.001
C  C84  1  0.16925001  0.37090212  0.58628398  1  -0.075129  0.000638  -0.07941  -0.17783  0.000425  3.924576  0.001
C  C85  1  0.33074320  0.41371533  0.62910268  1  -0.074227  0.000637  -0.079437  -0.177783  0.000425  3.924716  0.001
C  C86  1  0.75000509  0.65963512  0.34035877  1  0.045378  -0.00087  0.016181  0.108918  -0.000571  3.967777  -0.001
C  C87  1  0.24999553  0.34036375  0.65964314  1  0.045491  -0.000872  0.016277  0.108885  -0.000572  3.967733  -0.001
C  C88  1  0.47329784  0.30036547  0.89142273  1  1.522596  -0.000335  0.211952  0.622828  -0.000457  4.126457  0.0
C  C89  1  0.02670429  0.10857585  0.69963552  1  1.522582  -0.000335  0.211972  0.622901  -0.000457  4.126402  0.0
C  C90  1  0.52673555  0.69961253  0.10860081  1  1.522295  -0.000334  0.211759  0.622295  -0.000459  4.126107  0.0
C  C91  1  0.97325946  0.89140402  0.30038850  1  1.522224  -0.000334  0.211811  0.622367  -0.000459  4.126208  0.0
C  C92  1  0.31211793  0.35298866  0.96261375  1  -0.019179  0.000314  -0.159925  -0.349104  0.000193  3.83406  0.0
C  C93  1  0.18788350  0.03738471  0.64701057  1  -0.019124  0.000314  -0.159924  -0.349178  0.000193  3.833994  0.0
C  C94  1  0.68789085  0.64702631  0.03738025  1  -0.020959  0.000321  -0.159923  -0.349241  0.000196  3.833715  0.0
C  C95  1  0.81210690  0.96262179  0.35297420  1  -0.020861  0.000321  -0.159947  -0.349257  0.000197  3.833761  0.0
C  C96  1  0.26667114  0.42562916  0.07031254  1  0.080163  -0.002637  -0.009818  0.246092  -0.001684  3.728371  -0.002
C  C97  1  0.23332932  0.92968741  0.57437069  1  0.080304  -0.002637  -0.009821  0.246192  -0.001684  3.728265  -0.002
C  C98  1  0.73332649  0.57436970  0.92969150  1  0.080594  -0.002639  -0.009806  0.246165  -0.001685  3.728539  -0.002
C  C99  1  0.76667309  0.07030958  0.42562939  1  0.080643  -0.002638  -0.00981  0.246171  -0.001685  3.728396  -0.002
C  C100  1  0.29173329  0.55093341  0.00638540  1  -0.053503  0.000796  -0.156899  -0.353826  0.000445  3.832133  0.001
C  C101  1  0.20826438  0.99361495  0.44906679  1  -0.0535  0.000796  -0.156896  -0.353846  0.000445  3.832121  0.001
C  C102  1  0.70827571  0.44906925  0.99361581  1  -0.053216  0.000802  -0.156888  -0.353806  0.000449  3.832447  0.001
C  C103  1  0.79172485  0.00638488  0.55093060  1  -0.053334  0.000803  -0.156911  -0.353826  0.00045  3.83243  0.001
C  C104  1  0.26109032  0.64258184  0.08726587  1  1.530803  0.000847  0.211962  0.624251  0.000804  4.114115  0.001
C  C105  1  0.23890547  0.91273482  0.35741854  1  1.531086  0.000846  0.211986  0.624335  0.000805  4.114045  0.001
C  C106  1  0.73894156  0.35742093  0.91270713  1  1.531039  0.000837  0.212008  0.624347  0.000799  4.114808  0.001
C  C107  1  0.76106421  0.08728294  0.64258566  1  1.531096  0.000839  0.212059  0.624479  0.0008  4.114596  0.001
C  C108  1  0.35321583  0.34363603  0.15547313  1  -0.084543  0.000455  -0.254885  -0.430377  0.000365  3.874481  0.0
C  C109  1  0.14678182  0.84452992  0.65636637  1  -0.08458  0.000455  -0.254866  -0.4304  0.000365  3.874542  0.0
C  C110  1  0.64677781  0.65637227  0.84453622  1  -0.084758  0.000456  -0.254845  -0.430291  0.000366  3.87441  0.0
C  C111  1  0.85321958  0.15546709  0.34362750  1  -0.084551  0.000456  -0.254873  -0.430316  0.000366  3.87436  0.0
C  C112  1  0.10429941  0.45537817  0.14660005  1  -0.049603  0.000698  -0.168929  -0.159698  0.000506  3.903907  0.001
C  C113  1  0.39570116  0.85339848  0.54461982  1  -0.049509  0.000698  -0.168901  -0.159718  0.000507  3.903871  0.001
C  C114  1  0.89570161  0.54461976  0.85340282  1  -0.049378  0.000697  -0.168951  -0.159808  0.000506  3.904122  0.001
C  C115  1  0.60429685  0.14659944  0.45538103  1  -0.049411  0.000697  -0.168885  -0.159737  0.000506  3.904047  0.001
C  C116  1  0.05892272  0.34269616  0.22078681  1  -0.059617  -2.3e-05  -0.250803  -0.347551  -2.6e-05  3.943726  0.0
C  C117  1  0.44107719  0.77921109  0.65730314  1  -0.059618  -2.3e-05  -0.250748  -0.347444  -2.6e-05  3.943855  0.0
C  C118  1  0.94108186  0.65729803  0.77920411  1  -0.059204  -2.3e-05  -0.250712  -0.347368  -2.6e-05  3.943967  0.0
C  C119  1  0.55891385  0.22079627  0.34270265  1  -0.05961  -2.3e-05  -0.250778  -0.347402  -2.6e-05  3.943982  0.0
N  N120  1  0.74999820  0.96578123  0.03421805  1  -1.229413  -0.005194  -0.332851  -0.234414  -0.003822  3.504194  -0.006
N  N121  1  0.25000463  0.03420532  0.96579436  1  -1.229198  -0.005154  -0.332798  -0.234337  -0.003795  3.504243  -0.006
N  N122  1  0.75000171  0.45889212  0.54111226  1  -1.245562  0.002569  -0.334723  -0.228372  0.002064  3.51728  0.004
N  N123  1  0.24999630  0.54112001  0.45888316  1  -1.245667  0.002584  -0.334778  -0.228253  0.002074  3.517115  0.004
O  O124  1  0.53007447  0.37080645  0.79711295  1  -1.125206  0.076656  -0.313178  -0.534088  0.050175  2.311685  0.07
O  O125  1  0.96992970  0.20288836  0.62919507  1  -1.125162  0.07666  -0.313193  -0.534137  0.050178  2.311754  0.07
O  O126  1  0.46996027  0.62913290  0.20288267  1  -1.125022  0.076664  -0.313067  -0.533775  0.050183  2.311193  0.07
O  O127  1  0.03003532  0.79712160  0.37087262  1  -1.124973  0.076674  -0.313092  -0.533838  0.05019  2.311128  0.07
O  O128  1  0.54057855  0.18798933  0.93414743  1  -1.112281  -0.083522  -0.312313  -0.521743  -0.054436  2.411579  -0.075
O  O129  1  0.95942141  0.06585184  0.81201169  1  -1.112314  -0.08352  -0.312339  -0.521807  -0.054434  2.411636  -0.075
O  O130  1  0.45940360  0.81202732  0.06590071  1  -1.112866  -0.083544  -0.312284  -0.52166  -0.054446  2.410951  -0.075
O  O131  1  0.04059414  0.93409983  0.18797413  1  -1.112836  -0.083538  -0.312291  -0.521683  -0.054442  2.411168  -0.075
O  O132  1  0.22933358  0.60787826  0.20650568  1  -1.108479  0.081898  -0.313924  -0.520329  0.053339  2.414428  0.074
O  O133  1  0.27066308  0.79349628  0.39212154  1  -1.108714  0.081901  -0.313964  -0.520371  0.05334  2.414291  0.074
O  O134  1  0.77064768  0.39214990  0.79349927  1  -1.10885  0.081888  -0.31381  -0.52014  0.053333  2.414751  0.074
O  O135  1  0.72935864  0.20649513  0.60785538  1  -1.108549  0.081903  -0.313918  -0.520336  0.053343  2.414814  0.074
O  O136  1  0.27314833  0.74778890  0.02791911  1  -1.125486  -0.074053  -0.31414  -0.533956  -0.048322  2.306414  -0.067
O  O137  1  0.22684568  0.97208258  0.25221012  1  -1.125525  -0.074062  -0.314112  -0.533979  -0.048328  2.30649  -0.067
O  O138  1  0.72691787  0.25221767  0.97205109  1  -1.125349  -0.073997  -0.314147  -0.534078  -0.048287  2.306713  -0.067
O  O139  1  0.77308408  0.02793992  0.74778740  1  -1.125473  -0.073982  -0.314094  -0.534023  -0.048276  2.306496  -0.067
