# generated using pymatgen
data_NiH18C20(N2O3)2
_symmetry_space_group_name_H-M   'P 1'
_cell_length_a   6.63440325
_cell_length_b   7.03593608
_cell_length_c   10.28060570
_cell_angle_alpha   78.03991386
_cell_angle_beta   80.67750452
_cell_angle_gamma   72.05142071
_symmetry_Int_Tables_number   1
_chemical_formula_structural   NiH18C20(N2O3)2
_chemical_formula_sum   'Ni1 H18 C20 N4 O6'
_cell_volume   444.13620119
_cell_formula_units_Z   1
loop_
 _symmetry_equiv_pos_site_id
 _symmetry_equiv_pos_as_xyz
  1  'x, y, z'
loop_
 _atom_site_type_symbol
 _atom_site_label
 _atom_site_symmetry_multiplicity
 _atom_site_fract_x
 _atom_site_fract_y
 _atom_site_fract_z
 _atom_site_occupancy
 _atom_site_hle17_ddec_charge
 _atom_site_hle17_ddec_spin_density
 _atom_site_hle17_ddec_sum_bond_order
 _atom_site_hle17_magmom
 _atom_site_hse06_10hf_ddec_charge
 _atom_site_hse06_10hf_ddec_spin_density
 _atom_site_hse06_10hf_ddec_sum_bond_order
 _atom_site_hse06_10hf_magmom
 _atom_site_hse06_ddec_charge
 _atom_site_hse06_ddec_spin_density
 _atom_site_hse06_ddec_sum_bond_order
 _atom_site_hse06_magmom
 _atom_site_pbe_cm5_charge
 _atom_site_pbe_ddec_charge
 _atom_site_pbe_ddec_spin_density
 _atom_site_pbe_ddec_sum_bond_order
 _atom_site_pbe_magmom
Ni  Ni0  1  0.49999436  0.00000187  0.49999984  1  0.842607  -0.005198  1.991181  -0.003  0.849282  -0.019079  2.391639  -0.019  0.951572  -0.011836  2.303825  -0.013  0.644857  0.776105  -0.026074  2.455808  -0.024
H  H1  1  0.80285838  0.97939055  0.30265502  1  0.422184  0.00017  0.888151  0.001  0.388347  -0.000292  0.957976  0.0  0.400528  -0.000142  0.940998  0.0  0.288123  0.379653  -0.00041  0.970048  0.0
H  H2  1  0.19714742  0.02060910  0.69734665  1  0.422241  0.000167  0.888081  0.001  0.388407  -0.000291  0.957903  0.0  0.400581  -0.000142  0.940935  0.0  0.288134  0.379714  -0.000409  0.969974  0.0
H  H3  1  0.62051300  0.89701713  0.27222763  1  0.406151  0.000442  0.847629  0.001  0.387436  -0.000285  0.911254  0.0  0.394396  -0.000114  0.906621  0.0  0.310998  0.382331  -0.000427  0.914675  0.0
H  H4  1  0.37948416  0.10298565  0.72777831  1  0.40625  0.000432  0.847615  0.001  0.387515  -0.000285  0.911241  0.0  0.394477  -0.000114  0.906606  0.0  0.311005  0.382407  -0.000427  0.914657  0.0
H  H5  1  0.11195302  0.17219981  0.32257384  1  0.305517  0.000118  0.91228  0.0  0.276217  0.000212  0.986467  0.0  0.28629  0.000154  0.978091  0.0  0.316441  0.26888  0.00032  0.992768  0.0
H  H6  1  0.88804733  0.82780297  0.67742792  1  0.305516  0.000112  0.912356  0.0  0.276249  0.000212  0.986505  0.0  0.286321  0.000154  0.978128  0.0  0.316434  0.268911  0.00032  0.992808  0.0
H  H7  1  0.39403787  0.43660299  0.53247205  1  0.10158  0.000213  1.005755  0.0  0.108133  0.000294  1.073433  0.0  0.110379  0.000221  1.070222  0.0  0.122823  0.106312  0.000377  1.076138  0.001
H  H8  1  0.60596460  0.56339224  0.46752953  1  0.101566  0.000207  1.005822  0.0  0.108193  0.000294  1.073417  0.0  0.110442  0.000221  1.070202  0.0  0.122853  0.106372  0.000376  1.076121  0.001
H  H9  1  0.10534820  0.77627034  0.08167046  1  0.09428  1.4e-05  0.95611  0.0  0.105741  5e-06  1.017682  0.0  0.108288  4e-06  1.016517  0.0  0.102361  0.103993  -1e-06  1.018426  0.0
H  H10  1  0.89465023  0.22373401  0.91833029  1  0.094278  1.4e-05  0.956089  0.0  0.105741  5e-06  1.017656  0.0  0.108288  4e-06  1.016491  0.0  0.102366  0.103996  -1e-06  1.0184  0.0
H  H11  1  0.85170961  0.91555973  0.90981802  1  0.097137  9e-06  0.982521  0.0  0.105531  0.0  1.045301  0.0  0.108815  1e-06  1.043703  0.0  0.098152  0.10311  -1e-06  1.046576  0.0
H  H12  1  0.14828651  0.08444162  0.09018528  1  0.097142  1.1e-05  0.982508  0.0  0.105551  0.0  1.045264  0.0  0.108839  1e-06  1.043667  0.0  0.098149  0.103128  -1e-06  1.046536  0.0
H  H13  1  0.52726520  0.79946756  0.93174682  1  0.092965  -0.000161  0.956321  0.0  0.102648  -0.000191  1.019427  0.0  0.106276  -0.000134  1.017195  0.0  0.09801  0.099969  -0.000252  1.021237  0.0
H  H14  1  0.47273486  0.20052638  0.06824638  1  0.092927  -0.00016  0.95634  0.0  0.102591  -0.000191  1.01946  0.0  0.106213  -0.000134  1.017237  0.0  0.097981  0.099915  -0.000252  1.021267  0.0
H  H15  1  0.46477045  0.53480721  0.12434494  1  0.087664  -2e-06  0.974553  0.0  0.097351  -1e-06  1.038621  0.0  0.099481  -1e-06  1.038939  0.0  0.097959  0.095851  -1e-06  1.038471  0.0
H  H16  1  0.53523062  0.46518814  0.87565188  1  0.087656  1e-06  0.974549  0.0  0.097325  -1e-06  1.038636  0.0  0.099455  -1e-06  1.038953  0.0  0.097944  0.095826  -0.0  1.038489  0.0
H  H17  1  0.72190739  0.39022508  0.29311630  1  0.113129  1.3e-05  0.944075  0.0  0.124567  2.1e-05  1.001989  0.0  0.127226  1.1e-05  1.001136  0.0  0.107277  0.122661  3.9e-05  1.002684  0.0
H  H18  1  0.27808079  0.60978850  0.70688612  1  0.113114  1.1e-05  0.944043  0.0  0.124549  2.1e-05  1.001974  0.0  0.12721  1.1e-05  1.001118  0.0  0.107246  0.122642  3.9e-05  1.002669  0.0
C  C19  1  0.29691850  0.43221242  0.45925515  1  0.050718  -0.000786  3.725396  -0.001  -0.000655  0.000565  4.010422  0.0  0.01259  -4.5e-05  4.024222  0.0  0.02647  -0.009868  0.001142  4.001931  0.001
C  C20  1  0.70309017  0.56778270  0.54074393  1  0.050667  -0.000777  3.725507  -0.001  -0.000747  0.000565  4.010542  0.0  0.01249  -4.5e-05  4.024352  0.0  0.026464  -0.009956  0.001142  4.002045  0.001
C  C21  1  0.17416697  0.59206739  0.37272931  1  -0.233462  0.006599  3.74455  0.006  -0.218295  0.002997  4.002947  0.003  -0.234359  0.002129  4.022846  0.002  -0.039242  -0.207562  0.003867  3.9895  0.003
C  C22  1  0.82583428  0.40793240  0.62727081  1  -0.233431  0.006596  3.744543  0.006  -0.2183  0.002996  4.003005  0.003  -0.234361  0.002128  4.022902  0.002  -0.03926  -0.207564  0.003866  3.989556  0.003
C  C23  1  0.08014090  0.49587094  0.30119735  1  0.178176  0.000578  3.698085  0.001  0.147469  0.00105  3.957782  0.001  0.160283  0.000662  3.973696  0.001  0.117429  0.139045  0.001372  3.947409  0.001
C  C24  1  0.91985289  0.50413350  0.69880478  1  0.178215  0.000576  3.697999  0.001  0.147531  0.001049  3.95773  0.001  0.160344  0.000662  3.973643  0.001  0.117447  0.139105  0.001372  3.947359  0.001
C  C25  1  0.82902935  0.19518318  0.62782234  1  0.685499  0.001268  3.895585  0.001  0.634031  0.001959  4.200578  0.002  0.672114  0.001469  4.189157  0.002  0.211028  0.607947  0.00243  4.207263  0.002
C  C26  1  0.17097435  0.80481359  0.37217503  1  0.685542  0.001276  3.895468  0.001  0.634054  0.00196  4.200465  0.002  0.672148  0.00147  4.189044  0.002  0.211032  0.607971  0.00243  4.207143  0.002
C  C27  1  0.92963609  0.57643872  0.19979408  1  0.002704  0.000167  3.831057  0.0  0.025308  0.000198  4.064977  0.0  0.022556  0.000192  4.087252  0.0  -0.012678  0.027295  0.000203  4.050159  0.0
C  C28  1  0.07035968  0.42356419  0.80020710  1  0.002615  0.000168  3.8311  0.0  0.025194  0.000197  4.065066  0.0  0.022443  0.000192  4.08734  0.0  -0.01271  0.027182  0.000203  4.05025  0.0
C  C29  1  0.96407207  0.72482905  0.09100225  1  -0.090082  -0.000459  3.732614  0.0  -0.111772  -0.000269  3.975267  0.0  -0.111896  -0.000236  3.994254  0.0  -0.084999  -0.111618  -0.000305  3.962298  0.0
C  C30  1  0.03592806  0.27516925  0.90899816  1  -0.090004  -0.000461  3.732533  0.0  -0.111686  -0.000269  3.975188  0.0  -0.111808  -0.000236  3.994174  0.0  -0.084994  -0.111537  -0.000305  3.962226  0.0
C  C31  1  0.82054285  0.80362598  0.99510853  1  -0.07502  -0.000368  3.765589  0.0  -0.087144  -0.000298  4.015826  0.0  -0.089635  -0.0002  4.036346  0.0  -0.094977  -0.085138  -0.000367  4.001825  0.0
C  C32  1  0.17946018  0.19636782  0.00488832  1  -0.075084  -0.000372  3.765559  0.0  -0.087224  -0.000298  4.015822  0.0  -0.089719  -0.000199  4.036339  0.0  -0.094981  -0.085214  -0.000367  4.001814  0.0
C  C33  1  0.63953818  0.73682659  0.00697149  1  -0.07188  -7.2e-05  3.764738  0.0  -0.088861  -0.000185  4.018032  0.0  -0.089721  -0.000166  4.038032  0.0  -0.094064  -0.088212  -0.00024  4.004596  0.0
C  C34  1  0.36046004  0.26317330  0.99302694  1  -0.071829  -7.7e-05  3.764855  0.0  -0.088799  -0.000185  4.018154  0.0  -0.089659  -0.000167  4.038155  0.0  -0.094062  -0.08815  -0.00024  4.004714  0.0
C  C35  1  0.60477544  0.58850858  0.11445735  1  -0.078605  -1.2e-05  3.785295  0.0  -0.089748  -1.1e-05  4.034439  0.0  -0.092454  1.6e-05  4.056333  0.0  -0.096785  -0.088144  -5.2e-05  4.019693  0.0
C  C36  1  0.39522192  0.41149432  0.88554174  1  -0.078601  -1.8e-05  3.785435  0.0  -0.089718  -1.2e-05  4.034548  0.0  -0.092421  1.7e-05  4.056436  0.0  -0.096741  -0.088118  -5.2e-05  4.019809  0.0
C  C37  1  0.74946851  0.50694602  0.20997367  1  -0.10876  -2e-06  3.710139  0.0  -0.129233  -1.5e-05  3.953427  0.0  -0.130152  -4.8e-05  3.972906  0.0  -0.091128  -0.128456  1.4e-05  3.940427  0.0
C  C38  1  0.25052776  0.49305543  0.79002474  1  -0.108707  9e-06  3.710227  0.0  -0.129168  -1.5e-05  3.953501  0.0  -0.130086  -4.8e-05  3.972975  0.0  -0.09108  -0.128388  1.4e-05  3.9405  0.0
N  N39  1  0.28621930  0.25381269  0.44131273  1  -0.190675  0.017693  3.259056  0.016  -0.17777  0.024171  3.581218  0.022  -0.207429  0.020517  3.60252  0.018  -0.263582  -0.157782  0.0262  3.567968  0.023
N  N40  1  0.71377893  0.74618720  0.55868571  1  -0.190605  0.017687  3.258782  0.016  -0.177708  0.024167  3.580994  0.022  -0.207368  0.020515  3.602301  0.018  -0.263556  -0.157719  0.026196  3.567744  0.023
N  N41  1  0.15322878  0.29334152  0.34578071  1  -0.176876  0.001629  3.370221  0.002  -0.11273  0.001869  3.610527  0.002  -0.124493  0.001502  3.628527  0.001  -0.258392  -0.105421  0.002177  3.599466  0.002
N  N42  1  0.84676458  0.70666443  0.65422126  1  -0.176905  0.001642  3.370217  0.002  -0.112805  0.001871  3.610566  0.002  -0.12457  0.001502  3.628568  0.001  -0.258416  -0.10549  0.002178  3.599499  0.002
O  O43  1  0.69698401  0.17889869  0.55740978  1  -0.6236  0.040068  2.010324  0.041  -0.594257  0.018491  2.279953  0.019  -0.626852  0.014387  2.2668  0.015  -0.317243  -0.570172  0.022931  2.288304  0.023
O  O44  1  0.30303500  0.82108725  0.44258470  1  -0.623632  0.04009  2.010108  0.041  -0.594322  0.0185  2.279777  0.019  -0.626915  0.014392  2.266611  0.015  -0.317276  -0.570246  0.022943  2.288144  0.023
O  O45  1  0.95358083  0.04346774  0.69634958  1  -0.641956  0.000261  2.011821  0.0  -0.579714  -0.000142  2.231812  0.0  -0.604748  -0.000237  2.219478  0.0  -0.315799  -0.561923  -0.000309  2.239799  0.0
O  O46  1  0.04642664  0.95653629  0.30365622  1  -0.641929  0.000252  2.011879  0.0  -0.57965  -0.000144  2.231856  0.0  -0.604725  -0.000238  2.219549  0.0  -0.315768  -0.561863  -0.00031  2.239844  0.0
O  O47  1  0.64160289  0.00980802  0.30466749  1  -0.768089  -0.064796  1.941622  -0.069  -0.737243  -0.040606  2.149485  -0.044  -0.773235  -0.034027  2.124993  -0.037  -0.550616  -0.710809  -0.045673  2.166615  -0.049
O  O48  1  0.35840132  0.99019163  0.69533627  1  -0.768307  -0.064774  1.941642  -0.069  -0.737412  -0.040605  2.149465  -0.044  -0.773437  -0.034026  2.125027  -0.037  -0.550635  -0.71097  -0.04567  2.166599  -0.049
