# generated using pymatgen
data_YbH18C20N4Cl3
_symmetry_space_group_name_H-M   'P 1'
_cell_length_a   12.63467109
_cell_length_b   14.19998678
_cell_length_c   14.70251319
_cell_angle_alpha   89.99999665
_cell_angle_beta   90.00001667
_cell_angle_gamma   89.99999474
_symmetry_Int_Tables_number   1
_chemical_formula_structural   YbH18C20N4Cl3
_chemical_formula_sum   'Yb4 H72 C80 N16 Cl12'
_cell_volume   2637.80968468
_cell_formula_units_Z   4
loop_
 _symmetry_equiv_pos_site_id
 _symmetry_equiv_pos_as_xyz
  1  'x, y, z'
loop_
 _atom_site_type_symbol
 _atom_site_label
 _atom_site_symmetry_multiplicity
 _atom_site_fract_x
 _atom_site_fract_y
 _atom_site_fract_z
 _atom_site_occupancy
 _atom_site_pbe_bader_charge
 _atom_site_pbe_bader_spin_density
 _atom_site_pbe_cm5_charge
 _atom_site_pbe_ddec_charge
 _atom_site_pbe_ddec_spin_density
 _atom_site_pbe_ddec_sum_bond_order
 _atom_site_pbe_magmom
Yb  Yb0  1  0.33388691  0.16755012  0.63609469  1  2.02999  0  1.233796  1.641642  0  2.484843  0
Yb  Yb1  1  0.16611273  0.83245006  0.13609442  1  2.029961  0  1.233798  1.641686  0  2.484725  0
Yb  Yb2  1  0.83388721  0.33245026  0.36390523  1  2.02996  0  1.23379  1.641685  0  2.484762  0
Yb  Yb3  1  0.66611322  0.66754986  0.86390543  1  2.029997  0  1.233801  1.641687  0  2.484731  0
H  H4  1  0.18888356  0.13700150  0.82478350  1  0.081762  0  0.107958  0.068893  0  1.03279  0
H  H5  1  0.31111614  0.86299796  0.32478326  1  0.081759  0  0.107948  0.068874  0  1.032784  0
H  H6  1  0.68888379  0.36299819  0.17521706  1  0.081762  0  0.107952  0.06887  0  1.032785  0
H  H7  1  0.81111657  0.63700195  0.67521662  1  0.081755  0  0.10795  0.068885  0  1.032774  0
H  H8  1  0.17802053  0.17552057  0.44876411  1  0.088376  0  0.103422  0.077349  0  1.039793  0
H  H9  1  0.32197922  0.82448030  0.94876434  1  0.088375  0  0.103408  0.077341  0  1.039829  0
H  H10  1  0.67802089  0.32447984  0.55123577  1  0.08836  0  0.103408  0.077345  0  1.03981  0
H  H11  1  0.82197863  0.67552031  0.05123622  1  0.088435  0  0.103409  0.077327  0  1.039817  0
H  H12  1  0.33597554  0.06418666  0.21282964  1  0.089087  0  0.101683  0.098705  0  1.023582  0
H  H13  1  0.16402492  0.93581352  0.71282983  1  0.089085  0  0.101681  0.098703  0  1.023602  0
H  H14  1  0.83597518  0.43581373  0.78717028  1  0.089087  0  0.101684  0.098708  0  1.023588  0
H  H15  1  0.66402443  0.56418640  0.28717070  1  0.089093  0  0.101678  0.098699  0  1.023567  0
H  H16  1  0.17524639  0.13669941  0.28367669  1  0.118312  0  0.100643  0.121888  0  1.00939  0
H  H17  1  0.32475409  0.86330077  0.78367692  1  0.118313  0  0.100645  0.121872  0  1.009394  0
H  H18  1  0.67524601  0.36330099  0.71632319  1  0.11831  0  0.100639  0.121868  0  1.009391  0
H  H19  1  0.82475357  0.63669914  0.21632297  1  0.118321  0  0.100648  0.12189  0  1.009369  0
H  H20  1  0.46684245  0.31124110  0.49363878  1  0.154167  0  0.104762  0.080929  0  1.041948  0
H  H21  1  0.03315731  0.68875906  0.99363895  1  0.15417  0  0.104756  0.080937  0  1.041944  0
H  H22  1  0.96684281  0.18875857  0.50636116  1  0.154169  0  0.104757  0.080945  0  1.04195  0
H  H23  1  0.53315749  0.81124158  0.00636086  1  0.15418  0  0.104765  0.080944  0  1.041945  0
H  H24  1  0.41574651  0.60056250  0.35854554  1  0.079815  0  0.110022  0.118013  0  0.998278  0
H  H25  1  0.08425321  0.39943767  0.85854574  1  0.07981  0  0.110018  0.118018  0  0.998272  0
H  H26  1  0.91574610  0.89943740  0.64145437  1  0.079816  0  0.11002  0.118007  0  0.998293  0
H  H27  1  0.58425266  0.10056274  0.14145412  1  0.079805  0  0.110017  0.11801  0  0.99828  0
H  H28  1  0.51188524  0.10810217  0.78873596  1  0.092045  0  0.107138  0.076106  0  1.036305  0
H  H29  1  0.98811516  0.89189726  0.28873645  1  0.092076  0  0.107132  0.076097  0  1.03628  0
H  H30  1  0.01188556  0.39189754  0.21126387  1  0.092046  0  0.107132  0.076096  0  1.036266  0
H  H31  1  0.48811489  0.60810193  0.71126348  1  0.092045  0  0.107112  0.076087  0  1.036292  0
H  H32  1  0.37212999  0.73026967  0.25113872  1  0.143935  0  0.104586  0.079247  0  1.043881  0
H  H33  1  0.12786969  0.26972980  0.75113826  1  0.143935  0  0.104581  0.079235  0  1.043848  0
H  H34  1  0.87213043  0.76972953  0.74886185  1  0.143931  0  0.104591  0.079243  0  1.0439  0
H  H35  1  0.62786996  0.23026990  0.24886161  1  0.14393  0  0.104591  0.079243  0  1.043904  0
H  H36  1  0.48589559  0.08122962  0.47658525  1  0.072046  0  0.105751  0.06338  0  1.067357  0
H  H37  1  0.01410417  0.91877054  0.97658471  1  0.072041  0  0.105746  0.063378  0  1.067379  0
H  H38  1  0.98589593  0.41877076  0.52341471  1  0.07204  0  0.105743  0.06337  0  1.067384  0
H  H39  1  0.51410437  0.58123010  0.02341509  1  0.072071  0  0.105751  0.063371  0  1.06737  0
H  H40  1  0.15439033  0.32912986  0.57773117  1  0.113937  0  0.111379  0.074808  0  1.029663  0
H  H41  1  0.34561008  0.67087033  0.07773095  1  0.113939  0  0.111381  0.074814  0  1.029657  0
H  H42  1  0.65439066  0.17087054  0.42226870  1  0.113938  0  0.111367  0.074774  0  1.029678  0
H  H43  1  0.84560978  0.82912958  0.92226826  1  0.11394  0  0.111372  0.074797  0  1.02967  0
H  H44  1  0.11873445  0.46240464  0.47112762  1  0.094644  0  0.107694  0.115972  0  1.028194  0
H  H45  1  0.38126531  0.53759623  0.97112788  1  0.094648  0  0.107681  0.115962  0  1.028256  0
H  H46  1  0.61873483  0.03759577  0.52887224  1  0.094646  0  0.107685  0.115982  0  1.028243  0
H  H47  1  0.88126468  0.96240438  0.02887202  1  0.094649  0  0.107683  0.115968  0  1.028251  0
H  H48  1  0.44402268  0.43898700  0.38228571  1  0.124498  0  0.098007  0.117812  0  1.032866  0
H  H49  1  0.05597783  0.56101317  0.88228589  1  0.124501  0  0.097996  0.117809  0  1.032859  0
H  H50  1  0.94402230  0.06101268  0.61771356  1  0.124652  0  0.097992  0.117786  0  1.032886  0
H  H51  1  0.55597725  0.93898676  0.11771393  1  0.124499  0  0.098014  0.117821  0  1.03285  0
H  H52  1  0.53687682  0.05281267  0.94874059  1  0.065072  0  0.101061  0.103852  0  1.015306  0
H  H53  1  0.96312284  0.94718815  0.44874038  1  0.065295  0  0.101051  0.103823  0  1.015298  0
H  H54  1  0.03687708  0.44718774  0.05125994  1  0.065295  0  0.101048  0.103828  0  1.015294  0
H  H55  1  0.46312253  0.55281245  0.55125954  1  0.065287  0  0.101061  0.103847  0  1.015307  0
H  H56  1  0.49819664  0.04009860  0.31137812  1  0.107726  0  0.102019  0.105125  0  1.004181  0
H  H57  1  0.00180385  0.95990157  0.81137826  1  0.10773  0  0.102009  0.105116  0  1.004173  0
H  H58  1  0.99819624  0.45990177  0.68862184  1  0.107727  0  0.102001  0.105108  0  1.004181  0
H  H59  1  0.50180333  0.54009836  0.18862222  1  0.10773  0  0.102029  0.105147  0  1.004139  0
H  H60  1  0.06283108  0.63835763  0.22342302  1  0.113717  0  0.111432  0.085558  0  1.024668  0
H  H61  1  0.43716938  0.36164255  0.72342330  1  0.113765  0  0.11144  0.085572  0  1.024676  0
H  H62  1  0.56283073  0.86164301  0.77657680  1  0.113766  0  0.111444  0.085565  0  1.024677  0
H  H63  1  0.93716888  0.13835712  0.27657664  1  0.113767  0  0.111441  0.085576  0  1.024676  0
H  H64  1  0.09261186  0.50292581  0.32623062  1  0.115489  0  0.100497  0.120297  0  1.049048  0
H  H65  1  0.40738785  0.49707436  0.82623021  1  0.115472  0  0.100498  0.120307  0  1.049045  0
H  H66  1  0.59261145  0.99707483  0.67376989  1  0.115464  0  0.100494  0.12029  0  1.049043  0
H  H67  1  0.90738811  0.00292531  0.17376972  1  0.115469  0  0.100498  0.120296  0  1.049054  0
H  H68  1  0.37632084  0.04132960  0.05110287  1  0.11377  0  0.09856  0.095503  0  1.029614  0
H  H69  1  0.12367956  0.95867059  0.55110305  1  0.113772  0  0.098571  0.095517  0  1.029601  0
H  H70  1  0.87632054  0.45867078  0.94889773  1  0.113774  0  0.098551  0.095503  0  1.029595  0
H  H71  1  0.62367912  0.54132934  0.44889747  1  0.113772  0  0.098572  0.095517  0  1.029595  0
H  H72  1  0.20039952  0.08700216  0.98837118  1  0.157467  0  0.096824  0.119863  0  1.028188  0
H  H73  1  0.29960103  0.91299801  0.48837162  1  0.157457  0  0.096811  0.119857  0  1.028176  0
H  H74  1  0.70039890  0.41299754  0.01162802  1  0.157463  0  0.096816  0.119879  0  1.028149  0
H  H75  1  0.79960061  0.58700191  0.51162826  1  0.157458  0  0.096808  0.11985  0  1.02818  0
C  C76  1  0.26491721  0.12002895  0.85577277  1  0.440838  0  0.042907  0.103964  0  3.965962  0
C  C77  1  0.23508251  0.87997122  0.35577251  1  0.440855  0  0.042904  0.104  0  3.965989  0
C  C78  1  0.76491742  0.37997144  0.14422713  1  0.440843  0  0.042909  0.104037  0  3.965959  0
C  C79  1  0.73508292  0.62002940  0.64422735  1  0.440852  0  0.042918  0.103995  0  3.965914  0
C  C80  1  0.24769547  0.14558251  0.41597653  1  0.482891  0  0.045511  0.112321  0  3.935354  0
C  C81  1  0.25230506  0.85441766  0.91597674  1  0.482876  0  0.045409  0.112148  0  3.935494  0
C  C82  1  0.74769505  0.35441789  0.58402337  1  0.482867  0  0.045411  0.112149  0  3.935464  0
C  C83  1  0.75230528  0.64558226  0.08402313  1  0.482799  0  0.045452  0.112241  0  3.935451  0
C  C84  1  0.33670450  0.08517963  0.28414534  1  -0.041776  0  -0.066462  -0.023565  0  3.956851  0
C  C85  1  0.16329520  0.91482054  0.78414484  1  -0.041786  0  -0.06646  -0.023606  0  3.956887  0
C  C86  1  0.83670490  0.41482075  0.71585458  1  -0.041773  0  -0.066451  -0.023585  0  3.956866  0
C  C87  1  0.66329547  0.58518009  0.21585432  1  -0.041883  0  -0.066454  -0.023583  0  3.956891  0
C  C88  1  0.24652408  0.12431488  0.32349710  1  0.019031  0  -0.082148  -0.111577  0  3.925978  0
C  C89  1  0.25347563  0.87568458  0.82349731  1  0.019048  0  -0.082114  -0.111456  0  3.925963  0
C  C90  1  0.74652368  0.37568481  0.67650211  1  0.019039  0  -0.082131  -0.111477  0  3.925961  0
C  C91  1  0.75347588  0.62431463  0.17650187  1  0.019137  0  -0.082129  -0.111505  0  3.925974  0
C  C92  1  0.39055633  0.34636508  0.48694060  1  0.474129  0  0.045845  0.116006  0  3.946296  0
C  C93  1  0.10944422  0.65363438  0.98694011  1  0.474131  0  0.045862  0.115973  0  3.946257  0
C  C94  1  0.89055591  0.15363460  0.51306001  1  0.474133  0  0.045845  0.115918  0  3.946291  0
C  C95  1  0.60944439  0.84636555  0.01305972  1  0.474133  0  0.045857  0.115975  0  3.946299  0
C  C96  1  0.33663087  0.60492730  0.32920429  1  -0.025588  0  -0.08357  -0.174632  0  3.946202  0
C  C97  1  0.16336884  0.39507287  0.82920382  1  -0.025595  0  -0.083584  -0.174666  0  3.946195  0
C  C98  1  0.83663126  0.89507331  0.67079628  1  -0.025577  0  -0.083574  -0.174625  0  3.946184  0
C  C99  1  0.66336909  0.10492683  0.17079605  1  -0.025565  0  -0.083578  -0.17464  0  3.94622  0
C  C100  1  0.27798671  0.46294477  0.41744702  1  0.049812  0  0.011547  0.105646  0  3.980067  0
C  C101  1  0.22201382  0.53705539  0.91744724  1  0.04967  0  0.01157  0.105702  0  3.980021  0
C  C102  1  0.77798632  0.03705562  0.58255288  1  0.049947  0  0.011549  0.10568  0  3.980077  0
C  C103  1  0.72201322  0.96294453  0.08255330  1  0.049823  0  0.011582  0.105732  0  3.979978  0
C  C104  1  0.44504852  0.10223878  0.83529330  1  0.470999  0  0.044469  0.109029  0  3.955241  0
C  C105  1  0.05495118  0.89776139  0.33529368  1  0.470958  0  0.044454  0.109039  0  3.955256  0
C  C106  1  0.94504796  0.39776089  0.16470664  1  0.47101  0  0.044517  0.109148  0  3.955197  0
C  C107  1  0.55495161  0.60223925  0.66470682  1  0.470996  0  0.044486  0.109063  0  3.955211  0
C  C108  1  0.31250359  0.67841047  0.27041025  1  0.406594  0  0.039839  0.092342  0  3.995351  0
C  C109  1  0.18749767  0.32158970  0.77040980  1  0.406656  0  0.039876  0.092385  0  3.995427  0
C  C110  1  0.81250243  0.82158944  0.72959031  1  0.406625  0  0.039859  0.09236  0  3.995414  0
C  C111  1  0.68749636  0.17841069  0.22959008  1  0.406656  0  0.039867  0.092398  0  3.995376  0
C  C112  1  0.41982975  0.09341555  0.43065976  1  0.451037  0  0.040406  0.097502  0  3.983611  0
C  C113  1  0.08016999  0.90658462  0.93065992  1  0.451045  0  0.040429  0.097524  0  3.983607  0
C  C114  1  0.91983011  0.40658413  0.56934018  1  0.451084  0  0.040423  0.097527  0  3.983598  0
C  C115  1  0.58017021  0.59341602  0.06933990  1  0.451033  0  0.040414  0.097529  0  3.983577  0
C  C116  1  0.21687394  0.35701228  0.53420801  1  0.408009  0  0.045134  0.109295  0  3.966479  0
C  C117  1  0.28312567  0.64298791  0.03420777  1  0.40801  0  0.045132  0.109257  0  3.966474  0
C  C118  1  0.71687429  0.14298741  0.46579188  1  0.408011  0  0.045138  0.109349  0  3.966425  0
C  C119  1  0.78312537  0.85701271  0.96579210  1  0.408016  0  0.045109  0.109276  0  3.966505  0
C  C120  1  0.19696284  0.43052784  0.47441278  1  0.002043  0  -0.079597  -0.156767  0  3.921906  0
C  C121  1  0.30303770  0.56947232  0.97441234  1  0.002022  0  -0.079589  -0.156759  0  3.921933  0
C  C122  1  0.69696243  0.06947185  0.52558710  1  0.002023  0  -0.079563  -0.156777  0  3.921959  0
C  C123  1  0.80303788  0.93052759  0.02558754  1  0.002032  0  -0.079586  -0.156775  0  3.92189  0
C  C124  1  0.37715193  0.41942149  0.42512259  1  -0.118405  0  -0.082728  -0.167034  0  3.915685  0
C  C125  1  0.12284780  0.58057868  0.92512279  1  -0.118262  0  -0.082745  -0.167058  0  3.915677  0
C  C126  1  0.87715233  0.08057819  0.57487733  1  -0.118707  0  -0.082742  -0.167009  0  3.915677  0
C  C127  1  0.62284800  0.91942125  0.07487773  1  -0.118424  0  -0.082755  -0.167064  0  3.915675  0
C  C128  1  0.45827484  0.07251692  0.92480793  1  -0.00918  0  -0.089275  -0.13082  0  3.973015  0
C  C129  1  0.04172568  0.92748324  0.42480762  1  -0.009411  0  -0.089246  -0.130768  0  3.973108  0
C  C130  1  0.95827424  0.42748345  0.07519201  1  -0.00939  0  -0.089254  -0.130822  0  3.973041  0
C  C131  1  0.54172529  0.57251669  0.57519219  1  -0.009395  0  -0.089264  -0.13081  0  3.973026  0
C  C132  1  0.42559958  0.07045356  0.33879179  1  -0.081254  0  -0.090112  -0.133199  0  3.975491  0
C  C133  1  0.07440092  0.92954661  0.83879127  1  -0.081253  0  -0.090074  -0.133141  0  3.975458  0
C  C134  1  0.92559917  0.42954612  0.66120883  1  -0.081263  0  -0.090076  -0.133161  0  3.975475  0
C  C135  1  0.57440118  0.57045402  0.16120855  1  -0.081238  0  -0.090073  -0.133177  0  3.975464  0
C  C136  1  0.14027988  0.62714071  0.25441161  1  0.479272  0  0.050528  0.118069  0  3.930855  0
C  C137  1  0.35971980  0.37285946  0.75441187  1  0.479241  0  0.050504  0.118021  0  3.930889  0
C  C138  1  0.64028030  0.87285921  0.74558823  1  0.479213  0  0.050524  0.118065  0  3.9309  0
C  C139  1  0.85972008  0.12714092  0.24558805  1  0.479228  0  0.05048  0.118007  0  3.930895  0
C  C140  1  0.25775902  0.53971457  0.35235474  1  -0.033951  0  0.012886  0.109912  0  3.975221  0
C  C141  1  0.24224228  0.46028490  0.85235497  1  -0.033912  0  0.012903  0.109925  0  3.97516  0
C  C142  1  0.75775861  0.96028535  0.64764513  1  -0.033925  0  0.012886  0.109892  0  3.97514  0
C  C143  1  0.74224174  0.03971479  0.14764492  1  -0.033946  0  0.012887  0.109874  0  3.975197  0
C  C144  1  0.15772475  0.55133782  0.31235136  1  -0.018855  0  -0.078106  -0.15692  0  3.882736  0
C  C145  1  0.34227574  0.44866235  0.81235162  1  -0.018872  0  -0.078096  -0.15692  0  3.882728  0
C  C146  1  0.65772356  0.94866210  0.68764916  1  -0.018848  0  -0.078121  -0.156921  0  3.882714  0
C  C147  1  0.84227601  0.05133804  0.18764829  1  -0.018852  0  -0.078076  -0.156863  0  3.882716  0
C  C148  1  0.36990136  0.06718945  0.98148735  1  -0.14749  0  -0.067368  -0.021807  0  3.957699  0
C  C149  1  0.13009839  0.93281000  0.48148706  1  -0.1475  0  -0.067363  -0.021819  0  3.957744  0
C  C150  1  0.86990074  0.43281023  0.01851258  1  -0.147519  0  -0.067367  -0.021793  0  3.957763  0
C  C151  1  0.63009877  0.56718992  0.51851278  1  -0.147498  0  -0.067383  -0.021835  0  3.957729  0
C  C152  1  0.27133369  0.09217892  0.94635592  1  0.023245  0  -0.086518  -0.122109  0  3.945021  0
C  C153  1  0.22866605  0.90782124  0.44635634  1  0.023255  0  -0.086518  -0.122129  0  3.944989  0
C  C154  1  0.77133467  0.40782077  0.05364397  1  0.023247  0  -0.086517  -0.122176  0  3.945036  0
C  C155  1  0.72866644  0.59217867  0.55364352  1  0.023246  0  -0.086515  -0.122117  0  3.945019  0
N  N156  1  0.31191876  0.31448477  0.54076540  1  -1.246481  0  -0.387651  -0.344816  0  3.557669  0
N  N157  1  0.18808243  0.68551471  0.04076514  1  -1.24648  0  -0.38767  -0.344795  0  3.55762  0
N  N158  1  0.81191831  0.18551491  0.45923451  1  -1.246474  0  -0.38765  -0.344808  0  3.557617  0
N  N159  1  0.68808135  0.81448521  0.95923471  1  -1.246486  0  -0.387652  -0.34481  0  3.557682  0
N  N160  1  0.33244640  0.12992685  0.46962383  1  -1.263169  0  -0.399663  -0.353162  0  3.570248  0
N  N161  1  0.16755335  0.87007331  0.96962334  1  -1.263155  0  -0.399605  -0.353092  0  3.570262  0
N  N162  1  0.83244675  0.37007353  0.53037608  1  -1.263201  0  -0.399612  -0.353092  0  3.570208  0
N  N163  1  0.66755356  0.62992661  0.03037651  1  -1.263184  0  -0.399657  -0.353161  0  3.570286  0
N  N164  1  0.34980741  0.12551487  0.80042442  1  -1.254922  0  -0.400051  -0.348472  0  3.561766  0
N  N165  1  0.15019307  0.87448460  0.30042414  1  -1.254926  0  -0.400054  -0.348519  0  3.561841  0
N  N166  1  0.84980686  0.37448481  0.19957550  1  -1.254941  0  -0.400086  -0.3486  0  3.561905  0
N  N167  1  0.65019271  0.62551532  0.69957570  1  -1.254935  0  -0.400061  -0.348515  0  3.561769  0
N  N168  1  0.21561543  0.69104147  0.23386819  1  -1.248285  0  -0.382994  -0.341477  0  3.55175  0
N  N169  1  0.28438424  0.30895800  0.73386776  1  -1.248365  0  -0.383019  -0.341475  0  3.551877  0
N  N170  1  0.71561508  0.80895845  0.76613167  1  -1.248321  0  -0.383009  -0.341485  0  3.551832  0
N  N171  1  0.78438373  0.19104169  0.26613146  1  -1.24835  0  -0.382999  -0.341505  0  3.551786  0
Cl  Cl172  1  0.13356432  0.13757264  0.63791000  1  -0.725792  0  -0.35795  -0.61092  0  1.076886  0
Cl  Cl173  1  0.36643611  0.86242754  0.13790978  1  -0.725803  0  -0.35796  -0.610935  0  1.07686  0
Cl  Cl174  1  0.63356382  0.36242777  0.36208986  1  -0.725783  0  -0.35796  -0.61093  0  1.076861  0
Cl  Cl175  1  0.86643581  0.63757236  0.86209012  1  -0.7258  0  -0.357958  -0.610934  0  1.076873  0
Cl  Cl176  1  0.38576237  0.99134173  0.63270954  1  -0.729557  0  -0.390064  -0.638953  0  1.043831  0
Cl  Cl177  1  0.11423806  0.00865845  0.13270930  1  -0.729529  0  -0.390076  -0.638975  0  1.043813  0
Cl  Cl178  1  0.88576191  0.50865817  0.36729036  1  -0.72953  0  -0.390071  -0.638965  0  1.043829  0
Cl  Cl179  1  0.61423772  0.49134196  0.86729056  1  -0.729561  0  -0.39007  -0.638965  0  1.043812  0
Cl  Cl180  1  0.52768855  0.21661777  0.63992399  1  -0.719024  0  -0.362022  -0.602771  0  1.088161  0
Cl  Cl181  1  0.97231101  0.78338238  0.13992380  1  -0.719028  0  -0.362031  -0.602788  0  1.088148  0
Cl  Cl182  1  0.02768893  0.28338194  0.36007585  1  -0.719024  0  -0.362027  -0.602783  0  1.088156  0
Cl  Cl183  1  0.47231078  0.71661823  0.86007613  1  -0.719024  0  -0.362027  -0.602779  0  1.088145  0
