# generated using pymatgen
data_UH16C16(NO5)2
_symmetry_space_group_name_H-M   'P 1'
_cell_length_a   9.45439338
_cell_length_b   9.45434349
_cell_length_c   12.79407295
_cell_angle_alpha   96.49894088
_cell_angle_beta   96.49965520
_cell_angle_gamma   113.35821257
_symmetry_Int_Tables_number   1
_chemical_formula_structural   UH16C16(NO5)2
_chemical_formula_sum   'U2 H32 C32 N4 O20'
_cell_volume   1027.34487008
_cell_formula_units_Z   2
loop_
 _symmetry_equiv_pos_site_id
 _symmetry_equiv_pos_as_xyz
  1  'x, y, z'
loop_
 _atom_site_type_symbol
 _atom_site_label
 _atom_site_symmetry_multiplicity
 _atom_site_fract_x
 _atom_site_fract_y
 _atom_site_fract_z
 _atom_site_occupancy
 _atom_site_hle17_ddec_charge
 _atom_site_hle17_ddec_spin_density
 _atom_site_hle17_ddec_sum_bond_order
 _atom_site_hle17_magmom
 _atom_site_hse06_10hf_ddec_charge
 _atom_site_hse06_10hf_ddec_spin_density
 _atom_site_hse06_10hf_ddec_sum_bond_order
 _atom_site_hse06_10hf_magmom
 _atom_site_hse06_ddec_charge
 _atom_site_hse06_ddec_spin_density
 _atom_site_hse06_ddec_sum_bond_order
 _atom_site_hse06_magmom
 _atom_site_pbe_cm5_charge
 _atom_site_pbe_ddec_charge
 _atom_site_pbe_ddec_spin_density
 _atom_site_pbe_ddec_sum_bond_order
 _atom_site_pbe_magmom
U  U0  1  0.52656088  0.47115915  0.74997377  1  2.297332  -2.447702  2.511538  -2.131  2.316684  -2.160565  2.986605  -1.983  2.418211  -2.147384  2.942234  -1.987  1.70012  2.24791  -2.151723  3.021822  -1.948
U  U1  1  0.47117690  0.52655219  0.24997247  1  2.296971  2.447716  2.511765  2.131  2.316461  2.160577  2.98689  1.983  2.418063  2.147394  2.942397  1.988  1.700195  2.247708  2.151729  3.022088  1.948
H  H2  1  0.10292697  0.67676328  0.13781382  1  0.117413  -3.8e-05  0.934082  0.0  0.136884  -7.8e-05  0.995774  0.0  0.138542  -5.8e-05  0.994866  0.0  0.109174  0.135271  -9.9e-05  0.996917  0.0
H  H3  1  0.32344166  0.89743012  0.36237840  1  0.117937  -7e-06  0.932911  0.0  0.137495  -4.8e-05  0.994556  0.0  0.138956  -4.3e-05  0.993831  0.0  0.109718  0.136099  -5.6e-05  0.995493  0.0
H  H4  1  0.89742853  0.32343916  0.86237481  1  0.117877  8e-06  0.933103  0.0  0.137495  4.8e-05  0.994679  0.0  0.138955  4.3e-05  0.993957  0.0  0.109726  0.136101  5.6e-05  0.995612  0.0
H  H5  1  0.67675952  0.10292381  0.63781624  1  0.117411  3.9e-05  0.934129  0.0  0.136894  7.8e-05  0.99578  0.0  0.13856  5.8e-05  0.994879  0.0  0.109174  0.135282  9.9e-05  0.996923  0.0
H  H6  1  0.08506109  0.85809667  0.15203344  1  0.100329  1.7e-05  0.923358  0.0  0.122776  -4.4e-05  0.980909  0.0  0.123271  -2.8e-05  0.981328  0.0  0.107186  0.122395  -6.8e-05  0.980769  0.0
H  H7  1  0.14292057  0.91699430  0.34726898  1  0.101133  2.5e-05  0.922565  0.0  0.123892  -1.8e-05  0.979816  0.0  0.124086  -1.6e-05  0.980497  0.0  0.108029  0.123815  -2.2e-05  0.979411  0.0
H  H8  1  0.91700716  0.14292506  0.84726895  1  0.101205  -2.4e-05  0.922449  0.0  0.12395  1.8e-05  0.979728  0.0  0.124145  1.7e-05  0.980406  0.0  0.108041  0.123873  2.2e-05  0.979324  0.0
H  H9  1  0.85808848  0.08505316  0.65203683  1  0.10041  -1.7e-05  0.923282  0.0  0.122809  4.4e-05  0.980888  0.0  0.123306  2.8e-05  0.981308  0.0  0.107183  0.122428  6.8e-05  0.980748  0.0
H  H10  1  0.91969534  0.68265272  0.15866240  1  0.130207  -4.2e-05  0.944134  0.0  0.147131  -4.5e-05  1.009571  0.0  0.149032  -4e-05  1.007973  0.0  0.117119  0.145331  -5.4e-05  1.011584  0.0
H  H11  1  0.31970293  0.08166558  0.34195858  1  0.130412  -4.5e-05  0.943967  0.0  0.147478  -4.2e-05  1.009171  0.0  0.149404  -3.8e-05  1.007533  0.0  0.117839  0.145642  -4.6e-05  1.011237  0.0
H  H12  1  0.08166914  0.31971319  0.84195961  1  0.130521  4.5e-05  0.944011  0.0  0.147615  4.2e-05  1.009157  0.0  0.149544  3.8e-05  1.007514  0.0  0.117841  0.14578  4.6e-05  1.011224  0.0
H  H13  1  0.68264370  0.91968676  0.65866782  1  0.130175  4.2e-05  0.944113  0.0  0.147168  4.5e-05  1.009457  0.0  0.149069  3.9e-05  1.007862  0.0  0.117142  0.145368  5.4e-05  1.011472  0.0
H  H14  1  0.15533984  0.67663740  0.93928046  1  0.10465  -5e-06  0.925366  0.0  0.126027  -7.6e-05  0.985907  0.0  0.125905  -4.4e-05  0.986867  0.0  0.107756  0.126013  -8.6e-05  0.985244  0.0
H  H15  1  0.32049134  0.84326063  0.55990401  1  0.105304  1.3e-05  0.925066  0.0  0.126679  -3.5e-05  0.985461  0.0  0.126322  -2.7e-05  0.98666  0.0  0.10844  0.126828  -2.8e-05  0.98469  0.0
H  H16  1  0.84325503  0.32049910  0.05989163  1  0.105327  -1.3e-05  0.925056  0.0  0.126686  3.5e-05  0.985472  0.0  0.126326  2.8e-05  0.986676  0.0  0.108495  0.126837  2.8e-05  0.984695  0.0
H  H17  1  0.67664083  0.15534260  0.43928327  1  0.104674  5e-06  0.925357  0.0  0.126013  7.6e-05  0.985964  0.0  0.125896  4.5e-05  0.986921  0.0  0.107717  0.126  8.6e-05  0.9853  0.0
H  H18  1  0.04279800  0.75204925  0.85827508  1  0.120495  4.4e-05  0.930577  0.0  0.140303  3.5e-05  0.988026  0.0  0.142367  3e-05  0.98642  0.0  0.115803  0.138788  4.1e-05  0.989078  0.0
H  H19  1  0.24551330  0.95590772  0.64119562  1  0.121622  5.7e-05  0.930322  0.0  0.141275  3.9e-05  0.987751  0.0  0.14329  3.3e-05  0.9862  0.0  0.11646  0.139807  3.9e-05  0.988764  0.0
H  H20  1  0.95590017  0.24552688  0.14119542  1  0.121555  -5.7e-05  0.93047  0.0  0.141249  -3.9e-05  0.987855  0.0  0.143263  -3.4e-05  0.986305  0.0  0.11641  0.139778  -3.9e-05  0.988872  0.0
H  H21  1  0.75205232  0.04279618  0.35827682  1  0.120453  -4.3e-05  0.930669  0.0  0.140289  -3.5e-05  0.988087  0.0  0.142349  -3e-05  0.986481  0.0  0.115832  0.138776  -4.1e-05  0.989135  0.0
H  H22  1  0.18263513  0.87474799  0.97352661  1  0.096091  -0.0  0.947454  0.0  0.115414  -2.9e-05  1.013159  0.0  0.114369  -1.8e-05  1.015935  0.0  0.103616  0.116291  -6e-05  1.011147  0.0
H  H23  1  0.12290242  0.81751989  0.52526684  1  0.09674  1e-05  0.948515  0.0  0.116187  -1.2e-05  1.013974  0.0  0.114941  -1.1e-05  1.016951  0.0  0.104299  0.117291  -1.9e-05  1.011747  0.0
H  H24  1  0.81752016  0.12290993  0.02526359  1  0.096804  -1.1e-05  0.948433  0.0  0.116281  1.2e-05  1.013868  0.0  0.11504  1.1e-05  1.016838  0.0  0.104336  0.117385  1.9e-05  1.011638  0.0
H  H25  1  0.87475022  0.18263066  0.47353501  1  0.096067  2e-06  0.947432  0.0  0.115398  2.9e-05  1.013136  0.0  0.114353  1.8e-05  1.015914  0.0  0.103616  0.116272  6e-05  1.011125  0.0
H  H26  1  0.73994485  0.62258803  0.01787444  1  0.07901  0.000123  0.938092  0.001  0.084378  -2e-05  1.009125  0.0  0.086318  -2.3e-05  1.003857  0.0  0.140601  0.08287  -2.1e-05  1.013161  0.0
H  H27  1  0.38000619  0.26057344  0.48354368  1  0.080581  0.000181  0.936431  0.001  0.084742  -9e-06  1.008545  0.0  0.086572  -1.9e-05  1.003411  0.0  0.142014  0.083401  -1e-06  1.012254  0.0
H  H28  1  0.26057765  0.38000638  0.98354605  1  0.080699  -0.000181  0.936348  -0.001  0.084854  9e-06  1.00848  0.0  0.086686  2e-05  1.003345  0.0  0.142023  0.083505  1e-06  1.012209  0.0
H  H29  1  0.62257750  0.73993635  0.51787953  1  0.079143  -0.000124  0.937911  -0.001  0.084437  1.9e-05  1.009001  0.0  0.08638  2.4e-05  1.003741  0.0  0.140625  0.08292  2e-05  1.013053  0.0
H  H30  1  0.50987027  0.98574973  0.80659924  1  0.116807  3.6e-05  0.936184  0.0  0.127107  4.9e-05  0.994619  0.0  0.131306  4.2e-05  0.992025  0.0  0.11577  0.123571  5.3e-05  0.997198  0.0
H  H31  1  0.01415483  0.49316378  0.69388804  1  0.117555  2.6e-05  0.934774  0.0  0.128309  2.9e-05  0.992906  0.0  0.132579  3.3e-05  0.990166  0.0  0.116243  0.12475  2.5e-05  0.995494  0.0
H  H32  1  0.49315580  0.01415195  0.19389233  1  0.117561  -2.5e-05  0.934779  0.0  0.128324  -2.9e-05  0.99289  0.0  0.132593  -3.3e-05  0.990152  0.0  0.116252  0.124769  -2.5e-05  0.99548  0.0
H  H33  1  0.98575246  0.50985997  0.30659285  1  0.11691  -3.5e-05  0.936274  0.0  0.127176  -4.9e-05  0.994728  0.0  0.13137  -4.2e-05  0.992144  0.0  0.115777  0.123656  -5.3e-05  0.997295  0.0
C  C34  1  0.51291769  0.73196037  0.87454149  1  0.625825  -0.001531  3.909074  -0.004  0.583807  -0.002489  4.209987  -0.005  0.620236  -0.001398  4.200777  -0.003  0.19331  0.556708  -0.004715  4.218663  -0.01
C  C35  1  0.26760200  0.48891207  0.62559184  1  0.622586  -0.001311  3.911754  -0.004  0.58144  -0.001419  4.210808  -0.003  0.617327  -0.000993  4.202909  -0.003  0.194065  0.555331  -0.002196  4.217707  -0.005
C  C36  1  0.48892333  0.26762935  0.12560376  1  0.622591  0.001311  3.911283  0.004  0.581485  0.00142  4.210282  0.003  0.61736  0.000994  4.202398  0.003  0.194117  0.555376  0.002196  4.217181  0.005
C  C37  1  0.73194406  0.51291202  0.37452874  1  0.625618  0.001532  3.909194  0.004  0.58364  0.00249  4.210065  0.005  0.620057  0.001401  4.200867  0.003  0.193193  0.556536  0.004716  4.218739  0.01
C  C38  1  0.49668561  0.12239964  0.94919247  1  -0.03579  -0.000611  3.713299  -0.001  -0.023077  0.000601  3.949172  0.001  -0.024702  0.000243  3.964861  0.0  0.002911  -0.023292  0.000869  3.940458  0.002
C  C39  1  0.87743329  0.50614974  0.55124869  1  -0.033719  -0.000938  3.706832  -0.002  -0.022063  0.00054  3.943155  0.001  -0.023792  0.000191  3.959264  0.0  0.002404  -0.022526  0.001387  3.934216  0.003
C  C40  1  0.50614908  0.87742946  0.05125332  1  -0.033656  0.00094  3.706261  0.002  -0.022074  -0.000544  3.942691  -0.001  -0.023804  -0.000196  3.958804  0.0  0.002458  -0.022529  -0.001389  3.933743  -0.003
C  C41  1  0.12239698  0.49667990  0.44918972  1  -0.035482  0.000612  3.713377  0.001  -0.022961  -0.000604  3.949281  -0.001  -0.024575  -0.000249  3.96498  0.0  0.002963  -0.023152  -0.000869  3.940514  -0.002
C  C42  1  0.50987051  0.86972503  0.94123751  1  -0.05356  -0.000551  3.728312  -0.001  -0.041593  0.00078  3.964095  0.002  -0.045765  0.000398  3.981153  0.001  -0.003532  -0.040289  0.000791  3.955797  0.002
C  C43  1  0.13026343  0.49331381  0.55924982  1  -0.053764  -0.000659  3.732346  -0.002  -0.043118  0.000911  3.968745  0.002  -0.046588  0.000396  3.985221  0.001  -0.004495  -0.042793  0.002075  3.961062  0.004
C  C44  1  0.49331556  0.13027126  0.05925841  1  -0.053518  0.00066  3.731803  0.002  -0.042911  -0.000912  3.968161  -0.002  -0.046376  -0.000399  3.984641  -0.001  -0.00434  -0.042584  -0.002077  3.960474  -0.004
C  C45  1  0.86972092  0.50986220  0.44123015  1  -0.053665  0.000552  3.728407  0.001  -0.041698  -0.000781  3.964147  -0.002  -0.045859  -0.000403  3.981192  -0.001  -0.003494  -0.040391  -0.000791  3.955847  -0.002
C  C46  1  0.50604485  0.99298286  0.89175292  1  -0.081208  0.000613  3.692716  0.001  -0.115345  -0.000462  3.942511  -0.001  -0.114568  -0.000156  3.958098  0.0  -0.070649  -0.117127  -0.001107  3.935059  -0.002
C  C47  1  0.00702339  0.49715655  0.60875551  1  -0.08153  0.000737  3.689324  0.001  -0.115813  -0.000278  3.939837  -0.001  -0.115264  -8.8e-05  3.955385  0.0  -0.070163  -0.117351  -0.000702  3.932414  -0.002
C  C48  1  0.49715721  0.00702400  0.10876166  1  -0.081688  -0.00074  3.689335  -0.001  -0.115978  0.000279  3.939918  0.001  -0.115429  8.9e-05  3.955466  0.0  -0.070232  -0.11752  0.000702  3.932502  0.002
C  C49  1  0.99298253  0.50603590  0.39174488  1  -0.081326  -0.000617  3.692783  -0.001  -0.115433  0.000463  3.942681  0.001  -0.114655  0.000159  3.958257  0.0  -0.07067  -0.11724  0.001107  3.935236  0.002
C  C50  1  0.49591663  0.24748031  0.88749539  1  0.651347  -0.001464  3.89778  -0.003  0.606058  -0.001113  4.209752  -0.002  0.64199  -0.000969  4.200135  -0.002  0.203176  0.582755  -0.001488  4.213007  -0.003
C  C51  1  0.75090928  0.50459897  0.61219214  1  0.655416  -0.00208  3.900114  -0.005  0.611177  -0.001776  4.210705  -0.004  0.647246  -0.001394  4.200477  -0.003  0.205074  0.587999  -0.002231  4.214059  -0.005
C  C52  1  0.50461473  0.75090219  0.11220161  1  0.655539  0.002075  3.899912  0.005  0.611327  0.00177  4.210488  0.004  0.6474  0.00139  4.200259  0.003  0.205174  0.58815  0.002229  4.213853  0.005
C  C53  1  0.24748276  0.49589318  0.38749452  1  0.650685  0.001465  3.898613  0.003  0.60581  0.001112  4.210063  0.002  0.641716  0.000966  4.200502  0.002  0.202986  0.582513  0.001486  4.213311  0.003
C  C54  1  0.82272700  0.65212758  0.96140481  1  0.40743  -0.000788  3.741875  -0.002  0.33494  -0.001158  4.033274  -0.003  0.367035  -0.000512  4.029655  -0.001  0.189442  0.313161  -0.002037  4.034543  -0.004
C  C55  1  0.34813171  0.17689427  0.53926921  1  0.409771  -0.00092  3.737585  -0.003  0.338191  -0.000658  4.029341  -0.002  0.369863  -0.00036  4.02679  -0.001  0.192409  0.316932  -0.001127  4.029586  -0.003
C  C56  1  0.17689654  0.34813845  0.03927048  1  0.409554  0.00092  3.73776  0.003  0.337928  0.000656  4.029545  0.002  0.369599  0.000355  4.027003  0.001  0.19229  0.31667  0.001127  4.029786  0.003
C  C57  1  0.65211959  0.82272381  0.46141219  1  0.407098  0.000792  3.74198  0.002  0.334637  0.001157  4.033404  0.003  0.366725  0.000508  4.029799  0.001  0.189292  0.31286  0.002034  4.034668  0.004
C  C58  1  0.02236979  0.73210449  0.12022399  1  -0.188853  5.7e-05  3.64127  0.0  -0.289688  2e-05  3.889405  0.0  -0.287028  2.5e-05  3.899611  0.0  -0.12813  -0.291008  1.1e-05  3.883076  0.0
C  C59  1  0.26875692  0.97861846  0.37978813  1  -0.188928  5.3e-05  3.636706  0.0  -0.29036  2.4e-05  3.884944  0.0  -0.287578  2.2e-05  3.895601  0.0  -0.127372  -0.291857  1.9e-05  3.878265  0.0
C  C60  1  0.97862577  0.26876273  0.87979056  1  -0.189103  -5.8e-05  3.63701  0.0  -0.290595  -2.5e-05  3.885229  0.0  -0.287814  -2.2e-05  3.895885  0.0  -0.127396  -0.292083  -1.9e-05  3.878529  0.0
C  C61  1  0.73209482  0.02236071  0.62022450  1  -0.189015  -5.7e-05  3.641375  0.0  -0.289874  -2e-05  3.889486  0.0  -0.287229  -2.4e-05  3.8997  0.0  -0.128204  -0.291195  -1.1e-05  3.883156  0.0
C  C62  1  0.09570276  0.75560480  0.93973257  1  -0.167594  4.6e-05  3.639268  0.0  -0.266889  2.3e-05  3.881666  0.0  -0.263182  2.4e-05  3.892759  0.0  -0.128616  -0.26888  2.2e-05  3.873477  0.0
C  C63  1  0.24215691  0.90358536  0.55963646  1  -0.170128  4.7e-05  3.638742  0.0  -0.269419  3.2e-05  3.8809  0.0  -0.265677  2.6e-05  3.892481  0.0  -0.129559  -0.271524  3.9e-05  3.872401  0.0
C  C64  1  0.90358581  0.24216781  0.05963101  1  -0.17014  -4.5e-05  3.638943  0.0  -0.26949  -3.3e-05  3.881074  0.0  -0.265748  -2.7e-05  3.892655  0.0  -0.129603  -0.271586  -3.9e-05  3.872569  0.0
C  C65  1  0.75560571  0.09570245  0.43973479  1  -0.167536  -5e-05  3.639261  0.0  -0.266861  -2.3e-05  3.881714  0.0  -0.26315  -2.5e-05  3.892803  0.0  -0.128612  -0.268851  -2.2e-05  3.873522  0.0
N  N66  1  0.97351135  0.70890545  0.00495869  1  -0.0704  0.00038  3.486633  0.001  0.033626  -0.001059  3.720068  -0.003  0.014027  -0.000648  3.74361  -0.002  -0.270774  0.046682  -0.001588  3.703602  -0.004
N  N67  1  0.29058876  0.02652219  0.49508206  1  -0.067101  0.000909  3.486286  0.002  0.037291  -0.000348  3.718883  -0.001  0.017085  -0.000305  3.743047  -0.001  -0.26894  0.050892  -0.000516  3.70184  -0.001
N  N68  1  0.02652394  0.29059269  0.99508228  1  -0.067061  -0.000909  3.486627  -0.002  0.037328  0.000348  3.719241  0.001  0.01712  0.000303  3.74341  0.001  -0.268944  0.050932  0.000516  3.702197  0.001
N  N69  1  0.70890344  0.97350794  0.50496187  1  -0.070282  -0.000382  3.486685  -0.001  0.033773  0.001056  3.720081  0.003  0.014173  0.000646  3.743631  0.002  -0.270704  0.046828  0.001586  3.703609  0.004
O  O70  1  0.54922939  0.74290737  0.78152132  1  -0.637174  0.005084  1.980025  0.018  -0.612548  0.00055  2.223125  0.008  -0.640365  0.000527  2.215512  0.007  -0.355433  -0.593008  0.000767  2.229574  0.009
O  O71  1  0.25718042  0.45454226  0.71923284  1  -0.637699  0.005816  1.97706  0.02  -0.611983  0.001095  2.218289  0.008  -0.640803  0.000781  2.212411  0.007  -0.354826  -0.591398  0.001661  2.222717  0.01
O  O72  1  0.45453287  0.25718966  0.21924136  1  -0.637728  -0.005816  1.97728  -0.02  -0.612033  -0.001092  2.218491  -0.008  -0.640854  -0.000782  2.212611  -0.007  -0.354909  -0.59145  -0.001659  2.22292  -0.01
O  O73  1  0.74290860  0.54925659  0.28151270  1  -0.637084  -0.005086  1.980063  -0.018  -0.612506  -0.00055  2.223159  -0.008  -0.640328  -0.000528  2.215545  -0.007  -0.355459  -0.592973  -0.000767  2.229617  -0.009
O  O74  1  0.62445682  0.32314254  0.85442113  1  -0.651443  0.009929  1.971909  0.031  -0.631119  0.002427  2.22922  0.011  -0.662793  0.001791  2.224315  0.009  -0.372523  -0.607532  0.003065  2.231078  0.012
O  O75  1  0.67476581  0.37487792  0.64352057  1  -0.657237  0.008204  1.977806  0.027  -0.636638  0.001429  2.234938  0.009  -0.667491  0.001205  2.229067  0.008  -0.373174  -0.613803  0.001682  2.237522  0.01
O  O76  1  0.37489156  0.67478069  0.14353224  1  -0.657321  -0.008206  1.977877  -0.027  -0.636752  -0.001431  2.235023  -0.009  -0.6676  -0.001205  2.229116  -0.008  -0.373211  -0.613919  -0.001683  2.237607  -0.01
O  O77  1  0.32314916  0.62444815  0.35444272  1  -0.651193  -0.00993  1.972117  -0.031  -0.631018  -0.002427  2.229206  -0.011  -0.662698  -0.001788  2.224326  -0.009  -0.37237  -0.607422  -0.003064  2.231022  -0.012
O  O78  1  0.47849917  0.60345894  0.91038893  1  -0.621491  0.006256  1.997347  0.022  -0.597117  0.000602  2.251065  0.009  -0.626965  0.000311  2.245559  0.007  -0.342553  -0.576541  0.000816  2.256097  0.01
O  O79  1  0.39487918  0.51945976  0.58879158  1  -0.618873  0.005595  1.999892  0.02  -0.592621  0.001087  2.250906  0.009  -0.623399  0.000456  2.246944  0.007  -0.339053  -0.570877  0.002103  2.254061  0.012
O  O80  1  0.51947915  0.39490870  0.08879375  1  -0.618934  -0.005594  1.999705  -0.02  -0.592654  -0.001088  2.250577  -0.009  -0.62343  -0.000455  2.24661  -0.007  -0.339181  -0.570911  -0.002102  2.253736  -0.012
O  O81  1  0.60344462  0.47848390  0.41038523  1  -0.621242  -0.006255  1.99761  -0.022  -0.596902  -0.000603  2.251301  -0.009  -0.626749  -0.000311  2.245792  -0.007  -0.342495  -0.57633  -0.000817  2.256329  -0.01
O  O82  1  0.77648859  0.63522266  0.86225902  1  -0.588868  0.005565  2.139144  0.019  -0.560116  0.001192  2.40884  0.009  -0.590067  0.001004  2.402974  0.007  -0.361155  -0.538298  0.001366  2.411971  0.01
O  O83  1  0.36335743  0.22197789  0.63851427  1  -0.588228  0.0077  2.133339  0.025  -0.561302  0.001572  2.402725  0.009  -0.592124  0.001276  2.398254  0.008  -0.363432  -0.538816  0.001841  2.404879  0.01
O  O84  1  0.22197927  0.36336805  0.13851593  1  -0.588097  -0.007698  2.133352  -0.025  -0.56113  -0.001569  2.402731  -0.009  -0.591958  -0.001271  2.398259  -0.008  -0.36332  -0.538643  -0.001841  2.404876  -0.01
O  O85  1  0.63522739  0.77649246  0.36226899  1  -0.588645  -0.00557  2.139142  -0.019  -0.559888  -0.00119  2.408794  -0.009  -0.589843  -0.000999  2.40293  -0.007  -0.361065  -0.538075  -0.001366  2.411919  -0.01
O  O86  1  0.37476660  0.27015958  0.86095204  1  -0.605378  0.002449  1.948189  0.012  -0.583047  -0.000134  2.188951  0.005  -0.609798  -0.000311  2.181203  0.004  -0.328912  -0.563621  0.000241  2.193357  0.006
O  O87  1  0.72713968  0.62490431  0.63958558  1  -0.607042  0.003073  1.953191  0.014  -0.585441  0.000225  2.194751  0.007  -0.612354  -7.8e-05  2.1865  0.006  -0.329768  -0.566016  0.000576  2.199433  0.008
O  O88  1  0.62492624  0.72714273  0.13958853  1  -0.607016  -0.003069  1.953286  -0.014  -0.58538  -0.000222  2.19487  -0.007  -0.6123  8.3e-05  2.186605  -0.006  -0.329748  -0.565961  -0.000575  2.199559  -0.008
O  O89  1  0.27013425  0.37473047  0.36093673  1  -0.605099  -0.002451  1.948515  -0.012  -0.582881  0.000133  2.189059  -0.005  -0.609626  0.000312  2.181323  -0.004  -0.328818  -0.563464  -0.000242  2.193458  -0.006
