# generated using pymatgen
data_ZnH4C7O5
_symmetry_space_group_name_H-M   'P 1'
_cell_length_a   7.08050988
_cell_length_b   9.64944761
_cell_length_c   9.98549904
_cell_angle_alpha   90.00008622
_cell_angle_beta   90.00001967
_cell_angle_gamma   89.99983181
_symmetry_Int_Tables_number   1
_chemical_formula_structural   ZnH4C7O5
_chemical_formula_sum   'Zn4 H16 C28 O20'
_cell_volume   682.23934227
_cell_formula_units_Z   4
loop_
 _symmetry_equiv_pos_site_id
 _symmetry_equiv_pos_as_xyz
  1  'x, y, z'
loop_
 _atom_site_type_symbol
 _atom_site_label
 _atom_site_symmetry_multiplicity
 _atom_site_fract_x
 _atom_site_fract_y
 _atom_site_fract_z
 _atom_site_occupancy
 _atom_site_pbe_bader_spin_density
 _atom_site_pbe_cm5_charge
 _atom_site_pbe_ddec_charge
 _atom_site_pbe_ddec_spin_density
 _atom_site_pbe_ddec_sum_bond_order
 _atom_site_pbe_magmom
Zn  Zn0  1  0.90022896  0.76080256  0.49999971  1  0  0.682914  1.01412  0  2.163322  0
Zn  Zn1  1  0.59976855  0.26080017  0.50000031  1  0  0.682884  1.014086  0  2.163387  0
Zn  Zn2  1  0.40023253  0.73919979  0.50000063  1  0  0.682878  1.014069  0  2.163378  0
Zn  Zn3  1  0.09976929  0.23919739  0.49999923  1  0  0.682859  1.014064  0  2.163395  0
H  H4  1  0.41388554  0.67522276  0.12537034  1  0  0.105972  0.114693  0  1.014948  0
H  H5  1  0.08611230  0.17522202  0.87462943  1  0  0.105968  0.11469  0  1.014926  0
H  H6  1  0.91388755  0.82477644  0.87462901  1  0  0.105961  0.114706  0  1.014984  0
H  H7  1  0.58611395  0.32477661  0.12537011  1  0  0.105972  0.114687  0  1.014938  0
H  H8  1  0.58611413  0.32477615  0.87462960  1  0  0.105973  0.1147  0  1.014935  0
H  H9  1  0.91388736  0.82477586  0.12537051  1  0  0.105963  0.11472  0  1.014982  0
H  H10  1  0.08611212  0.17522143  0.12537094  1  0  0.105964  0.114689  0  1.014944  0
H  H11  1  0.41388572  0.67522231  0.87462984  1  0  0.105969  0.114685  0  1.014956  0
H  H12  1  0.67136875  0.55639427  0.57748289  1  0  0.310214  0.406341  0  0.916163  0
H  H13  1  0.82863240  0.05639541  0.42251683  1  0  0.31021  0.406315  0  0.91621  0
H  H14  1  0.17137146  0.94360338  0.42251740  1  0  0.310207  0.406314  0  0.916245  0
H  H15  1  0.32862671  0.44360373  0.57748277  1  0  0.310193  0.406296  0  0.91625  0
H  H16  1  0.32862668  0.44360464  0.42251705  1  0  0.310189  0.4063  0  0.916235  0
H  H17  1  0.17137150  0.94360350  0.57748311  1  0  0.310202  0.406313  0  0.916226  0
H  H18  1  0.82863103  0.05639553  0.57748154  1  0  0.310211  0.406328  0  0.916201  0
H  H19  1  0.67136872  0.55639415  0.42251718  1  0  0.310199  0.406304  0  0.916209  0
C  C20  1  0.30092483  0.62400954  0.07027640  1  0  -0.078986  -0.081058  0  3.958205  0
C  C21  1  0.19907039  0.12400450  0.92972430  1  0  -0.078975  -0.081063  0  3.958211  0
C  C22  1  0.80093090  0.87599198  0.92972392  1  0  -0.078962  -0.081077  0  3.958333  0
C  C23  1  0.69907180  0.37599285  0.07027727  1  0  -0.079034  -0.081102  0  3.958266  0
C  C24  1  0.69907201  0.37599248  0.92972355  1  0  -0.078985  -0.081074  0  3.958239  0
C  C25  1  0.80093069  0.87599131  0.07027564  1  0  -0.07894  -0.081089  0  3.958306  0
C  C26  1  0.19906877  0.12400487  0.07027602  1  0  -0.078996  -0.081124  0  3.958188  0
C  C27  1  0.30092504  0.62400918  0.92972368  1  0  -0.078974  -0.081043  0  3.958195  0
C  C28  1  0.14954179  0.56988231  0.14084768  1  0  -0.009647  -0.071524  0  3.930198  0
C  C29  1  0.35045647  0.06988201  0.85915495  1  0  -0.009675  -0.071511  0  3.930054  0
C  C30  1  0.64954479  0.93011850  0.85915661  1  0  -0.009612  -0.071478  0  3.930166  0
C  C31  1  0.85045629  0.43011915  0.14084465  1  0  -0.0096  -0.071457  0  3.930176  0
C  C32  1  0.85045646  0.43011660  0.85915527  1  0  -0.00963  -0.071514  0  3.930198  0
C  C33  1  0.64954461  0.93011690  0.14084399  1  0  -0.009623  -0.071428  0  3.930138  0
C  C34  1  0.35045488  0.06988042  0.14084533  1  0  -0.009612  -0.071387  0  3.930006  0
C  C35  1  0.14954197  0.56988183  0.85915229  1  0  -0.009636  -0.071504  0  3.930108  0
C  C36  1  0.99999903  0.50000066  0.07216413  1  0  0.005459  0.037143  0  3.927417  0
C  C37  1  0.50000094  0.00000018  0.92783651  1  0  0.005498  0.037193  0  3.927352  0
C  C38  1  0.99999924  0.50000029  0.92783594  1  0  0.005473  0.037181  0  3.927352  0
C  C39  1  0.50000014  0.99999977  0.07216443  1  0  0.00545  0.037107  0  3.927435  0
C  C40  1  0.14183892  0.60764625  0.28627158  1  0  0.226412  0.620049  0  4.152703  0
C  C41  1  0.35816767  0.10764675  0.71373010  1  0  0.226524  0.620227  0  4.152735  0
C  C42  1  0.64183775  0.89235457  0.71373271  1  0  0.226412  0.620119  0  4.152995  0
C  C43  1  0.85816206  0.39235440  0.28626951  1  0  0.226492  0.620215  0  4.152783  0
C  C44  1  0.85816075  0.39235266  0.71373037  1  0  0.226519  0.620267  0  4.152776  0
C  C45  1  0.64183765  0.89235320  0.28626784  1  0  0.226421  0.620114  0  4.152899  0
C  C46  1  0.35816474  0.10764538  0.28626924  1  0  0.226429  0.620079  0  4.15285  0
C  C47  1  0.14183902  0.60764555  0.71372743  1  0  0.226374  0.620012  0  4.152731  0
O  O48  1  0.98626955  0.65416825  0.33026852  1  0  -0.30569  -0.553486  0  2.35068  0
O  O49  1  0.51372557  0.15416320  0.66973535  1  0  -0.305678  -0.553488  0  2.350918  0
O  O50  1  0.48627559  0.84583909  0.66973385  1  0  -0.305694  -0.553533  0  2.350886  0
O  O51  1  0.01373145  0.34583247  0.33026417  1  0  -0.305697  -0.553536  0  2.350714  0
O  O52  1  0.01373012  0.34583585  0.66973243  1  0  -0.305743  -0.553605  0  2.350771  0
O  O53  1  0.48627551  0.84583779  0.33026659  1  0  -0.305687  -0.553546  0  2.350858  0
O  O54  1  0.51372407  0.15416190  0.33026509  1  0  -0.305662  -0.553476  0  2.350891  0
O  O55  1  0.98626822  0.65416955  0.66973177  1  0  -0.30569  -0.553473  0  2.350675  0
O  O56  1  0.29581515  0.59906948  0.35321667  1  0  -0.320343  -0.589364  0  2.380917  0
O  O57  1  0.20418582  0.09906813  0.64678700  1  0  -0.320443  -0.589507  0  2.380855  0
O  O58  1  0.79581533  0.90093723  0.64678866  1  0  -0.320383  -0.589431  0  2.380999  0
O  O59  1  0.70418868  0.40092920  0.35321357  1  0  -0.320392  -0.589463  0  2.381028  0
O  O60  1  0.70418593  0.40093047  0.64678728  1  0  -0.320392  -0.589479  0  2.38102  0
O  O61  1  0.79581526  0.90093493  0.35321194  1  0  -0.320394  -0.589445  0  2.380988  0
O  O62  1  0.20418292  0.09906687  0.35321329  1  0  -0.32038  -0.589406  0  2.380909  0
O  O63  1  0.29581522  0.59906971  0.64678237  1  0  -0.320307  -0.589315  0  2.380912  0
O  O64  1  0.65901921  0.62259698  0.50000058  1  0  -0.544232  -0.742532  0  2.27799  0
O  O65  1  0.84098168  0.12259925  0.49999924  1  0  -0.544236  -0.742521  0  2.278002  0
O  O66  1  0.15901657  0.87740174  0.50000071  1  0  -0.544238  -0.742563  0  2.278097  0
O  O67  1  0.34098187  0.37740297  0.49999936  1  0  -0.544199  -0.742527  0  2.2781  0
