# generated using pymatgen
data_ZnH9C7NO5
_symmetry_space_group_name_H-M   'P 1'
_cell_length_a   7.99543497
_cell_length_b   13.94636895
_cell_length_c   13.94638880
_cell_angle_alpha   119.99998432
_cell_angle_beta   90.00015096
_cell_angle_gamma   89.99991236
_symmetry_Int_Tables_number   1
_chemical_formula_structural   ZnH9C7NO5
_chemical_formula_sum   'Zn6 H54 C42 N6 O30'
_cell_volume   1346.77707271
_cell_formula_units_Z   6
loop_
 _symmetry_equiv_pos_site_id
 _symmetry_equiv_pos_as_xyz
  1  'x, y, z'
loop_
 _atom_site_type_symbol
 _atom_site_label
 _atom_site_symmetry_multiplicity
 _atom_site_fract_x
 _atom_site_fract_y
 _atom_site_fract_z
 _atom_site_occupancy
 _atom_site_hle17_bader_spin_density
 _atom_site_hle17_ddec_charge
 _atom_site_hle17_ddec_spin_density
 _atom_site_hle17_ddec_sum_bond_order
 _atom_site_hle17_magmom
 _atom_site_hse06_10hf_bader_spin_density
 _atom_site_hse06_10hf_ddec_charge
 _atom_site_hse06_10hf_ddec_spin_density
 _atom_site_hse06_10hf_ddec_sum_bond_order
 _atom_site_hse06_10hf_magmom
 _atom_site_hse06_bader_spin_density
 _atom_site_hse06_ddec_charge
 _atom_site_hse06_ddec_spin_density
 _atom_site_hse06_ddec_sum_bond_order
 _atom_site_hse06_magmom
 _atom_site_pbe_bader_spin_density
 _atom_site_pbe_cm5_charge
 _atom_site_pbe_ddec_charge
 _atom_site_pbe_ddec_spin_density
 _atom_site_pbe_ddec_sum_bond_order
 _atom_site_pbe_magmom
Zn  Zn0  1  0.39576260  0.01340115  0.23261670  1  0  1.171026  0  1.743684  0  0  1.012939  0  2.192153  0  0  1.062829  0  2.130712  0  0  0.679593  0.977622  0  2.234497  0
Zn  Zn1  1  0.39576410  0.76738486  0.78078584  1  0  1.170988  0  1.743726  0  0  1.012871  0  2.192257  0  0  1.062759  0  2.130818  0  0  0.679581  0.977559  0  2.2346  0
Zn  Zn2  1  0.39576280  0.21921363  0.98659819  1  0  1.170994  0  1.74373  0  0  1.012881  0  2.192209  0  0  1.062771  0  2.13077  0  0  0.679561  0.977554  0  2.234549  0
Zn  Zn3  1  0.60423774  0.98659831  0.76738157  1  0  1.171044  0  1.743654  0  0  1.012959  0  2.192127  0  0  1.062847  0  2.130687  0  0  0.679588  0.97763  0  2.234467  0
Zn  Zn4  1  0.60423624  0.23261460  0.21921457  1  0  1.17101  0  1.743697  0  0  1.012879  0  2.192232  0  0  1.06277  0  2.130791  0  0  0.679573  0.977558  0  2.234571  0
Zn  Zn5  1  0.60423629  0.78078748  0.01340233  1  0  1.171029  0  1.743677  0  0  1.012901  0  2.192184  0  0  1.062792  0  2.130745  0  0  0.679582  0.977581  0  2.234528  0
H  H6  1  0.46962251  0.57670075  0.12816849  1  0  0.116856  0  0.940853  0  0  0.125297  0  1.003997  0  0  0.129631  0  0.999856  0  0  0.111533  0.122091  0  1.007103  0
H  H7  1  0.46962410  0.87182782  0.44853217  1  0  0.116853  0  0.94083  0  0  0.125301  0  1.003962  0  0  0.129634  0  0.999822  0  0  0.111536  0.122082  0  1.007085  0
H  H8  1  0.46962447  0.55146441  0.42329523  1  0  0.116844  0  0.940825  0  0  0.125288  0  1.003961  0  0  0.129623  0  0.999819  0  0  0.111538  0.122083  0  1.007069  0
H  H9  1  0.53037783  0.42329871  0.87183121  1  0  0.116836  0  0.940873  0  0  0.125306  0  1.003984  0  0  0.129641  0  0.999843  0  0  0.111536  0.122093  0  1.007098  0
H  H10  1  0.53037624  0.12817247  0.55146794  1  0  0.116847  0  0.940834  0  0  0.125297  0  1.003959  0  0  0.12963  0  0.999818  0  0  0.111552  0.122075  0  1.007087  0
H  H11  1  0.53037462  0.44853505  0.57670447  1  0  0.116857  0  0.94081  0  0  0.125307  0  1.003936  0  0  0.129642  0  0.999795  0  0  0.111535  0.122102  0  1.007044  0
H  H12  1  0.87430792  0.95101721  0.12082703  1  0  0.017275  0  0.93036  0  0  0.025047  0  1.003095  0  0  0.025136  0  0.998778  0  0  0.11257  0.024667  0  1.006354  0
H  H13  1  0.87430714  0.87917402  0.83018944  1  0  0.017338  0  0.930309  0  0  0.025077  0  1.003076  0  0  0.025166  0  0.99876  0  0  0.112559  0.024698  0  1.006332  0
H  H14  1  0.87430504  0.16980745  0.04898461  1  0  0.017338  0  0.930325  0  0  0.025102  0  1.003068  0  0  0.025195  0  0.998746  0  0  0.112567  0.024704  0  1.006343  0
H  H15  1  0.12569367  0.04898391  0.87917349  1  0  0.017319  0  0.930317  0  0  0.025058  0  1.003081  0  0  0.025145  0  0.998767  0  0  0.11257  0.024674  0  1.006343  0
H  H16  1  0.12569070  0.12082544  0.16981025  1  0  0.017337  0  0.930293  0  0  0.025072  0  1.003066  0  0  0.025161  0  0.998749  0  0  0.112549  0.024687  0  1.00633  0
H  H17  1  0.12569405  0.83019284  0.95101621  1  0  0.017374  0  0.930287  0  0  0.02511  0  1.003056  0  0  0.025204  0  0.998733  0  0  0.112572  0.024713  0  1.00633  0
H  H18  1  0.06067024  0.92908375  0.26148605  1  0  0.047659  0  0.939796  0  0  0.053228  0  1.016171  0  0  0.055584  0  1.010483  0  0  0.122947  0.051347  0  1.020361  0
H  H19  1  0.06066892  0.73851406  0.66759632  1  0  0.047642  0  0.939759  0  0  0.053197  0  1.016148  0  0  0.055554  0  1.01046  0  0  0.122924  0.051322  0  1.020322  0
H  H20  1  0.06067059  0.33240189  0.07091595  1  0  0.047618  0  0.93978  0  0  0.053187  0  1.016161  0  0  0.055543  0  1.010471  0  0  0.122926  0.051306  0  1.020348  0
H  H21  1  0.93933011  0.07091654  0.73851406  1  0  0.047637  0  0.939777  0  0  0.053199  0  1.016152  0  0  0.055556  0  1.010464  0  0  0.12293  0.051318  0  1.020342  0
H  H22  1  0.93933017  0.26148622  0.33240307  1  0  0.047618  0  0.939817  0  0  0.053195  0  1.016176  0  0  0.055553  0  1.010487  0  0  0.122929  0.051315  0  1.020371  0
H  H23  1  0.93932725  0.66759757  0.92908446  1  0  0.047582  0  0.939825  0  0  0.053143  0  1.016217  0  0  0.0555  0  1.010529  0  0  0.12292  0.051269  0  1.020389  0
H  H24  1  0.05535627  0.19062623  0.51818669  1  0  0.105449  0  0.941333  0  0  0.124445  0  1.003645  0  0  0.126003  0  1.002544  0  0  0.108891  0.123239  0  1.004482  0
H  H25  1  0.05535749  0.48181397  0.67243858  1  0  0.105463  0  0.941301  0  0  0.124449  0  1.003624  0  0  0.126003  0  1.002528  0  0  0.108913  0.123243  0  1.004462  0
H  H26  1  0.05535551  0.32756201  0.80937454  1  0  0.105465  0  0.941281  0  0  0.124452  0  1.003599  0  0  0.126007  0  1.002502  0  0  0.108885  0.123247  0  1.004438  0
H  H27  1  0.94464407  0.80937323  0.48181301  1  0  0.105454  0  0.941332  0  0  0.12445  0  1.003646  0  0  0.126011  0  1.002541  0  0  0.108895  0.123244  0  1.004484  0
H  H28  1  0.94464285  0.51818631  0.32756225  1  0  0.105487  0  0.941298  0  0  0.124474  0  1.00362  0  0  0.126028  0  1.002522  0  0  0.108922  0.123267  0  1.004457  0
H  H29  1  0.94464358  0.67243911  0.19062599  1  0  0.105457  0  0.94132  0  0  0.124456  0  1.003624  0  0  0.126015  0  1.002523  0  0  0.108891  0.12325  0  1.004461  0
H  H30  1  0.87797835  0.15059519  0.56965483  1  0  0.100191  0  0.938969  0  0  0.122648  0  0.999716  0  0  0.122782  0  1.00054  0  0  0.107365  0.12244  0  0.999226  0
H  H31  1  0.87797926  0.43034561  0.58093964  1  0  0.100146  0  0.938934  0  0  0.1226  0  0.99969  0  0  0.122736  0  1.00051  0  0  0.107341  0.122396  0  0.999197  0
H  H32  1  0.87797739  0.41906121  0.84940639  1  0  0.100187  0  0.939004  0  0  0.122641  0  0.999752  0  0  0.122775  0  1.000574  0  0  0.107355  0.122435  0  0.999264  0
H  H33  1  0.12202074  0.84940510  0.43034528  1  0  0.100196  0  0.938965  0  0  0.12265  0  0.999716  0  0  0.122784  0  1.000536  0  0  0.107365  0.122443  0  0.999226  0
H  H34  1  0.12202108  0.56965385  0.41906006  1  0  0.100195  0  0.938975  0  0  0.12265  0  0.999722  0  0  0.122785  0  1.000543  0  0  0.10736  0.122444  0  0.999231  0
H  H35  1  0.12202295  0.58093991  0.15059414  1  0  0.100202  0  0.938977  0  0  0.122655  0  0.999727  0  0  0.12279  0  1.000549  0  0  0.107363  0.122448  0  0.999235  0
H  H36  1  0.84776208  0.20553191  0.48008353  1  0  0.095698  0  0.953501  0  0  0.116849  0  1.017007  0  0  0.116442  0  1.018141  0  0  0.102561  0.116976  0  1.016367  0
H  H37  1  0.84776598  0.51991733  0.72544730  1  0  0.0957  0  0.953484  0  0  0.116852  0  1.016986  0  0  0.116442  0  1.018124  0  0  0.102582  0.116979  0  1.016347  0
H  H38  1  0.84776271  0.27455194  0.79446883  1  0  0.095721  0  0.953526  0  0  0.116871  0  1.017026  0  0  0.116463  0  1.018162  0  0  0.10257  0.116998  0  1.016386  0
H  H39  1  0.15223701  0.79446838  0.51991586  1  0  0.095719  0  0.953477  0  0  0.116898  0  1.016954  0  0  0.11647  0  1.01811  0  0  0.102577  0.117025  0  1.016314  0
H  H40  1  0.15223436  0.48008213  0.27455240  1  0  0.095719  0  0.953474  0  0  0.116867  0  1.016979  0  0  0.116458  0  1.018116  0  0  0.102577  0.116993  0  1.016339  0
H  H41  1  0.15223638  0.72544752  0.20553015  1  0  0.095708  0  0.953506  0  0  0.116854  0  1.017016  0  0  0.11645  0  1.018148  0  0  0.102568  0.11698  0  1.016377  0
H  H42  1  0.83153279  0.88530372  0.31193436  1  0  0.106929  0  0.943415  0  0  0.125459  0  1.010466  0  0  0.126501  0  1.010133  0  0  0.107236  0.124588  0  1.010815  0
H  H43  1  0.83153115  0.68806575  0.57336782  1  0  0.106943  0  0.943378  0  0  0.12546  0  1.010445  0  0  0.126502  0  1.010113  0  0  0.107236  0.12459  0  1.010792  0
H  H44  1  0.83153419  0.42663004  0.11469637  1  0  0.106953  0  0.943426  0  0  0.125482  0  1.010475  0  0  0.126524  0  1.010142  0  0  0.107242  0.124611  0  1.010824  0
H  H45  1  0.16846756  0.11469657  0.68806575  1  0  0.106935  0  0.943402  0  0  0.125461  0  1.010454  0  0  0.126502  0  1.010122  0  0  0.107242  0.12459  0  1.010805  0
H  H46  1  0.16846795  0.31193453  0.42663230  1  0  0.106956  0  0.94344  0  0  0.125485  0  1.010478  0  0  0.126527  0  1.010145  0  0  0.107254  0.124616  0  1.01083  0
H  H47  1  0.16846615  0.57336942  0.88530261  1  0  0.106957  0  0.943431  0  0  0.125487  0  1.010479  0  0  0.126528  0  1.010148  0  0  0.10725  0.124616  0  1.010831  0
H  H48  1  0.68662135  0.99656137  0.37919758  1  0  0.129192  0  0.968484  0  0  0.144854  0  1.032203  0  0  0.146416  0  1.032  0  0  0.106835  0.143601  0  1.032563  0
H  H49  1  0.68662240  0.62080160  0.61736221  1  0  0.129207  0  0.968502  0  0  0.144875  0  1.032201  0  0  0.146437  0  1.031999  0  0  0.10684  0.143622  0  1.032561  0
H  H50  1  0.68662131  0.38263740  0.00343958  1  0  0.129207  0  0.968468  0  0  0.144863  0  1.032198  0  0  0.146425  0  1.031995  0  0  0.106829  0.143608  0  1.032558  0
H  H51  1  0.31337899  0.00343809  0.62080212  1  0  0.129167  0  0.968519  0  0  0.144849  0  1.032207  0  0  0.146411  0  1.032005  0  0  0.106826  0.143594  0  1.032567  0
H  H52  1  0.31337795  0.37919786  0.38263749  1  0  0.129211  0  0.968486  0  0  0.144889  0  1.032176  0  0  0.146452  0  1.031973  0  0  0.106846  0.143635  0  1.032538  0
H  H53  1  0.31337653  0.61736289  0.99656053  1  0  0.129202  0  0.968508  0  0  0.144883  0  1.032199  0  0  0.146446  0  1.031997  0  0  0.106841  0.143629  0  1.03256  0
H  H54  1  0.79993876  0.95042252  0.45886310  1  0  0.099541  0  0.946997  0  0  0.118909  0  1.011669  0  0  0.119583  0  1.011965  0  0  0.102054  0.118341  0  1.011516  0
H  H55  1  0.79993812  0.54113556  0.49155724  1  0  0.099591  0  0.947028  0  0  0.118963  0  1.011682  0  0  0.119637  0  1.011979  0  0  0.102071  0.118392  0  1.011534  0
H  H56  1  0.79993966  0.50844144  0.04957886  1  0  0.099547  0  0.947011  0  0  0.118929  0  1.011664  0  0  0.119602  0  1.011961  0  0  0.102051  0.118361  0  1.011516  0
H  H57  1  0.20006158  0.04957694  0.54113660  1  0  0.099526  0  0.946997  0  0  0.118881  0  1.011683  0  0  0.119554  0  1.011979  0  0  0.102042  0.118323  0  1.011523  0
H  H58  1  0.20006097  0.45886390  0.50844246  1  0  0.099582  0  0.947079  0  0  0.118951  0  1.011736  0  0  0.119625  0  1.012033  0  0  0.102073  0.118387  0  1.011584  0
H  H59  1  0.20006068  0.49155885  0.95042125  1  0  0.099559  0  0.946997  0  0  0.118937  0  1.011654  0  0  0.119611  0  1.011951  0  0  0.102052  0.118369  0  1.011503  0
C  C60  1  0.45740046  0.79987096  0.22670279  1  0  0.660691  0  3.902063  0  0  0.606401  0  4.198066  0  0  0.641826  0  4.190279  0  0  0.211947  0.582375  0  4.202696  0
C  C61  1  0.45740004  0.77329412  0.57316844  1  0  0.660663  0  3.902117  0  0  0.606329  0  4.198193  0  0  0.641754  0  4.190408  0  0  0.211907  0.582299  0  4.202821  0
C  C62  1  0.45739965  0.42682872  0.20012576  1  0  0.660565  0  3.902184  0  0  0.606228  0  4.198246  0  0  0.641653  0  4.190463  0  0  0.211883  0.582197  0  4.202874  0
C  C63  1  0.54259988  0.20012933  0.77329732  1  0  0.660663  0  3.902213  0  0  0.606379  0  4.198212  0  0  0.641804  0  4.190426  0  0  0.211947  0.582345  0  4.202841  0
C  C64  1  0.54259905  0.22670617  0.42683239  1  0  0.660559  0  3.902221  0  0  0.606238  0  4.198275  0  0  0.641662  0  4.190492  0  0  0.211874  0.582208  0  4.202902  0
C  C65  1  0.54260069  0.57317074  0.79987322  1  0  0.660546  0  3.902186  0  0  0.60622  0  4.198243  0  0  0.641644  0  4.190462  0  0  0.211872  0.582192  0  4.20287  0
C  C66  1  0.47104847  0.73165216  0.28253069  1  0  -0.088153  0  3.774981  0  0  -0.061858  0  4.012872  0  0  -0.072799  0  4.03598  0  0  -0.023802  -0.055001  0  3.997376  0
C  C67  1  0.47104887  0.71746499  0.44912150  1  0  -0.088244  0  3.775008  0  0  -0.061941  0  4.012935  0  0  -0.072879  0  4.036035  0  0  -0.023765  -0.055079  0  3.997435  0
C  C68  1  0.47104868  0.55087500  0.26834472  1  0  -0.08813  0  3.775026  0  0  -0.061821  0  4.012917  0  0  -0.072761  0  4.036026  0  0  -0.023776  -0.05496  0  3.997418  0
C  C69  1  0.52895187  0.26834813  0.71746942  1  0  -0.08812  0  3.774934  0  0  -0.061838  0  4.012834  0  0  -0.072779  0  4.035942  0  0  -0.02379  -0.054973  0  3.997328  0
C  C70  1  0.52895022  0.28253447  0.55087819  1  0  -0.08824  0  3.775128  0  0  -0.061936  0  4.01303  0  0  -0.072878  0  4.036138  0  0  -0.023809  -0.055075  0  3.997533  0
C  C71  1  0.52895041  0.44912529  0.73165539  1  0  -0.088141  0  3.775005  0  0  -0.06183  0  4.012898  0  0  -0.07277  0  4.036006  0  0  -0.023786  -0.05497  0  3.997403  0
C  C72  1  0.47217037  0.61594507  0.21804538  1  0  -0.05739  0  3.69234  0  0  -0.095085  0  3.939341  0  0  -0.089761  0  3.95591  0  0  -0.073579  -0.098167  0  3.928055  0
C  C73  1  0.47217056  0.78195053  0.39790034  1  0  -0.057326  0  3.692202  0  0  -0.094999  0  3.939159  0  0  -0.089677  0  3.955731  0  0  -0.073544  -0.098073  0  3.927881  0
C  C74  1  0.47216951  0.60209654  0.38405119  1  0  -0.057299  0  3.692215  0  0  -0.094983  0  3.939206  0  0  -0.089659  0  3.955774  0  0  -0.07356  -0.098067  0  3.927924  0
C  C75  1  0.52782998  0.38405439  0.78195432  1  0  -0.057396  0  3.692366  0  0  -0.095115  0  3.939373  0  0  -0.089791  0  3.955939  0  0  -0.073587  -0.098192  0  3.928089  0
C  C76  1  0.52782978  0.21804893  0.60209936  1  0  -0.057265  0  3.69217  0  0  -0.094929  0  3.939118  0  0  -0.089607  0  3.955689  0  0  -0.073521  -0.098  0  3.92784  0
C  C77  1  0.52783208  0.39790292  0.61594850  1  0  -0.057344  0  3.69228  0  0  -0.095034  0  3.939269  0  0  -0.089709  0  3.955836  0  0  -0.073565  -0.098118  0  3.927991  0
C  C78  1  0.76060936  0.00340606  0.14897184  1  0  0.61468  0  3.837053  0  0  0.541307  0  4.138305  0  0  0.576065  0  4.130233  0  0  0.154519  0.517716  0  4.143223  0
C  C79  1  0.76060860  0.85103172  0.85443567  1  0  0.6145  0  3.837091  0  0  0.541145  0  4.138335  0  0  0.5759  0  4.13027  0  0  0.154491  0.517555  0  4.143251  0
C  C80  1  0.76060611  0.14556177  0.99659473  1  0  0.614486  0  3.837123  0  0  0.541121  0  4.138359  0  0  0.575875  0  4.130296  0  0  0.154486  0.517542  0  4.143277  0
C  C81  1  0.23939223  0.99659505  0.85103012  1  0  0.614646  0  3.836984  0  0  0.541298  0  4.138218  0  0  0.576055  0  4.130149  0  0  0.154544  0.517707  0  4.143138  0
C  C82  1  0.23939049  0.14896857  0.14556373  1  0  0.614521  0  3.837163  0  0  0.541167  0  4.138403  0  0  0.575922  0  4.130338  0  0  0.154488  0.517577  0  4.143323  0
C  C83  1  0.23939423  0.85443686  0.00340312  1  0  0.614474  0  3.837067  0  0  0.541127  0  4.138305  0  0  0.575879  0  4.130243  0  0  0.154488  0.51755  0  4.14322  0
C  C84  1  0.06332062  0.01545942  0.33004544  1  0  0.387709  0  3.806669  0  0  0.311706  0  4.098979  0  0  0.340367  0  4.098514  0  0  0.171715  0.2925  0  4.098819  0
C  C85  1  0.06332181  0.66995582  0.68541388  1  0  0.387672  0  3.80668  0  0  0.311717  0  4.098967  0  0  0.340378  0  4.098501  0  0  0.171691  0.292513  0  4.09881  0
C  C86  1  0.06332047  0.31458614  0.98454009  1  0  0.38774  0  3.806702  0  0  0.31175  0  4.099015  0  0  0.34041  0  4.098551  0  0  0.171685  0.29254  0  4.098856  0
C  C87  1  0.93667722  0.98453921  0.66995384  1  0  0.387747  0  3.806762  0  0  0.311796  0  4.099021  0  0  0.340457  0  4.098556  0  0  0.171721  0.292587  0  4.098862  0
C  C88  1  0.93667853  0.33004612  0.31458850  1  0  0.38775  0  3.806606  0  0  0.311766  0  4.09892  0  0  0.340427  0  4.098453  0  0  0.171672  0.292555  0  4.098765  0
C  C89  1  0.93668237  0.68541498  0.01545972  1  0  0.387786  0  3.806666  0  0  0.311783  0  4.098982  0  0  0.340443  0  4.098517  0  0  0.171712  0.292578  0  4.098827  0
C  C90  1  0.93012920  0.15381847  0.49858892  1  0  -0.166719  0  3.650502  0  0  -0.266432  0  3.89294  0  0  -0.262342  0  3.903158  0  0  -0.132669  -0.268889  0  3.886037  0
C  C91  1  0.93013034  0.50141251  0.65522864  1  0  -0.166665  0  3.650431  0  0  -0.266337  0  3.892899  0  0  -0.262245  0  3.903124  0  0  -0.13267  -0.268798  0  3.885999  0
C  C92  1  0.93012849  0.34477102  0.84618198  1  0  -0.166772  0  3.650547  0  0  -0.266453  0  3.892978  0  0  -0.262361  0  3.9032  0  0  -0.132676  -0.268915  0  3.886082  0
C  C93  1  0.06987115  0.84618099  0.50141078  1  0  -0.166752  0  3.65052  0  0  -0.266471  0  3.892964  0  0  -0.262365  0  3.903192  0  0  -0.132696  -0.268934  0  3.886071  0
C  C94  1  0.06987000  0.49858778  0.34477147  1  0  -0.166756  0  3.65047  0  0  -0.266429  0  3.892927  0  0  -0.262335  0  3.903149  0  0  -0.132687  -0.268892  0  3.886028  0
C  C95  1  0.06987060  0.65522927  0.15381741  1  0  -0.166765  0  3.650543  0  0  -0.266463  0  3.892984  0  0  -0.262376  0  3.903201  0  0  -0.132682  -0.268922  0  3.88608  0
C  C96  1  0.80705639  0.96401515  0.38792173  1  0  -0.190395  0  3.628716  0  0  -0.292377  0  3.87866  0  0  -0.290316  0  3.890075  0  0  -0.139756  -0.293434  0  3.870909  0
C  C97  1  0.80705604  0.61207826  0.57609215  1  0  -0.190539  0  3.628786  0  0  -0.292484  0  3.878741  0  0  -0.290424  0  3.890157  0  0  -0.139793  -0.293541  0  3.870994  0
C  C98  1  0.80705505  0.42390694  0.03598575  1  0  -0.190455  0  3.628737  0  0  -0.29244  0  3.878697  0  0  -0.290379  0  3.890112  0  0  -0.139756  -0.293502  0  3.870954  0
C  C99  1  0.19294395  0.03598431  0.61207797  1  0  -0.19038  0  3.628759  0  0  -0.292338  0  3.878711  0  0  -0.290279  0  3.890129  0  0  -0.139744  -0.293406  0  3.87096  0
C  C100  1  0.19294431  0.38792203  0.42390868  1  0  -0.190548  0  3.628869  0  0  -0.292525  0  3.878837  0  0  -0.290466  0  3.890251  0  0  -0.139828  -0.29359  0  3.871095  0
C  C101  1  0.19294279  0.57609335  0.96401437  1  0  -0.190499  0  3.628798  0  0  -0.292492  0  3.878731  0  0  -0.290434  0  3.890148  0  0  -0.139781  -0.293553  0  3.870988  0
N  N102  1  0.94104661  0.04191587  0.40447439  1  0  -0.08677  0  3.4981  0  0  0.016431  0  3.733052  0  0  -0.004  0  3.758932  0  0  -0.282707  0.030094  0  3.715119  0
N  N103  1  0.94104641  0.59552650  0.63744086  1  0  -0.086686  0  3.498077  0  0  0.016426  0  3.733108  0  0  -0.004005  0  3.758986  0  0  -0.282693  0.030087  0  3.715177  0
N  N104  1  0.94104620  0.36255962  0.95808503  1  0  -0.086708  0  3.498167  0  0  0.016452  0  3.733153  0  0  -0.003978  0  3.759032  0  0  -0.282669  0.030114  0  3.715222  0
N  N105  1  0.05895373  0.95808359  0.59552530  1  0  -0.086724  0  3.498167  0  0  0.01641  0  3.733173  0  0  -0.004021  0  3.759048  0  0  -0.28269  0.03007  0  3.715244  0
N  N106  1  0.05895393  0.40447462  0.36256038  1  0  -0.086681  0  3.498062  0  0  0.016445  0  3.733083  0  0  -0.003985  0  3.758961  0  0  -0.282685  0.030108  0  3.715154  0
N  N107  1  0.05895414  0.63743984  0.04191467  1  0  -0.086682  0  3.498091  0  0  0.016491  0  3.733074  0  0  -0.003939  0  3.758955  0  0  -0.282688  0.030153  0  3.715142  0
O  O108  1  0.47582706  0.74896403  0.12249206  1  0  -0.645697  0  2.129178  0  0  -0.578939  0  2.395631  0  0  -0.605956  0  2.381623  0  0  -0.316285  -0.560096  0  2.404568  0
O  O109  1  0.47582679  0.87750584  0.62646956  1  0  -0.645644  0  2.129156  0  0  -0.578903  0  2.395657  0  0  -0.605917  0  2.381647  0  0  -0.316273  -0.560067  0  2.404615  0
O  O110  1  0.47582660  0.37352724  0.25103564  1  0  -0.645689  0  2.129159  0  0  -0.57891  0  2.395614  0  0  -0.605927  0  2.381609  0  0  -0.316309  -0.560065  0  2.40454  0
O  O111  1  0.52417328  0.25103708  0.87750847  1  0  -0.645712  0  2.129243  0  0  -0.578944  0  2.395678  0  0  -0.605961  0  2.381672  0  0  -0.316298  -0.5601  0  2.40461  0
O  O112  1  0.52417230  0.12249362  0.37353014  1  0  -0.645598  0  2.129126  0  0  -0.578854  0  2.395603  0  0  -0.605866  0  2.381595  0  0  -0.31626  -0.560021  0  2.404569  0
O  O113  1  0.52417374  0.62647470  0.74896530  1  0  -0.645651  0  2.129121  0  0  -0.57891  0  2.395611  0  0  -0.605924  0  2.381605  0  0  -0.316311  -0.560072  0  2.404561  0
O  O114  1  0.42297958  0.90228187  0.28821191  1  0  -0.640692  0  2.066764  0  0  -0.577041  0  2.331915  0  0  -0.605732  0  2.319433  0  0  -0.314147  -0.55702  0  2.339766  0
O  O115  1  0.42297933  0.71178676  0.61407131  1  0  -0.640648  0  2.066778  0  0  -0.576985  0  2.331957  0  0  -0.605675  0  2.319476  0  0  -0.314133  -0.556966  0  2.339808  0
O  O116  1  0.42297983  0.38592684  0.09771525  1  0  -0.640618  0  2.066885  0  0  -0.576908  0  2.331998  0  0  -0.605602  0  2.319525  0  0  -0.314073  -0.556891  0  2.339845  0
O  O117  1  0.57702076  0.09771841  0.71178891  1  0  -0.640679  0  2.066869  0  0  -0.577034  0  2.332025  0  0  -0.605719  0  2.319527  0  0  -0.314139  -0.557014  0  2.339871  0
O  O118  1  0.57702102  0.28821270  0.38592839  1  0  -0.640585  0  2.06682  0  0  -0.576925  0  2.331999  0  0  -0.605622  0  2.319528  0  0  -0.314088  -0.556905  0  2.339847  0
O  O119  1  0.57702052  0.61407428  0.90228456  1  0  -0.640596  0  2.066837  0  0  -0.576896  0  2.331965  0  0  -0.605583  0  2.319475  0  0  -0.314048  -0.556874  0  2.33981  0
O  O120  1  0.62094337  0.95220699  0.13290930  1  0  -0.641944  0  2.206272  0  0  -0.559678  0  2.492307  0  0  -0.590326  0  2.475827  0  0  -0.310149  -0.538202  0  2.502655  0
O  O121  1  0.62094130  0.86709497  0.81930116  1  0  -0.641823  0  2.206232  0  0  -0.559559  0  2.492264  0  0  -0.590196  0  2.475773  0  0  -0.310109  -0.538087  0  2.502615  0
O  O122  1  0.62093920  0.18069678  0.04779367  1  0  -0.641785  0  2.206188  0  0  -0.559551  0  2.492287  0  0  -0.590194  0  2.475806  0  0  -0.31012  -0.538077  0  2.502619  0
O  O123  1  0.37905947  0.04779329  0.86709368  1  0  -0.641958  0  2.206218  0  0  -0.559704  0  2.492268  0  0  -0.590343  0  2.475776  0  0  -0.310187  -0.538231  0  2.502618  0
O  O124  1  0.37905779  0.13290449  0.18069925  1  0  -0.641882  0  2.206234  0  0  -0.559614  0  2.492278  0  0  -0.590253  0  2.475787  0  0  -0.310119  -0.538141  0  2.502624  0
O  O125  1  0.37906115  0.81930268  0.95220531  1  0  -0.641829  0  2.20628  0  0  -0.559577  0  2.492344  0  0  -0.590218  0  2.47586  0  0  -0.310118  -0.538105  0  2.502688  0
O  O126  1  0.77952637  0.10629885  0.19280762  1  0  -0.598986  0  2.10412  0  0  -0.535846  0  2.375011  0  0  -0.564312  0  2.363471  0  0  -0.3075  -0.516073  0  2.38221  0
O  O127  1  0.77952834  0.80719876  0.91349502  1  0  -0.598924  0  2.104057  0  0  -0.535782  0  2.374925  0  0  -0.564245  0  2.363386  0  0  -0.307493  -0.516012  0  2.382126  0
O  O128  1  0.77952550  0.08650525  0.89370272  1  0  -0.598951  0  2.104132  0  0  -0.535808  0  2.374993  0  0  -0.56427  0  2.363454  0  0  -0.307505  -0.516038  0  2.38219  0
O  O129  1  0.22047522  0.89370226  0.80719290  1  0  -0.598948  0  2.10406  0  0  -0.535805  0  2.374925  0  0  -0.56427  0  2.363388  0  0  -0.307488  -0.516036  0  2.382127  0
O  O130  1  0.22047075  0.19280070  0.08650467  1  0  -0.598913  0  2.104212  0  0  -0.535767  0  2.375072  0  0  -0.564229  0  2.363531  0  0  -0.307475  -0.515995  0  2.382269  0
O  O131  1  0.22047234  0.91349339  0.10629585  1  0  -0.598932  0  2.104026  0  0  -0.535794  0  2.374881  0  0  -0.564255  0  2.363342  0  0  -0.307497  -0.516021  0  2.382074  0
O  O132  1  0.17366851  0.08214976  0.33561430  1  0  -0.536226  0  2.089328  0  0  -0.478322  0  2.354992  0  0  -0.503686  0  2.346408  0  0  -0.299189  -0.460747  0  2.360296  0
O  O133  1  0.17366868  0.66438776  0.74653465  1  0  -0.536236  0  2.089403  0  0  -0.478307  0  2.355022  0  0  -0.503671  0  2.346438  0  0  -0.299168  -0.460735  0  2.360324  0
O  O134  1  0.17366836  0.25346466  0.91785111  1  0  -0.536225  0  2.089311  0  0  -0.478331  0  2.355  0  0  -0.503695  0  2.346417  0  0  -0.299162  -0.460758  0  2.360302  0
O  O135  1  0.82633058  0.91785053  0.66438581  1  0  -0.536266  0  2.089423  0  0  -0.478374  0  2.355075  0  0  -0.503738  0  2.34649  0  0  -0.29919  -0.4608  0  2.360378  0
O  O136  1  0.82633166  0.33561253  0.25346547  1  0  -0.536254  0  2.08922  0  0  -0.478341  0  2.3549  0  0  -0.503704  0  2.346317  0  0  -0.299153  -0.460766  0  2.360199  0
O  O137  1  0.82633073  0.74653397  0.08214745  1  0  -0.536251  0  2.089303  0  0  -0.478337  0  2.354979  0  0  -0.5037  0  2.346395  0  0  -0.299177  -0.460765  0  2.360282  0
