# generated using pymatgen
data_CdH5C5IN6O
_symmetry_space_group_name_H-M   'P 1'
_cell_length_a   7.25803542
_cell_length_b   10.12108995
_cell_length_c   14.91703822
_cell_angle_alpha   89.99994303
_cell_angle_beta   93.89371751
_cell_angle_gamma   89.99998386
_symmetry_Int_Tables_number   1
_chemical_formula_structural   CdH5C5IN6O
_chemical_formula_sum   'Cd4 H20 C20 I4 N24 O4'
_cell_volume   1093.26474460
_cell_formula_units_Z   4
loop_
 _symmetry_equiv_pos_site_id
 _symmetry_equiv_pos_as_xyz
  1  'x, y, z'
loop_
 _atom_site_type_symbol
 _atom_site_label
 _atom_site_symmetry_multiplicity
 _atom_site_fract_x
 _atom_site_fract_y
 _atom_site_fract_z
 _atom_site_occupancy
 _atom_site_hle17_bader_spin_density
 _atom_site_hle17_ddec_charge
 _atom_site_hle17_ddec_spin_density
 _atom_site_hle17_ddec_sum_bond_order
 _atom_site_hle17_magmom
 _atom_site_hse06_10hf_bader_spin_density
 _atom_site_hse06_10hf_ddec_charge
 _atom_site_hse06_10hf_ddec_spin_density
 _atom_site_hse06_10hf_ddec_sum_bond_order
 _atom_site_hse06_10hf_magmom
 _atom_site_hse06_bader_spin_density
 _atom_site_hse06_ddec_charge
 _atom_site_hse06_ddec_spin_density
 _atom_site_hse06_ddec_sum_bond_order
 _atom_site_hse06_magmom
 _atom_site_pbe_bader_spin_density
 _atom_site_pbe_cm5_charge
 _atom_site_pbe_ddec_charge
 _atom_site_pbe_ddec_spin_density
 _atom_site_pbe_ddec_sum_bond_order
 _atom_site_pbe_magmom
Cd  Cd0  1  0.90282987  0.94661228  0.14721405  1  0  0.915676  0  1.908  0  0  0.720871  0  2.364776  0  0  0.770695  0  2.324446  0  0  0.682006  0.685933  0  2.392728  0
Cd  Cd1  1  0.59716971  0.44661067  0.35278604  1  0  0.915686  0  1.90797  0  0  0.720878  0  2.364749  0  0  0.770701  0  2.324422  0  0  0.682006  0.685941  0  2.392697  0
Cd  Cd2  1  0.09716850  0.05338986  0.85278582  1  0  0.915681  0  1.90799  0  0  0.720877  0  2.364769  0  0  0.770698  0  2.324439  0  0  0.682005  0.685935  0  2.392721  0
Cd  Cd3  1  0.40283281  0.55338949  0.64721397  1  0  0.915677  0  1.907965  0  0  0.720874  0  2.364727  0  0  0.770696  0  2.3244  0  0  0.682015  0.685935  0  2.392673  0
H  H4  1  0.00792889  0.79483410  0.34634690  1  0  0.088288  0  0.973229  0  0  0.087827  0  1.049251  0  0  0.091448  0  1.046076  0  0  0.109432  0.085157  0  1.051819  0
H  H5  1  0.49207290  0.29483469  0.15365427  1  0  0.088289  0  0.973264  0  0  0.087805  0  1.049297  0  0  0.091444  0  1.046106  0  0  0.10942  0.085135  0  1.051866  0
H  H6  1  0.99207223  0.20516606  0.65365374  1  0  0.088294  0  0.973225  0  0  0.087831  0  1.04925  0  0  0.091452  0  1.046075  0  0  0.109433  0.085161  0  1.051818  0
H  H7  1  0.50792823  0.70516449  0.84634637  1  0  0.088281  0  0.973225  0  0  0.087817  0  1.049241  0  0  0.09144  0  1.046063  0  0  0.10942  0.085147  0  1.051811  0
H  H8  1  0.24681046  0.63723934  0.41579726  1  0  0.102826  0  0.946453  0  0  0.105856  0  1.01568  0  0  0.108687  0  1.013481  0  0  0.122109  0.103755  0  1.017335  0
H  H9  1  0.25319142  0.13724007  0.08420335  1  0  0.102841  0  0.946432  0  0  0.105871  0  1.015664  0  0  0.108702  0  1.013466  0  0  0.122112  0.10377  0  1.017321  0
H  H10  1  0.75319068  0.36276181  0.58420204  1  0  0.102808  0  0.94646  0  0  0.105835  0  1.0157  0  0  0.108667  0  1.013501  0  0  0.122098  0.103734  0  1.017354  0
H  H11  1  0.74680971  0.86275910  0.91579729  1  0  0.102851  0  0.946409  0  0  0.105876  0  1.015637  0  0  0.108711  0  1.013433  0  0  0.122113  0.103774  0  1.017294  0
H  H12  1  0.50143351  0.62103570  0.17485963  1  0  0.084134  0  0.974883  0  0  0.089526  0  1.044507  0  0  0.092911  0  1.041912  0  0  0.106834  0.08701  0  1.046668  0
H  H13  1  0.99856762  0.12103505  0.32514006  1  0  0.084156  0  0.974882  0  0  0.08952  0  1.044527  0  0  0.0929  0  1.041934  0  0  0.106846  0.086983  0  1.046707  0
H  H14  1  0.49856625  0.37896446  0.82513962  1  0  0.084141  0  0.974878  0  0  0.08953  0  1.044502  0  0  0.092916  0  1.041907  0  0  0.106839  0.087014  0  1.046664  0
H  H15  1  0.00143490  0.87896413  0.67485995  1  0  0.084128  0  0.974897  0  0  0.089508  0  1.044532  0  0  0.092898  0  1.041932  0  0  0.106832  0.086999  0  1.046686  0
H  H16  1  0.81213205  0.67118743  0.11295125  1  0  0.38406  0  0.918921  0  0  0.356105  0  0.98502  0  0  0.367099  0  0.968967  0  0  0.255765  0.348112  0  0.996749  0
H  H17  1  0.68786768  0.17118773  0.38704768  1  0  0.3841  0  0.918966  0  0  0.356141  0  0.985  0  0  0.367138  0  0.968942  0  0  0.255789  0.348147  0  0.996728  0
H  H18  1  0.18786771  0.32881274  0.88704799  1  0  0.38409  0  0.918953  0  0  0.356126  0  0.985017  0  0  0.367124  0  0.968959  0  0  0.255784  0.348133  0  0.996746  0
H  H19  1  0.31213207  0.82881243  0.61295223  1  0  0.384104  0  0.918947  0  0  0.356143  0  0.984992  0  0  0.367141  0  0.968934  0  0  0.255784  0.348149  0  0.996722  0
H  H20  1  0.65208957  0.75415483  0.06089553  1  0  0.378325  0  0.947785  0  0  0.33652  0  1.030261  0  0  0.347947  0  1.014066  0  0  0.273402  0.328475  0  1.041636  0
H  H21  1  0.84791149  0.25415404  0.43910474  1  0  0.378403  0  0.947696  0  0  0.3366  0  1.030164  0  0  0.348029  0  1.013966  0  0  0.273448  0.328555  0  1.041538  0
H  H22  1  0.34791018  0.24584632  0.93910439  1  0  0.378318  0  0.947792  0  0  0.336517  0  1.030259  0  0  0.347946  0  1.014062  0  0  0.273404  0.328473  0  1.041633  0
H  H23  1  0.15208826  0.74584612  0.56089585  1  0  0.378393  0  0.947712  0  0  0.336587  0  1.030186  0  0  0.348016  0  1.013988  0  0  0.273437  0.328542  0  1.041561  0
C  C24  1  0.28363058  0.81145994  0.08745513  1  0  0.236207  0  3.812019  0  0  0.209372  0  4.077954  0  0  0.217633  0  4.095594  0  0  0.2155  0.204081  0  4.065792  0
C  C25  1  0.21636982  0.31146119  0.41254531  1  0  0.236235  0  3.812059  0  0  0.209385  0  4.078013  0  0  0.217647  0  4.095652  0  0  0.215501  0.204092  0  4.06585  0
C  C26  1  0.71636918  0.18853825  0.91254412  1  0  0.236266  0  3.81197  0  0  0.209419  0  4.077925  0  0  0.217681  0  4.095566  0  0  0.215544  0.204128  0  4.065763  0
C  C27  1  0.78363130  0.68853897  0.58745533  1  0  0.236229  0  3.81206  0  0  0.209394  0  4.078003  0  0  0.217657  0  4.095642  0  0  0.215522  0.204101  0  4.06584  0
C  C28  1  0.26860825  0.75688868  0.17687358  1  0  0.141798  0  3.764578  0  0  0.143303  0  4.005571  0  0  0.146927  0  4.023875  0  0  0.132464  0.14054  0  3.993539  0
C  C29  1  0.23139080  0.25689105  0.32312684  1  0  0.141799  0  3.764582  0  0  0.143313  0  4.005566  0  0  0.146939  0  4.023864  0  0  0.132478  0.140552  0  3.993528  0
C  C30  1  0.73139013  0.24310951  0.82312562  1  0  0.141814  0  3.764577  0  0  0.143317  0  4.005577  0  0  0.146941  0  4.023878  0  0  0.132459  0.140554  0  3.993545  0
C  C31  1  0.76860896  0.74311011  0.67687240  1  0  0.141797  0  3.764564  0  0  0.143284  0  4.005576  0  0  0.146908  0  4.023878  0  0  0.132456  0.140522  0  3.993544  0
C  C32  1  0.12186608  0.75924605  0.30881993  1  0  0.101433  0  3.672848  0  0  0.071427  0  3.931724  0  0  0.074884  0  3.946687  0  0  0.059937  0.068803  0  3.922177  0
C  C33  1  0.37813160  0.25924661  0.19117977  1  0  0.101419  0  3.672879  0  0  0.071446  0  3.931756  0  0  0.074886  0  3.946711  0  0  0.059966  0.068822  0  3.922211  0
C  C34  1  0.87813367  0.24075411  0.69117998  1  0  0.101433  0  3.672884  0  0  0.071429  0  3.931757  0  0  0.074885  0  3.946719  0  0  0.059939  0.068806  0  3.922209  0
C  C35  1  0.62186678  0.74075257  0.80881943  1  0  0.10146  0  3.672851  0  0  0.071471  0  3.93171  0  0  0.074926  0  3.946675  0  0  0.059959  0.068848  0  3.922163  0
C  C36  1  0.25161551  0.66978727  0.34657219  1  0  0.104745  0  3.626991  0  0  0.069055  0  3.890998  0  0  0.074082  0  3.904964  0  0  0.059918  0.065889  0  3.881534  0
C  C37  1  0.24838497  0.16978889  0.15342768  1  0  0.104815  0  3.626964  0  0  0.069121  0  3.890976  0  0  0.074148  0  3.904945  0  0  0.059978  0.065954  0  3.881515  0
C  C38  1  0.74838424  0.33021290  0.65342773  1  0  0.104767  0  3.626987  0  0  0.069073  0  3.890997  0  0  0.0741  0  3.904962  0  0  0.059925  0.065907  0  3.881532  0
C  C39  1  0.75161617  0.83021029  0.84657162  1  0  0.104776  0  3.626881  0  0  0.069101  0  3.890891  0  0  0.074124  0  3.904853  0  0  0.059985  0.065933  0  3.881429  0
C  C40  1  0.39294725  0.66257667  0.21356457  1  0  0.068903  0  3.652412  0  0  0.032876  0  3.900955  0  0  0.035413  0  3.917298  0  0  0.054834  0.030621  0  3.891114  0
C  C41  1  0.10705323  0.16257713  0.28643597  1  0  0.068932  0  3.652374  0  0  0.032951  0  3.900881  0  0  0.035482  0  3.917247  0  0  0.054841  0.030712  0  3.891049  0
C  C42  1  0.60705251  0.33742350  0.78643467  1  0  0.068913  0  3.652397  0  0  0.032898  0  3.900924  0  0  0.035432  0  3.917274  0  0  0.054841  0.030642  0  3.891083  0
C  C43  1  0.89294790  0.83742204  0.71356400  1  0  0.068957  0  3.652394  0  0  0.032977  0  3.900893  0  0  0.035496  0  3.917267  0  0  0.054858  0.030716  0  3.891048  0
I  I44  1  0.66048516  0.96140804  0.28842477  1  0  -0.512331  0  0.926634  0  0  -0.462971  0  1.204095  0  0  -0.483264  0  1.184623  0  0  -0.256849  -0.447775  0  1.219038  0
I  I45  1  0.83951580  0.46140955  0.21157468  1  0  -0.51233  0  0.926621  0  0  -0.462981  0  1.204074  0  0  -0.483273  0  1.184608  0  0  -0.256851  -0.447787  0  1.219021  0
I  I46  1  0.33951459  0.03859114  0.71157581  1  0  -0.512337  0  0.926634  0  0  -0.46298  0  1.204096  0  0  -0.483273  0  1.184627  0  0  -0.256854  -0.44779  0  1.219045  0
I  I47  1  0.16048396  0.53859160  0.78842524  1  0  -0.512333  0  0.926614  0  0  -0.462976  0  1.204067  0  0  -0.483267  0  1.184599  0  0  -0.256849  -0.447784  0  1.219014  0
N  N48  1  0.15904518  0.89457554  0.04793457  1  0  -0.272144  0  3.051887  0  0  -0.229753  0  3.328036  0  0  -0.242969  0  3.345016  0  0  -0.217579  -0.22079  0  3.316377  0
N  N49  1  0.34095519  0.39457572  0.45206581  1  0  -0.272187  0  3.051955  0  0  -0.22979  0  3.328107  0  0  -0.243006  0  3.345085  0  0  -0.2176  -0.220828  0  3.316446  0
N  N50  1  0.84095458  0.10542364  0.95206534  1  0  -0.272159  0  3.051897  0  0  -0.229758  0  3.328044  0  0  -0.242974  0  3.345025  0  0  -0.217584  -0.220795  0  3.316386  0
N  N51  1  0.65904594  0.60542445  0.54793416  1  0  -0.272119  0  3.051901  0  0  -0.229716  0  3.328034  0  0  -0.242932  0  3.345015  0  0  -0.217562  -0.220753  0  3.316373  0
N  N52  1  0.22611957  0.92353716  0.96883297  1  0  -0.101411  0  3.178385  0  0  -0.047881  0  3.479553  0  0  -0.058194  0  3.496848  0  0  -0.11006  -0.040653  0  3.467576  0
N  N53  1  0.27388017  0.42353697  0.53116652  1  0  -0.101409  0  3.178306  0  0  -0.047868  0  3.479456  0  0  -0.058181  0  3.49675  0  0  -0.110056  -0.04064  0  3.467477  0
N  N54  1  0.77388018  0.07646400  0.03116694  1  0  -0.101436  0  3.178301  0  0  -0.047913  0  3.479479  0  0  -0.058227  0  3.496774  0  0  -0.110094  -0.040685  0  3.467506  0
N  N55  1  0.72611959  0.57646418  0.46883273  1  0  -0.101422  0  3.178402  0  0  -0.047888  0  3.479567  0  0  -0.058201  0  3.496862  0  0  -0.110061  -0.040661  0  3.467591  0
N  N56  1  0.38467750  0.86164757  0.96038667  1  0  -0.065654  0  2.959104  0  0  -0.069126  0  3.255886  0  0  -0.067474  0  3.270205  0  0  -0.085788  -0.069884  0  3.24608  0
N  N57  1  0.11532227  0.36164740  0.53961353  1  0  -0.065624  0  2.958989  0  0  -0.069101  0  3.25577  0  0  -0.067451  0  3.270089  0  0  -0.085793  -0.069861  0  3.245962  0
N  N58  1  0.61532225  0.13835359  0.03961325  1  0  -0.065633  0  2.958935  0  0  -0.069097  0  3.255712  0  0  -0.067445  0  3.270032  0  0  -0.08576  -0.069856  0  3.245908  0
N  N59  1  0.88467748  0.63835276  0.46038638  1  0  -0.065664  0  2.959059  0  0  -0.069143  0  3.255846  0  0  -0.067493  0  3.270166  0  0  -0.085815  -0.069902  0  3.24604  0
N  N60  1  0.42370701  0.79010061  0.03427132  1  0  -0.291178  0  3.042898  0  0  -0.244166  0  3.309478  0  0  -0.256831  0  3.322153  0  0  -0.199136  -0.235441  0  3.300654  0
N  N61  1  0.07629204  0.29010082  0.46572841  1  0  -0.291209  0  3.042858  0  0  -0.244193  0  3.309444  0  0  -0.256857  0  3.322117  0  0  -0.199126  -0.235468  0  3.300617  0
N  N62  1  0.57629275  0.20989956  0.96572792  1  0  -0.29119  0  3.042791  0  0  -0.244185  0  3.309386  0  0  -0.25685  0  3.322059  0  0  -0.199151  -0.23546  0  3.300562  0
N  N63  1  0.92370910  0.70989836  0.53427156  1  0  -0.291186  0  3.042804  0  0  -0.244173  0  3.30939  0  0  -0.256838  0  3.322064  0  0  -0.199128  -0.235448  0  3.300565  0
N  N64  1  0.13108897  0.80256457  0.22474618  1  0  -0.294804  0  3.212291  0  0  -0.230845  0  3.464093  0  0  -0.245109  0  3.482474  0  0  -0.303529  -0.221103  0  3.452241  0
N  N65  1  0.36891007  0.30256599  0.27525422  1  0  -0.294784  0  3.212276  0  0  -0.230861  0  3.464131  0  0  -0.245124  0  3.482516  0  0  -0.303558  -0.221117  0  3.452273  0
N  N66  1  0.86890941  0.19743461  0.77525302  1  0  -0.294829  0  3.212328  0  0  -0.230875  0  3.464149  0  0  -0.245137  0  3.482526  0  0  -0.303535  -0.221125  0  3.452273  0
N  N67  1  0.63108969  0.69743418  0.72474570  1  0  -0.294802  0  3.212289  0  0  -0.230878  0  3.464169  0  0  -0.24514  0  3.482547  0  0  -0.303552  -0.221128  0  3.452295  0
N  N68  1  0.38433670  0.62032029  0.29810017  1  0  -0.266403  0  3.243733  0  0  -0.199409  0  3.5126  0  0  -0.213723  0  3.531238  0  0  -0.305285  -0.189515  0  3.500255  0
N  N69  1  0.11566380  0.12032087  0.20190040  1  0  -0.266544  0  3.243776  0  0  -0.199568  0  3.512663  0  0  -0.213877  0  3.531293  0  0  -0.305365  -0.189672  0  3.500313  0
N  N70  1  0.61566305  0.37967988  0.70189975  1  0  -0.266442  0  3.243765  0  0  -0.19945  0  3.512637  0  0  -0.213763  0  3.531273  0  0  -0.305303  -0.189557  0  3.500292  0
N  N71  1  0.88433871  0.87967731  0.79809962  1  0  -0.266523  0  3.243775  0  0  -0.199561  0  3.512669  0  0  -0.213869  0  3.5313  0  0  -0.30537  -0.189669  0  3.500328  0
O  O72  1  0.78959226  0.75060479  0.07551914  1  0  -0.802465  0  1.953397  0  0  -0.738563  0  2.14554  0  0  -0.760138  0  2.112483  0  0  -0.593969  -0.723186  0  2.168856  0
O  O73  1  0.71040880  0.25060306  0.42448046  1  0  -0.802597  0  1.953439  0  0  -0.738696  0  2.145494  0  0  -0.760272  0  2.112429  0  0  -0.594044  -0.723318  0  2.168811  0
O  O74  1  0.21040749  0.24939636  0.92448077  1  0  -0.802492  0  1.953424  0  0  -0.738587  0  2.145503  0  0  -0.760165  0  2.112439  0  0  -0.593995  -0.72321  0  2.168818  0
O  O75  1  0.28959096  0.74939710  0.57551879  1  0  -0.802607  0  1.953415  0  0  -0.738705  0  2.145496  0  0  -0.760282  0  2.11243  0  0  -0.594039  -0.723328  0  2.168813  0
