# generated using pymatgen
data_CuH18C27(NO3)2
_symmetry_space_group_name_H-M   'P 1'
_cell_length_a   7.24416214
_cell_length_b   12.53025814
_cell_length_c   12.67686596
_cell_angle_alpha   75.17406376
_cell_angle_beta   79.05751653
_cell_angle_gamma   86.19542952
_symmetry_Int_Tables_number   1
_chemical_formula_structural   CuH18C27(NO3)2
_chemical_formula_sum   'Cu2 H36 C54 N4 O12'
_cell_volume   1091.96849269
_cell_formula_units_Z   2
loop_
 _symmetry_equiv_pos_site_id
 _symmetry_equiv_pos_as_xyz
  1  'x, y, z'
loop_
 _atom_site_type_symbol
 _atom_site_label
 _atom_site_symmetry_multiplicity
 _atom_site_fract_x
 _atom_site_fract_y
 _atom_site_fract_z
 _atom_site_occupancy
 _atom_site_pbe_bader_charge
 _atom_site_pbe_bader_spin_density
 _atom_site_pbe_cm5_charge
 _atom_site_pbe_ddec_charge
 _atom_site_pbe_ddec_spin_density
 _atom_site_pbe_ddec_sum_bond_order
 _atom_site_pbe_magmom
Cu  Cu0  1  0.06060444  0.32622708  0.74859604  1  1.063334  0.569733  0.741876  0.750731  0.73107  2.221444  0.569
Cu  Cu1  1  0.93940291  0.67377282  0.25140459  1  1.063415  0.56974  0.741894  0.750635  0.731076  2.221597  0.569
H  H2  1  0.04120047  0.15630810  0.24440924  1  0.089759  0.000177  0.098177  0.096705  7.6e-05  1.048367  0.0
H  H3  1  0.95878449  0.84368601  0.75559231  1  0.089583  0.000177  0.098164  0.096676  7.6e-05  1.04838  0.0
H  H4  1  0.98126747  0.27707581  0.37780802  1  0.093749  -1.3e-05  0.095271  0.095117  -2.9e-05  1.031855  0.0
H  H5  1  0.01872281  0.72292487  0.62218648  1  0.092067  -1.3e-05  0.095277  0.095137  -2.9e-05  1.031819  0.0
H  H6  1  0.29244455  0.04629255  0.59534838  1  0.06444  0.000376  0.102314  0.099655  0.000316  1.028429  0.0
H  H7  1  0.70753457  0.95371067  0.40465465  1  0.064442  0.000375  0.102342  0.099739  0.000316  1.028441  0.0
H  H8  1  0.35805941  0.92921829  0.46022607  1  0.091309  2.3e-05  0.103356  0.108923  -1e-06  1.00855  0.0
H  H9  1  0.64190874  0.07077834  0.53978307  1  0.090405  2.3e-05  0.103321  0.108883  -1e-06  1.008628  0.0
H  H10  1  0.62799740  0.94724790  0.24365397  1  0.067443  0.000229  0.098762  0.105107  0.000156  1.03567  0.0
H  H11  1  0.37199992  0.05276445  0.75635406  1  0.067316  0.00023  0.098794  0.105115  0.000156  1.035581  0.0
H  H12  1  0.88177989  0.05001103  0.10125435  1  0.116082  3e-06  0.10539  0.119113  -1.5e-05  1.038137  0.0
H  H13  1  0.11821753  0.94999635  0.89875259  1  0.116113  3e-06  0.105435  0.119157  -1.5e-05  1.038109  0.0
H  H14  1  0.21480502  0.12068941  0.05546185  1  0.124751  2.7e-05  0.103114  0.116584  3.6e-05  1.040356  0.0
H  H15  1  0.78520233  0.87930966  0.94453820  1  0.124702  2.7e-05  0.103131  0.116574  3.6e-05  1.04031  0.0
H  H16  1  0.46688726  0.22242772  0.91368487  1  0.064649  0.000482  0.09832  0.100489  0.000381  1.009107  0.0
H  H17  1  0.53311454  0.77756555  0.08631259  1  0.064448  0.000482  0.098282  0.100469  0.000381  1.009121  0.0
H  H18  1  0.72431117  0.42877791  0.88836187  1  0.115894  0.00251  0.121434  0.095164  0.00115  0.992896  0.002
H  H19  1  0.27569338  0.57121617  0.11163269  1  0.11598  0.00251  0.12142  0.095162  0.00115  0.992887  0.002
H  H20  1  0.69239795  0.59649096  0.96699107  1  0.090108  0.001267  0.110153  0.11714  0.000649  0.988045  0.001
H  H21  1  0.30760393  0.40349983  0.03300702  1  0.090113  0.001267  0.110133  0.117126  0.000649  0.987981  0.001
H  H22  1  0.96766186  0.71915751  0.92952323  1  0.166287  8.6e-05  0.115816  0.129432  4.4e-05  1.027766  0.0
H  H23  1  0.03233883  0.28083250  0.07048387  1  0.166573  8.6e-05  0.115845  0.12951  4.4e-05  1.027689  0.0
H  H24  1  0.30589175  0.76579643  0.82314117  1  0.131826  0.000533  0.105684  0.11413  0.000268  1.036264  0.0
H  H25  1  0.69411313  0.23419607  0.17686718  1  0.131799  0.000533  0.105658  0.114133  0.000268  1.036286  0.0
H  H26  1  0.59212465  0.71262593  0.70601215  1  0.107067  0.000607  0.105356  0.114956  0.000307  1.021339  0.0
H  H27  1  0.40787579  0.28737151  0.29399228  1  0.107084  0.000607  0.105338  0.114992  0.000307  1.021304  0.0
H  H28  1  0.76826751  0.56907837  0.60496128  1  0.162719  0.000104  0.112046  0.127718  3.2e-05  1.022038  0.0
H  H29  1  0.23173554  0.43092235  0.39503726  1  0.162779  0.000105  0.112059  0.127747  3.2e-05  1.022024  0.0
H  H30  1  0.75855976  0.38848371  0.56029322  1  0.177688  0.000999  0.11374  0.139841  0.000516  1.027305  0.001
H  H31  1  0.24144172  0.61152112  0.43970286  1  0.177695  0.000999  0.113742  0.139867  0.000516  1.027283  0.001
H  H32  1  0.45820777  0.28150950  0.61913396  1  0.127465  0.002719  0.126332  0.105135  0.001277  0.990687  0.002
H  H33  1  0.54180523  0.71848957  0.38086623  1  0.12745  0.002719  0.126358  0.105133  0.001277  0.990739  0.002
H  H34  1  0.28816947  0.81641635  0.25430142  1  0.644379  0.000126  0.297538  0.349576  0.000199  0.980314  0.0
H  H35  1  0.71183906  0.18358682  0.74569270  1  0.644342  0.000126  0.297571  0.34966  0.000199  0.980336  0.0
H  H36  1  0.00034769  0.91520605  0.25799557  1  0.634633  6.2e-05  0.299821  0.350826  0.00013  0.972068  0.0
H  H37  1  0.99965108  0.08479298  0.74199838  1  0.634594  6.2e-05  0.299861  0.350906  0.00013  0.971965  0.0
C  C38  1  0.24890081  0.97135042  0.25411731  1  0.999352  -1.3e-05  0.157352  0.438275  -3.2e-05  3.917813  0.0
C  C39  1  0.75109665  0.02865031  0.74588345  1  0.999359  -1.3e-05  0.157312  0.437983  -3.2e-05  3.918216  0.0
C  C40  1  0.20751097  0.03727846  0.34252949  1  -0.055325  -0.000186  -0.007031  0.011936  -0.000246  3.896952  0.0
C  C41  1  0.79247109  0.96272062  0.65747426  1  -0.056065  -0.000186  -0.007141  0.011883  -0.000246  3.897167  0.0
C  C42  1  0.09957730  0.13473418  0.32030514  1  -0.030713  0.000768  -0.095857  -0.124537  0.000489  4.002622  0.001
C  C43  1  0.90040611  0.86526406  0.67969473  1  -0.030546  0.000768  -0.095776  -0.124421  0.000489  4.0028  0.001
C  C44  1  0.06524111  0.20119256  0.39443159  1  -0.118509  0.00091  -0.090416  -0.098759  0.00049  4.004652  0.001
C  C45  1  0.93475201  0.79880980  0.60556609  1  -0.116431  0.00091  -0.090448  -0.09883  0.00049  4.004782  0.001
C  C46  1  0.13613251  0.17059336  0.49379670  1  -0.001823  0.007048  -0.027764  -0.051377  0.005084  4.004355  0.006
C  C47  1  0.86386471  0.82941396  0.50620081  1  -0.001854  0.007051  -0.027787  -0.051256  0.005086  4.004431  0.006
C  C48  1  0.24002145  0.07168233  0.51742922  1  -0.006603  4.4e-05  -0.083766  -0.089378  -3.8e-05  3.965943  0.0
C  C49  1  0.75996471  0.92832005  0.48257242  1  -0.006687  4.4e-05  -0.083829  -0.089618  -3.8e-05  3.966141  0.0
C  C50  1  0.27705835  0.00594107  0.44175837  1  -0.016933  6.6e-05  -0.088355  -0.101272  -2.9e-05  3.949273  0.0
C  C51  1  0.72292228  0.99405884  0.55824533  1  -0.015634  6.6e-05  -0.088224  -0.101082  -2.9e-05  3.949228  0.0
C  C52  1  0.09763579  0.24497528  0.57050498  1  1.504768  -0.000942  0.199454  0.547937  -0.001493  4.209943  -0.003
C  C53  1  0.90235988  0.75503283  0.42948698  1  1.504339  -0.000943  0.199291  0.547773  -0.001492  4.21028  -0.003
C  C54  1  0.40402346  0.03085314  0.16197457  1  -0.085105  -0.0002  -0.008205  0.011615  -0.000272  3.894497  0.0
C  C55  1  0.59597963  0.96914926  0.83802826  1  -0.085669  -0.0002  -0.008258  0.011598  -0.000272  3.894547  0.0
C  C56  1  0.59262050  0.01049882  0.17324930  1  0.001616  0.000962  -0.092791  -0.118453  0.000605  3.963749  0.001
C  C57  1  0.40737975  0.98950440  0.82675286  1  0.001786  0.000962  -0.092808  -0.118458  0.000605  3.96358  0.001
C  C58  1  0.73515524  0.06731162  0.09304196  1  -0.046942  0.000767  -0.084069  -0.084368  0.000409  3.948183  0.001
C  C59  1  0.26484502  0.93269327  0.90696293  1  -0.046622  0.000767  -0.08407  -0.084319  0.000409  3.948145  0.001
C  C60  1  0.35981118  0.10765968  0.06814779  1  -0.017606  0.000163  -0.091305  -0.110452  4.3e-05  3.947723  0.0
C  C61  1  0.64019056  0.89233774  0.93185176  1  -0.016991  0.000162  -0.091329  -0.110448  4.2e-05  3.947627  0.0
C  C62  1  0.50234296  0.16444378  0.98757801  1  -0.079052  0.000182  -0.088102  -0.093324  0.000102  3.981905  0.0
C  C63  1  0.49765736  0.83555612  0.01242343  1  -0.079217  0.000181  -0.088077  -0.093286  0.000102  3.981875  0.0
C  C64  1  0.69095111  0.14578011  0.00000570  1  -0.004608  0.006043  -0.028915  -0.058415  0.004373  4.024531  0.005
C  C65  1  0.30905044  0.85422558  0.99999489  1  -0.00467  0.006045  -0.028932  -0.058509  0.004374  4.024688  0.005
C  C66  1  0.84588580  0.20642667  0.91687423  1  1.489866  -0.001272  0.19352  0.549199  -0.001941  4.204828  -0.003
C  C67  1  0.15411166  0.79357322  0.08312595  1  1.490144  -0.001272  0.193532  0.549232  -0.001941  4.204833  -0.003
C  C68  1  0.83989484  0.48551910  0.87267944  1  0.498981  -0.001431  0.059727  0.110879  -0.001771  3.936571  -0.001
C  C69  1  0.16011116  0.51447499  0.12731732  1  0.498976  -0.001431  0.059691  0.110743  -0.00177  3.936696  -0.001
C  C70  1  0.82423512  0.57903020  0.91602815  1  -0.018911  0.005911  -0.080386  -0.126125  0.003991  3.968522  0.005
C  C71  1  0.17576805  0.42096472  0.08396873  1  -0.019364  0.005912  -0.08034  -0.12607  0.003991  3.968618  0.005
C  C72  1  0.97595024  0.64802561  0.89375631  1  -0.03014  -0.003546  -0.05424  -0.062601  -0.004014  3.879523  -0.002
C  C73  1  0.02405450  0.35196686  0.10624575  1  -0.029728  -0.003546  -0.054291  -0.062664  -0.004014  3.87972  -0.002
C  C74  1  0.14460799  0.62388962  0.82624411  1  -0.050304  0.003238  0.000754  0.043886  0.00229  3.998896  0.003
C  C75  1  0.85539959  0.37610451  0.17376035  1  -0.050981  0.003238  0.00077  0.043794  0.00229  3.998788  0.003
C  C76  1  0.30961704  0.69026054  0.79494005  1  -0.08953  0.000997  -0.080496  -0.116225  0.000677  3.944306  0.001
C  C77  1  0.69038912  0.30973443  0.20506514  1  -0.089177  0.000997  -0.080473  -0.116188  0.000677  3.944266  0.001
C  C78  1  0.46859360  0.66053412  0.73030247  1  -0.002085  0.001018  -0.078917  -0.110422  0.000706  3.947888  0.001
C  C79  1  0.53140956  0.33946496  0.26969963  1  -0.002742  0.001019  -0.078884  -0.110476  0.000706  3.947897  0.001
C  C80  1  0.47784289  0.56059889  0.69369680  1  -0.055537  0.003476  -0.00045  0.042524  0.002485  4.012305  0.003
C  C81  1  0.52216718  0.43940265  0.30630151  1  -0.054952  0.003476  -0.000547  0.042461  0.002486  4.012436  0.003
C  C82  1  0.31605352  0.49451234  0.72282535  1  0.483131  0.001373  0.113417  0.117291  0.000734  3.995645  0.001
C  C83  1  0.68396090  0.50548757  0.27717683  1  0.483469  0.001373  0.113449  0.117346  0.000734  3.995729  0.001
C  C84  1  0.14827867  0.52730076  0.78734757  1  0.456761  0.00117  0.115554  0.118005  0.000487  3.993991  0.001
C  C85  1  0.85173436  0.47269749  0.21265362  1  0.45653  0.001169  0.115591  0.118046  0.000487  3.993925  0.001
C  C86  1  0.63952887  0.52132630  0.63194285  1  -0.016208  -0.004056  -0.058102  -0.067254  -0.004616  3.878903  -0.002
C  C87  1  0.36047407  0.47867605  0.36805292  1  -0.016074  -0.004056  -0.058144  -0.06733  -0.004616  3.87891  -0.002
C  C88  1  0.63319233  0.42176265  0.60448087  1  -0.020527  0.006404  -0.074826  -0.108455  0.004247  3.907337  0.005
C  C89  1  0.36680912  0.57824218  0.39551364  1  -0.020628  0.006404  -0.074759  -0.108389  0.004247  3.907295  0.005
C  C90  1  0.46641956  0.36134799  0.63723914  1  0.504891  -0.001928  0.066849  0.126861  -0.0023  3.889852  -0.002
C  C91  1  0.53359200  0.63865191  0.36276100  1  0.504799  -0.001929  0.066852  0.126832  -0.002301  3.889813  -0.002
N  N92  1  0.99812079  0.46037958  0.81026829  1  -1.213711  0.084055  -0.340846  -0.267411  0.055678  3.61972  0.073
N  N93  1  0.00189074  0.53961948  0.18972971  1  -1.213453  0.084056  -0.340824  -0.267299  0.055678  3.619748  0.073
N  N94  1  0.31164797  0.39731923  0.69434320  1  -1.216699  0.085389  -0.341822  -0.270106  0.056512  3.624432  0.073
N  N95  1  0.68836508  0.60267903  0.30565877  1  -1.217016  0.085385  -0.341847  -0.270062  0.056509  3.624493  0.073
O  O96  1  0.12984073  0.20475484  0.67151481  1  -1.127339  0.106024  -0.323438  -0.540957  0.067656  2.342308  0.095
O  O97  1  0.87015799  0.79524834  0.32848202  1  -1.127035  0.106022  -0.323348  -0.540839  0.067653  2.342559  0.095
O  O98  1  0.03934317  0.34213577  0.53819772  1  -1.176216  0.000605  -0.312959  -0.54655  -0.000603  2.198004  0.001
O  O99  1  0.96066235  0.65787235  0.46179389  1  -1.176015  0.000607  -0.312873  -0.546522  -0.000601  2.198145  0.001
O  O100  1  0.80636985  0.26294361  0.82101950  1  -1.126184  0.114367  -0.331878  -0.56151  0.073062  2.33951  0.102
O  O101  1  0.19362468  0.73705792  0.17897745  1  -1.126369  0.11436  -0.33188  -0.561434  0.073058  2.339732  0.102
O  O102  1  0.00859487  0.20654333  0.93774630  1  -1.161132  0.000681  -0.311521  -0.53804  -0.000423  2.188169  0.001
O  O103  1  0.99140532  0.79345321  0.06224576  1  -1.161232  0.000683  -0.311528  -0.538082  -0.000421  2.188016  0.001
O  O104  1  0.30515285  0.86261554  0.30475094  1  -1.156369  0.001084  -0.399666  -0.565712  0.000657  2.2502  0.001
O  O105  1  0.69484739  0.13738601  0.69524929  1  -1.156365  0.001084  -0.399668  -0.565719  0.000657  2.250301  0.001
O  O106  1  0.08860526  0.97015919  0.20562924  1  -1.148821  0.000776  -0.384998  -0.543031  0.000437  2.289953  0.001
O  O107  1  0.91139916  0.02984152  0.79436757  1  -1.148799  0.000777  -0.385034  -0.543031  0.000437  2.289968  0.001
