# generated using pymatgen
data_ZnH29C36N2(O2F)3
_symmetry_space_group_name_H-M   'P 1'
_cell_length_a   16.45465523
_cell_length_b   16.81364359
_cell_length_c   23.68702906
_cell_angle_alpha   88.91944450
_cell_angle_beta   87.62010817
_cell_angle_gamma   88.45861906
_symmetry_Int_Tables_number   1
_chemical_formula_structural   ZnH29C36N2(O2F)3
_chemical_formula_sum   'Zn2 H58 C72 N4 O12 F6'
_cell_volume   6544.26326021
_cell_formula_units_Z   2
loop_
 _symmetry_equiv_pos_site_id
 _symmetry_equiv_pos_as_xyz
  1  'x, y, z'
loop_
 _atom_site_type_symbol
 _atom_site_label
 _atom_site_symmetry_multiplicity
 _atom_site_fract_x
 _atom_site_fract_y
 _atom_site_fract_z
 _atom_site_occupancy
 _atom_site_pbe_bader_charge
 _atom_site_pbe_bader_spin_density
 _atom_site_pbe_cm5_charge
 _atom_site_pbe_ddec_charge
 _atom_site_pbe_ddec_spin_density
 _atom_site_pbe_ddec_sum_bond_order
 _atom_site_pbe_magmom
Zn  Zn0  1  0.59194267  0.49732451  0.50073706  1  1.295059  0  0.682484  0.849124  0  2.375667  0
Zn  Zn1  1  0.41026328  0.50334857  0.50874600  1  1.307944  0  0.682596  0.855877  0  2.341045  0
H  H2  1  0.37736570  0.36336320  0.06655270  1  0.113577  0  0.115781  0.123074  0  0.990114  0
H  H3  1  0.59741789  0.68784056  0.94284336  1  0.125308  0  0.115925  0.123385  0  0.988983  0
H  H4  1  0.60848118  0.89609573  0.44392436  1  0.092586  0  0.112294  0.135425  0  0.989959  0
H  H5  1  0.39531255  0.10467311  0.44644896  1  0.1095  0  0.112943  0.136269  0  0.98856  0
H  H6  1  0.29974136  0.54217596  0.42607569  1  0.141273  0  0.120057  0.101608  0  1.039017  0
H  H7  1  0.70552045  0.41252718  0.56269548  1  0.124993  0  0.123241  0.104751  0  1.010985  0
H  H8  1  0.98973647  0.47319671  0.56718829  1  0.04694  0  0.10512  0.096161  0  1.023043  0
H  H9  1  0.00928824  0.52195176  0.44196977  1  0.066234  0  0.104098  0.095241  0  1.029498  0
H  H10  1  0.10999496  0.45911903  0.57827630  1  0.056099  0  0.106067  0.114506  0  1.010158  0
H  H11  1  0.88776647  0.58503515  0.45146934  1  0.07369  0  0.107078  0.116605  0  1.001916  0
H  H12  1  0.39297559  0.56839227  0.67706110  1  0.075131  0  0.111258  0.117443  0  0.993435  0
H  H13  1  0.59804661  0.42346842  0.32178975  1  0.071059  0  0.110331  0.114363  0  0.995925  0
H  H14  1  0.61098449  0.45674927  0.79487893  1  0.090283  0  0.116741  0.146214  0  0.970176  0
H  H15  1  0.41083251  0.60908825  0.22295376  1  0.080078  0  0.117784  0.147649  0  0.969139  0
H  H16  1  0.36710713  0.72725218  0.43377226  1  0.126124  0  0.117063  0.145939  0  0.982524  0
H  H17  1  0.63425033  0.27861022  0.43838062  1  0.092063  0  0.11719  0.147391  0  0.977831  0
H  H18  1  0.41182622  0.99697929  0.39912419  1  0.072444  0  0.103228  0.105444  0  1.002312  0
H  H19  1  0.59830240  0.00954467  0.40175836  1  0.044447  0  0.102468  0.103474  0  1.003809  0
H  H20  1  0.70494183  0.50956505  0.36395566  1  0.059677  0  0.084968  0.119986  0  1.030681  0
H  H21  1  0.71066533  0.60657980  0.33368757  1  0.046609  0  0.090432  0.123731  0  0.987636  0
H  H22  1  0.80169646  0.55381196  0.35128298  1  0.024466  0  0.077021  0.096296  0  1.019795  0
H  H23  1  0.66634480  0.61456560  0.43568363  1  0.106012  0  0.099397  0.116365  0  1.027748  0
H  H24  1  0.76228129  0.65764232  0.42417928  1  0.034492  0  0.095378  0.096731  0  0.96816  0
H  H25  1  0.23671736  0.32035462  0.59542609  1  0.001214  0  0.08031  0.102979  0  1.008831  0
H  H26  1  0.33600150  0.34492071  0.56942550  1  0.090114  0  0.087492  0.133467  0  1.032977  0
H  H27  1  0.31472856  0.33667099  0.64351516  1  0.036369  0  0.089446  0.119669  0  0.992194  0
H  H28  1  0.32000314  0.47902185  0.61501117  1  0.087845  0  0.099001  0.111841  0  1.036911  0
H  H29  1  0.21964939  0.45594841  0.63921398  1  0.003084  0  0.090262  0.085246  0  0.985515  0
H  H30  1  0.75393775  0.36259946  0.64501592  1  0.067201  0  0.088819  0.125609  0  1.023115  0
H  H31  1  0.77563803  0.29220878  0.59108797  1  0.005191  0  0.091433  0.121119  0  0.992745  0
H  H32  1  0.83380305  0.29072923  0.65250309  1  0.039379  0  0.089791  0.117894  0  0.997062  0
H  H33  1  0.91535744  0.35093211  0.57398421  1  0.046817  0  0.095749  0.08898  0  0.96959  0
H  H34  1  0.89228012  0.42130350  0.62632603  1  0.038724  0  0.096967  0.089798  0  0.965131  0
H  H35  1  0.24251749  0.63205241  0.36161415  1  0.066438  0  0.089061  0.120968  0  1.005502  0
H  H36  1  0.25226055  0.53303481  0.33751306  1  0.037501  0  0.090993  0.123714  0  0.997565  0
H  H37  1  0.18047859  0.60016537  0.30742118  1  0.01296  0  0.089319  0.118018  0  0.995992  0
H  H38  1  0.10737136  0.50827775  0.37282560  1  0.043331  0  0.097499  0.092479  0  0.963625  0
H  H39  1  0.09820398  0.60616584  0.39704730  1  0.040632  0  0.096028  0.089955  0  0.967293  0
H  H40  1  0.37787267  0.21313826  0.92983693  1  0.029485  0  0.091791  0.121378  0  0.991547  0
H  H41  1  0.45946036  0.27642056  0.91042881  1  0.045018  0  0.088945  0.122218  0  1.009407  0
H  H42  1  0.44648049  0.24093833  0.98162978  1  0.029047  0  0.083822  0.107658  0  1.007704  0
H  H43  1  0.31307533  0.31831117  0.99067047  1  0.032389  0  0.094131  0.088586  0  0.975869  0
H  H44  1  0.32786571  0.35409302  0.91991311  1  0.073785  0  0.100647  0.107913  0  0.993975  0
H  H45  1  0.74868568  0.73465470  0.07340538  1  0.036598  0  0.091756  0.120735  0  0.991582  0
H  H46  1  0.71984575  0.63544165  0.08934349  1  0.048854  0  0.088102  0.120596  0  1.011145  0
H  H47  1  0.74356074  0.66523591  0.01796121  1  0.014023  0  0.083362  0.106573  0  1.007737  0
H  H48  1  0.62173362  0.75982472  0.02126411  1  0.025826  0  0.094248  0.089512  0  0.974321  0
H  H49  1  0.59874885  0.72864440  0.09221498  1  0.060189  0  0.101324  0.110576  0  0.989465  0
H  H50  1  0.26829969  0.52060492  0.74329193  1  0.019864  0  0.084838  0.111631  0  1.014912  0
H  H51  1  0.29312041  0.47860868  0.80982326  1  0.045135  0  0.085589  0.119768  0  1.017645  0
H  H52  1  0.22661929  0.56404383  0.80634557  1  0.016687  0  0.08441  0.109518  0  1.005855  0
H  H53  1  0.36488184  0.60545429  0.83236268  1  0.002193  0  0.090504  0.0807  0  0.99314  0
H  H54  1  0.34160307  0.64524070  0.76554960  1  0.030711  0  0.097609  0.093204  0  0.963074  0
H  H55  1  0.58858345  0.29913645  0.25301281  1  0.033845  0  0.087344  0.116086  0  1.003596  0
H  H56  1  0.53276516  0.31635851  0.19130890  1  0.02036  0  0.086271  0.123588  0  1.014934  0
H  H57  1  0.63724238  0.28509929  0.18545832  1  0.025989  0  0.085239  0.111025  0  1.004542  0
H  H58  1  0.62540778  0.43077363  0.16366549  1  0.024171  0  0.08938  0.078318  0  0.99612  0
H  H59  1  0.67820470  0.41400125  0.22599667  1  0.040342  0  0.096315  0.091334  0  0.966368  0
C  C60  1  0.50554186  0.34884780  0.49158578  1  1.621604  0  0.213566  0.609293  0  4.180228  0
C  C61  1  0.48761366  0.65228005  0.48799803  1  1.618443  0  0.213655  0.610888  0  4.181481  0
C  C62  1  0.43106127  0.55100775  0.76246457  1  0.067035  0  -0.004275  0.045026  0  3.933833  0
C  C63  1  0.55906777  0.46406421  0.24001665  1  -0.058353  0  -0.004503  0.043119  0  3.931005  0
C  C64  1  0.44042753  0.54434599  0.70381414  1  -0.048315  0  -0.074916  -0.116352  0  3.934086  0
C  C65  1  0.55679325  0.46324000  0.29906793  1  0.061973  0  -0.074643  -0.115963  0  3.941753  0
C  C66  1  0.50866268  0.50830825  0.67657907  1  0.053396  0  -0.018974  -0.130391  0  3.963266  0
C  C67  1  0.50303947  0.51135896  0.33156584  1  0.052347  0  -0.019945  -0.133035  0  3.983775  0
C  C68  1  0.56965348  0.47768306  0.71091072  1  0.415846  0  0.107081  0.28988  0  4.038789  0
C  C69  1  0.45170065  0.56427462  0.30277227  1  0.387468  0  0.105102  0.283806  0  4.048273  0
C  C70  1  0.56286798  0.48196906  0.76931612  1  0.079108  0  -0.096374  -0.280875  0  3.993334  0
C  C71  1  0.45147609  0.56733176  0.24430601  1  0.101398  0  -0.096025  -0.279947  0  3.998205  0
C  C72  1  0.49384460  0.51842666  0.79452447  1  0.338569  0  0.092262  0.164084  0  4.005587  0
C  C73  1  0.50420981  0.51650651  0.21369819  1  0.346554  0  0.091135  0.162675  0  4.012922  0
C  C74  1  0.50823907  0.26847105  0.46495647  1  0.04133  0  -0.019087  -0.110001  0  3.953705  0
C  C75  1  0.48981894  0.73371090  0.46111814  1  0.078619  0  -0.018395  -0.108626  0  3.955916  0
C  C76  1  0.44160470  0.21807196  0.46412109  1  0.410172  0  0.100214  0.266873  0  4.062139  0
C  C77  1  0.55771138  0.78262859  0.46058520  1  0.424405  0  0.099317  0.264227  0  4.065501  0
C  C78  1  0.44759791  0.14289233  0.44136778  1  0.044853  0  -0.098142  -0.243586  0  3.973945  0
C  C79  1  0.55608206  0.85922487  0.43837639  1  0.012968  0  -0.099284  -0.245093  0  3.981447  0
C  C80  1  0.52159588  0.11355497  0.41675475  1  0.017217  0  -0.016457  0.03038  0  4.07253  0
C  C81  1  0.48559111  0.89144481  0.41387543  1  0.060849  0  -0.016153  0.030994  0  4.072323  0
C  C82  1  0.51239753  0.50402668  0.61321712  1  1.584748  0  0.222773  0.619733  0  4.162309  0
C  C83  1  0.50244092  0.50400662  0.39469638  1  1.590745  0  0.217248  0.608598  0  4.182111  0
C  C84  1  0.58658476  0.16641305  0.41488086  1  0.431682  0  0.090303  0.220465  0  4.049283  0
C  C85  1  0.42001577  0.83982809  0.41109017  1  0.39722  0  0.091495  0.22283  0  4.042169  0
C  C86  1  0.58146155  0.24087472  0.43875142  1  0.027982  0  -0.092396  -0.20116  0  3.998856  0
C  C87  1  0.42053945  0.76397598  0.43467204  1  0.014814  0  -0.089253  -0.196932  0  3.997879  0
C  C88  1  0.53466331  0.02998115  0.40386612  1  -0.018124  0  -0.088417  -0.10948  0  3.978648  0
C  C89  1  0.47493891  0.97614851  0.40243376  1  0.001403  0  -0.088408  -0.112178  0  3.97915  0
C  C90  1  0.25425814  0.52485266  0.45839044  1  0.455567  0  0.047266  0.045837  0  3.890518  0
C  C91  1  0.74926262  0.44863113  0.53875077  1  0.463151  0  0.048764  0.049026  0  3.900236  0
C  C92  1  0.17163256  0.52838336  0.44749947  1  0.01925  0  -0.002328  0.024654  0  3.894773  0
C  C93  1  0.83171503  0.44309416  0.54938502  1  0.042849  0  -0.003627  0.022895  0  3.903224  0
C  C94  1  0.11666340  0.50470669  0.49200194  1  -0.009386  0  0.004072  0.0973  0  4.021855  0
C  C95  1  0.88403764  0.49285586  0.51635326  1  -0.051295  0  0.005178  0.09489  0  4.028145  0
C  C96  1  0.14957976  0.47880721  0.54301984  1  0.008112  0  -0.087039  -0.231828  0  3.932092  0
C  C97  1  0.84952799  0.54407255  0.47612257  1  -0.075344  0  -0.085326  -0.231063  0  3.926991  0
C  C98  1  0.23300456  0.47635266  0.55064849  1  0.42532  0  0.127313  0.27455  0  3.938021  0
C  C99  1  0.76600328  0.54643280  0.46800617  1  0.538674  0  0.130835  0.281531  0  3.922313  0
C  C100  1  0.02903689  0.50703571  0.48438119  1  -0.035821  0  -0.080666  -0.118458  0  3.967815  0
C  C101  1  0.97134146  0.49080826  0.52490559  1  -0.024929  0  -0.07792  -0.107157  0  3.96323  0
C  C102  1  0.54572901  0.57787417  0.12344116  1  1.280947  0  0.246088  0.439994  0  4.086192  0
C  C103  1  0.45002366  0.45884249  0.88491264  1  1.267468  0  0.247776  0.44248  0  4.073931  0
C  C104  1  0.45258735  0.46194579  0.12877221  1  1.310798  0  0.244922  0.442563  0  4.105074  0
C  C105  1  0.52768034  0.58543875  0.88014985  1  1.335723  0  0.242686  0.439281  0  4.11215  0
C  C106  1  0.45265006  0.46376592  0.06636830  1  0.002797  0  -0.007395  -0.055327  0  4.015419  0
C  C107  1  0.52930059  0.58247862  0.94258139  1  -0.007454  0  -0.006932  -0.055997  0  4.013486  0
C  C108  1  0.49475668  0.52287975  0.03439087  1  -0.002451  0  0.001794  0.031047  0  4.008094  0
C  C109  1  0.49042862  0.52116684  0.97441730  1  -0.034348  0  0.000761  0.029736  0  4.007291  0
C  C110  1  0.53935216  0.58226403  0.06106261  1  0.039784  0  -0.005281  -0.124551  0  3.918372  0
C  C111  1  0.44802023  0.46024115  0.94768372  1  0.037452  0  -0.004917  -0.124687  0  3.914571  0
C  C112  1  0.40957774  0.40679535  0.03979915  1  -0.026631  0  -0.065837  -0.13236  0  3.910819  0
C  C113  1  0.56961442  0.64134699  0.96933012  1  -0.002878  0  -0.065682  -0.130565  0  3.906107  0
C  C114  1  0.40618235  0.40258425  0.98049618  1  0.034514  0  0.02162  0.142564  0  3.880874  0
C  C115  1  0.57662079  0.64304231  0.02850916  1  -0.026467  0  0.021156  0.141564  0  3.880716  0
C  C116  1  0.73032315  0.60097973  0.42400616  1  -0.041394  0  -0.163057  -0.193778  0  3.953423  0
C  C117  1  0.73774777  0.56543506  0.36466709  1  -0.08837  0  -0.244286  -0.342629  0  3.952665  0
C  C118  1  0.26617615  0.44553906  0.60523388  1  0.009839  0  -0.164485  -0.197722  0  3.978158  0
C  C119  1  0.28972790  0.35648175  0.60316440  1  -0.061134  0  -0.243677  -0.342744  0  3.93259  0
C  C120  1  0.86456112  0.38614780  0.59357896  1  -0.028585  0  -0.154222  -0.129362  0  3.998767  0
C  C121  1  0.80324659  0.33006336  0.62201054  1  -0.068191  0  -0.241753  -0.361128  0  3.967851  0
C  C122  1  0.14237471  0.55631597  0.39054847  1  -0.028391  0  -0.154512  -0.132812  0  3.999609  0
C  C123  1  0.20823691  0.58167305  0.34711993  1  -0.07054  0  -0.242857  -0.360763  0  3.979744  0
C  C124  1  0.35922217  0.33508177  0.95795812  1  0.000309  0  -0.160674  -0.1587  0  3.976418  0
C  C125  1  0.41433283  0.26205667  0.94421327  1  -0.059871  0  -0.238923  -0.343674  0  3.94945  0
C  C126  1  0.62502720  0.70926662  0.05133554  1  0.022531  0  -0.159424  -0.158813  0  3.973294  0
C  C127  1  0.71474219  0.68439827  0.05832431  1  -0.062194  0  -0.239383  -0.342194  0  3.950399  0
C  C128  1  0.35481767  0.58916244  0.78852631  1  0.030562  0  -0.156687  -0.127688  0  3.977206  0
C  C129  1  0.28125327  0.53492255  0.78704455  1  -0.054742  0  -0.243753  -0.353009  0  3.957678  0
C  C130  1  0.61801720  0.40971529  0.20775798  1  -0.000256  0  -0.157511  -0.127877  0  3.982575  0
C  C131  1  0.59260654  0.32241386  0.20935850  1  -0.050075  0  -0.24379  -0.3552  0  3.954821  0
N  N132  1  0.50017213  0.51916340  0.15292530  1  -1.158725  0  -0.234003  -0.225548  0  3.620315  0
N  N133  1  0.48959152  0.52166440  0.85557326  1  -1.169479  0  -0.233511  -0.224818  0  3.610253  0
N  N134  1  0.28479879  0.49987089  0.50792497  1  -1.227672  0  -0.316925  -0.253066  0  3.463292  0
N  N135  1  0.71690823  0.49834915  0.49967242  1  -1.234842  0  -0.32027  -0.257718  0  3.478597  0
O  O136  1  0.57337163  0.37569374  0.50545672  1  -1.165183  0  -0.323447  -0.556079  0  2.304076  0
O  O137  1  0.41827341  0.62712463  0.50424951  1  -1.162498  0  -0.32196  -0.543622  0  2.270661  0
O  O138  1  0.43641964  0.38414023  0.49661126  1  -1.157983  0  -0.313714  -0.552219  0  2.359731  0
O  O139  1  0.55539043  0.61445552  0.49077342  1  -1.170612  0  -0.313328  -0.55669  0  2.386062  0
O  O140  1  0.58149440  0.50329058  0.58766399  1  -1.152038  0  -0.310272  -0.539909  0  2.333082  0
O  O141  1  0.43489470  0.51587772  0.42132694  1  -1.16621  0  -0.308477  -0.548718  0  2.36266  0
O  O142  1  0.44358932  0.50250043  0.59051158  1  -1.177187  0  -0.31035  -0.548773  0  2.37928  0
O  O143  1  0.57017820  0.48499837  0.41590424  1  -1.163105  0  -0.310609  -0.541019  0  2.332592  0
O  O144  1  0.58826172  0.62136613  0.15040228  1  -1.087662  0  -0.260349  -0.417838  0  2.116771  0
O  O145  1  0.42017688  0.40624652  0.85750768  1  -1.103899  0  -0.257539  -0.419568  0  2.129551  0
O  O146  1  0.41460552  0.41358395  0.15839085  1  -1.111526  0  -0.275787  -0.436879  0  2.073112  0
O  O147  1  0.55808507  0.63879116  0.85078035  1  -1.099222  0  -0.278906  -0.43319  0  2.05471  0
F  F148  1  0.65943099  0.14136976  0.39033919  1  -0.635777  0  -0.116921  -0.161126  0  1.308653  0
F  F149  1  0.35086606  0.86754137  0.38626571  1  -0.636005  0  -0.115677  -0.159189  0  1.309529  0
F  F150  1  0.63739364  0.44033165  0.68807928  1  -0.640989  0  -0.101502  -0.150761  0  1.358048  0
F  F151  1  0.40144331  0.61646853  0.33156469  1  -0.637737  0  -0.096533  -0.144242  0  1.367695  0
F  F152  1  0.36887437  0.23953180  0.48954146  1  -0.633195  0  -0.102318  -0.142323  0  1.355469  0
F  F153  1  0.62693905  0.75795818  0.48595822  1  -0.628718  0  -0.103135  -0.141492  0  1.348599  0
