# generated using pymatgen
data_AgH8C11(NO)3
_symmetry_space_group_name_H-M   'P 1'
_cell_length_a   10.05770658
_cell_length_b   11.33121715
_cell_length_c   19.78879829
_cell_angle_alpha   90.00051140
_cell_angle_beta   95.57623453
_cell_angle_gamma   90.00011986
_symmetry_Int_Tables_number   1
_chemical_formula_structural   AgH8C11(NO)3
_chemical_formula_sum   'Ag8 H64 C88 N24 O24'
_cell_volume   2244.57899707
_cell_formula_units_Z   8
loop_
 _symmetry_equiv_pos_site_id
 _symmetry_equiv_pos_as_xyz
  1  'x, y, z'
loop_
 _atom_site_type_symbol
 _atom_site_label
 _atom_site_symmetry_multiplicity
 _atom_site_fract_x
 _atom_site_fract_y
 _atom_site_fract_z
 _atom_site_occupancy
 _atom_site_pbe_bader_charge
 _atom_site_pbe_bader_spin_density
 _atom_site_pbe_cm5_charge
 _atom_site_pbe_ddec_charge
 _atom_site_pbe_ddec_spin_density
 _atom_site_pbe_ddec_sum_bond_order
 _atom_site_pbe_magmom
Ag  Ag0  1  0.27741953  0.70094459  0.79760013  1  0.597185  0  0.425135  0.398477  0  1.948219  0
Ag  Ag1  1  0.72259029  0.20094937  0.70240003  1  0.597259  0  0.425166  0.398485  0  1.948245  0
Ag  Ag2  1  0.72258738  0.29905925  0.20239658  1  0.597174  0  0.425134  0.398455  0  1.94816  0
Ag  Ag3  1  0.27741449  0.79904741  0.29759805  1  0.597276  0  0.425142  0.398422  0  1.948335  0
Ag  Ag4  1  0.09551862  0.70037340  0.68226453  1  0.584505  0  0.426213  0.381391  0  1.972147  0
Ag  Ag5  1  0.90449115  0.20038211  0.81773614  1  0.584348  0  0.426229  0.381371  0  1.972131  0
Ag  Ag6  1  0.90449145  0.29963132  0.31773039  1  0.584407  0  0.426207  0.381359  0  1.972151  0
Ag  Ag7  1  0.09550530  0.79961026  0.18226540  1  0.584456  0  0.426263  0.381467  0  1.972023  0
H  H8  1  0.63099984  0.30231991  0.83951329  1  0.081373  0  0.095898  0.098435  0  1.037185  0
H  H9  1  0.36900955  0.80233956  0.66048480  1  0.081397  0  0.095915  0.098383  0  1.037068  0
H  H10  1  0.36899960  0.69767687  0.16048845  1  0.081387  0  0.095937  0.098461  0  1.037088  0
H  H11  1  0.63099796  0.19765723  0.33951651  1  0.081263  0  0.095869  0.098369  0  1.037056  0
H  H12  1  0.00149907  0.31147866  0.68309716  1  0.111805  0  0.102556  0.112102  0  1.034547  0
H  H13  1  0.99851145  0.81148687  0.81690005  1  0.111649  0  0.102494  0.112035  0  1.034531  0
H  H14  1  0.99850172  0.68852518  0.31690064  1  0.111601  0  0.102515  0.112038  0  1.034421  0
H  H15  1  0.00150041  0.18850814  0.18309752  1  0.111671  0  0.102516  0.112089  0  1.034399  0
H  H16  1  0.62984074  0.08249001  0.83576690  1  0.080335  0  0.094055  0.097518  0  1.041374  0
H  H17  1  0.37015307  0.58251060  0.66423862  1  0.079861  0  0.094005  0.097381  0  1.041437  0
H  H18  1  0.37015492  0.91750589  0.16423205  1  0.080617  0  0.094069  0.097552  0  1.041332  0
H  H19  1  0.62985570  0.41748795  0.33575974  1  0.079871  0  0.094049  0.097435  0  1.041457  0
H  H20  1  0.00154927  0.09237417  0.67801070  1  0.091338  0  0.102046  0.114147  0  1.016517  0
H  H21  1  0.99845109  0.59238247  0.82198927  1  0.091313  0  0.102064  0.114177  0  1.01647  0
H  H22  1  0.99845052  0.90763143  0.32198702  1  0.091366  0  0.102037  0.114143  0  1.016456  0
H  H23  1  0.00156120  0.40761431  0.17800328  1  0.091481  0  0.102078  0.114185  0  1.016297  0
H  H24  1  0.42738882  0.97622132  0.78629070  1  0.077032  0  0.096623  0.09856  0  1.062973  0
H  H25  1  0.57259841  0.47623838  0.71371627  1  0.077069  0  0.096621  0.098603  0  1.063094  0
H  H26  1  0.57260281  0.02377899  0.21370847  1  0.077031  0  0.096612  0.098544  0  1.062975  0
H  H27  1  0.42740910  0.52376016  0.28628504  1  0.077113  0  0.096628  0.098564  0  1.063024  0
H  H28  1  0.54668397  0.86476528  0.85491346  1  0.117017  0  0.122449  0.10066  0  0.995233  0
H  H29  1  0.45332509  0.36476515  0.64509150  1  0.116985  0  0.122457  0.10075  0  0.995183  0
H  H30  1  0.45331574  0.13523503  0.14508527  1  0.117146  0  0.122453  0.100688  0  0.995273  0
H  H31  1  0.54667969  0.63522545  0.35491822  1  0.117368  0  0.122473  0.100721  0  0.995178  0
H  H32  1  0.43064283  0.41436119  0.79501730  1  0.038773  0  0.09797  0.100362  0  1.05818  0
H  H33  1  0.56937539  0.91437747  0.70497692  1  0.039266  0  0.097904  0.100261  0  1.058203  0
H  H34  1  0.56935844  0.58564089  0.20498660  1  0.038772  0  0.097972  0.100331  0  1.058219  0
H  H35  1  0.43062571  0.08562019  0.29502899  1  0.038881  0  0.097886  0.10024  0  1.058187  0
H  H36  1  0.82502655  0.82101979  0.61086835  1  0.115482  0  0.123209  0.104261  0  0.984945  0
H  H37  1  0.17496265  0.32100371  0.88913193  1  0.115686  0  0.123182  0.104223  0  0.985289  0
H  H38  1  0.17495636  0.17899376  0.38912715  1  0.115587  0  0.123152  0.104224  0  0.985237  0
H  H39  1  0.82502603  0.67898425  0.11086652  1  0.115536  0  0.123226  0.104272  0  0.985014  0
H  H40  1  0.60130861  0.75314474  0.55834759  1  0.140585  0  0.119672  0.102909  0  1.018774  0
H  H41  1  0.39868573  0.25313694  0.94164818  1  0.140296  0  0.119623  0.102904  0  1.018853  0
H  H42  1  0.39867712  0.24685469  0.44165014  1  0.140537  0  0.119627  0.1029  0  1.018804  0
H  H43  1  0.60131042  0.74685808  0.05834523  1  0.140682  0  0.119664  0.102952  0  1.018738  0
H  H44  1  0.96925053  0.47751572  0.60386195  1  0.171672  0  0.123081  0.110925  0  1.012398  0
H  H45  1  0.03074877  0.97749976  0.89614488  1  0.171103  0  0.123056  0.110924  0  1.012599  0
H  H46  1  0.03075833  0.52250136  0.39613541  1  0.171045  0  0.123059  0.110954  0  1.012425  0
H  H47  1  0.96925930  0.02248290  0.10386153  1  0.171612  0  0.123048  0.110846  0  1.012478  0
H  H48  1  0.43761546  0.51851671  0.89104999  1  0.114269  0  0.123994  0.106141  0  1.008328  0
H  H49  1  0.56238212  0.01851530  0.60895549  1  0.114312  0  0.124012  0.106165  0  1.008262  0
H  H50  1  0.56237565  0.48148713  0.10895521  1  0.114323  0  0.124012  0.106187  0  1.00825  0
H  H51  1  0.43760057  0.98147795  0.39104253  1  0.114163  0  0.124006  0.106158  0  1.008292  0
H  H52  1  0.77571454  0.82628023  0.91381068  1  0.096842  0  0.122541  0.105294  0  0.968071  0
H  H53  1  0.22430084  0.32628759  0.58618897  1  0.096727  0  0.122615  0.105377  0  0.967978  0
H  H54  1  0.22429033  0.17371744  0.08618640  1  0.096782  0  0.122583  0.10538  0  0.968088  0
H  H55  1  0.77570511  0.67371536  0.41381880  1  0.096845  0  0.122545  0.105306  0  0.96798  0
H  H56  1  0.55857550  0.41578501  0.49250675  1  0.489042  0  0.294144  0.277548  0  1.037136  0
H  H57  1  0.44142762  0.91577937  0.00749057  1  0.48912  0  0.294116  0.277548  0  1.037074  0
H  H58  1  0.44142655  0.58421795  0.50749974  1  0.489047  0  0.294112  0.27751  0  1.037033  0
H  H59  1  0.55858402  0.08421653  0.99250952  1  0.489212  0  0.294041  0.27743  0  1.037192  0
H  H60  1  0.60786384  0.26567758  0.48843084  1  0.541829  0  0.295263  0.312939  0  1.003864  0
H  H61  1  0.39212772  0.76567368  0.01157706  1  0.541793  0  0.295238  0.312976  0  1.003921  0
H  H62  1  0.39213765  0.73432627  0.51157055  1  0.541795  0  0.295279  0.312881  0  1.00403  0
H  H63  1  0.60787815  0.23432486  0.98843172  1  0.54181  0  0.295245  0.312841  0  1.004041  0
H  H64  1  0.80712115  0.35784240  0.02553279  1  0.558738  0  0.303289  0.330471  0  0.962513  0
H  H65  1  0.19289152  0.85785357  0.47445582  1  0.558588  0  0.30328  0.33054  0  0.962426  0
H  H66  1  0.19287317  0.64216144  0.97447011  1  0.558563  0  0.303267  0.330461  0  0.962497  0
H  H67  1  0.80710155  0.14215645  0.52553839  1  0.558764  0  0.303298  0.330551  0  0.962406  0
H  H68  1  0.85014469  0.50441432  0.00117990  1  0.476607  0  0.31826  0.317  0  0.93577  0
H  H69  1  0.14986147  0.00442467  0.49880956  1  0.476624  0  0.318292  0.31704  0  0.935723  0
H  H70  1  0.14984903  0.49558246  0.99881840  1  0.476496  0  0.318255  0.316997  0  0.935796  0
H  H71  1  0.85012956  0.99558182  0.50118501  1  0.476778  0  0.318263  0.317106  0  0.935694  0
C  C72  1  0.31212478  0.26035180  0.76535559  1  0.025853  0  -0.008147  0.043217  0  3.983401  0
C  C73  1  0.68788255  0.76036346  0.73464114  1  0.025246  0  -0.008111  0.043285  0  3.983106  0
C  C74  1  0.68786971  0.73965293  0.23464530  1  0.02564  0  -0.008106  0.043192  0  3.983383  0
C  C75  1  0.31212500  0.23963685  0.26535967  1  0.025499  0  -0.008103  0.043301  0  3.98287  0
C  C76  1  0.54221337  0.25595129  0.81760717  1  -0.07752  0  -0.102029  -0.091377  0  4.053587  0
C  C77  1  0.45779369  0.75596968  0.68239256  1  -0.078402  0  -0.10201  -0.091153  0  4.053325  0
C  C78  1  0.45778503  0.74404725  0.18239501  1  -0.077677  0  -0.102039  -0.091393  0  4.053462  0
C  C79  1  0.54221283  0.24402887  0.31760868  1  -0.078357  0  -0.101983  -0.091166  0  4.053479  0
C  C80  1  0.08765909  0.26294397  0.70644831  1  -0.076199  0  -0.094422  -0.120309  0  4.028052  0
C  C81  1  0.91234929  0.76295255  0.79354800  1  -0.077044  0  -0.09425  -0.120234  0  4.028112  0
C  C82  1  0.91234065  0.73706075  0.29354991  1  -0.075918  0  -0.094369  -0.120211  0  4.0278  0
C  C83  1  0.08766052  0.23704511  0.20644993  1  -0.077136  0  -0.094351  -0.120304  0  4.028264  0
C  C84  1  0.54124022  0.13118710  0.81554701  1  -0.073283  0  -0.105256  -0.104454  0  4.056402  0
C  C85  1  0.45875797  0.63120463  0.68445653  1  -0.072491  0  -0.105296  -0.104388  0  4.056657  0
C  C86  1  0.45875436  0.86881145  0.18445287  1  -0.073661  0  -0.105366  -0.104564  0  4.056415  0
C  C87  1  0.54124967  0.36879480  0.31554327  1  -0.072517  0  -0.105326  -0.104422  0  4.05658  0
C  C88  1  0.19569416  0.07384984  0.73181301  1  0.016059  0  -0.013527  -0.059649  0  3.919726  0
C  C89  1  0.80430093  0.57385871  0.76818902  1  0.01608  0  -0.013615  -0.059711  0  3.920171  0
C  C90  1  0.80430038  0.92615577  0.26818738  1  0.01592  0  -0.013476  -0.059591  0  3.919749  0
C  C91  1  0.19570589  0.42613895  0.23180870  1  0.016281  0  -0.013719  -0.060028  0  3.92044  0
C  C92  1  0.08779553  0.13863250  0.70303996  1  -0.050559  0  -0.093574  -0.112272  0  4.01333  0
C  C93  1  0.91220408  0.63864025  0.79695917  1  -0.050342  0  -0.093613  -0.112211  0  4.013502  0
C  C94  1  0.91220118  0.86137311  0.29695855  1  -0.050513  0  -0.093562  -0.112259  0  4.013459  0
C  C95  1  0.08780578  0.36135300  0.20303827  1  -0.05035  0  -0.093524  -0.11208  0  4.013393  0
C  C96  1  0.42889362  0.07204839  0.78820573  1  -0.064301  0  -0.0992  -0.130111  0  3.977561  0
C  C97  1  0.57109738  0.57205861  0.71179701  1  -0.064253  0  -0.099271  -0.130307  0  3.978019  0
C  C98  1  0.57109992  0.92795104  0.21179458  1  -0.064327  0  -0.099145  -0.13003  0  3.977869  0
C  C99  1  0.42890931  0.42793817  0.28820222  1  -0.064381  0  -0.099178  -0.130194  0  3.977822  0
C  C100  1  0.57355631  0.77823284  0.87598182  1  0.459511  0  0.059508  0.057746  0  3.900311  0
C  C101  1  0.42645027  0.27823409  0.62402456  1  0.459244  0  0.059468  0.057642  0  3.900226  0
C  C102  1  0.42644031  0.22176482  0.12401770  1  0.459537  0  0.05941  0.057572  0  3.900327  0
C  C103  1  0.57355460  0.72175827  0.37598415  1  0.458846  0  0.059488  0.057722  0  3.900186  0
C  C104  1  0.63738765  0.56904223  0.93237971  1  0.534309  0  0.123236  0.066921  0  3.981042  0
C  C105  1  0.36261567  0.06904688  0.56761985  1  0.534297  0  0.123314  0.066818  0  3.981302  0
C  C106  1  0.36260399  0.43095279  0.06761945  1  0.533397  0  0.123335  0.066869  0  3.981037  0
C  C107  1  0.63737514  0.93095520  0.43237723  1  0.534299  0  0.123243  0.066745  0  3.981345  0
C  C108  1  0.43026474  0.31851710  0.79310237  1  -0.015122  0  -0.098578  -0.142179  0  3.983862  0
C  C109  1  0.56974085  0.81853253  0.70689402  1  -0.015162  0  -0.098461  -0.142081  0  3.983623  0
C  C110  1  0.56973266  0.68148410  0.20689974  1  -0.014842  0  -0.098593  -0.142146  0  3.983927  0
C  C111  1  0.43026449  0.18146778  0.29310916  1  -0.014688  0  -0.098416  -0.142046  0  3.983661  0
C  C112  1  0.19594597  0.32375420  0.73829843  1  -0.028246  0  -0.016047  -0.079973  0  3.949827  0
C  C113  1  0.80406568  0.82376473  0.76169791  1  -0.027046  0  -0.01607  -0.079997  0  3.949727  0
C  C114  1  0.80405374  0.67624876  0.26170030  1  -0.028282  0  -0.016109  -0.079988  0  3.949853  0
C  C115  1  0.19593889  0.17623469  0.23830269  1  -0.027213  0  -0.016079  -0.080066  0  3.949694  0
C  C116  1  0.80774100  0.72888216  0.59647382  1  0.512042  0  0.058127  0.052175  0  3.910348  0
C  C117  1  0.19224583  0.22887164  0.90352636  1  0.511434  0  0.058247  0.052173  0  3.910681  0
C  C118  1  0.19224781  0.27112433  0.40352312  1  0.511536  0  0.058286  0.052215  0  3.910412  0
C  C119  1  0.80774788  0.77111632  0.09647195  1  0.51181  0  0.058137  0.052168  0  3.910106  0
C  C120  1  0.68357915  0.69065027  0.56684043  1  0.492231  0  0.052864  0.056168  0  3.939572  0
C  C121  1  0.31641358  0.19064131  0.93315947  1  0.492826  0  0.052821  0.056085  0  3.93927  0
C  C122  1  0.31641036  0.30935357  0.43316010  1  0.492707  0  0.052861  0.05612  0  3.939316  0
C  C123  1  0.68358435  0.80935194  0.06683660  1  0.492258  0  0.05286  0.056101  0  3.939213  0
C  C124  1  0.31177485  0.13344131  0.76229997  1  -0.029978  0  -0.007875  0.051458  0  3.950167  0
C  C125  1  0.68822453  0.63345214  0.73770165  1  -0.029765  0  -0.007896  0.051348  0  3.950152  0
C  C126  1  0.68821765  0.86656518  0.23770078  1  -0.030005  0  -0.00789  0.051427  0  3.950496  0
C  C127  1  0.31178303  0.36654905  0.26229916  1  -0.02976  0  -0.007942  0.051483  0  3.949989  0
C  C128  1  0.76396531  0.50241367  0.56116159  1  0.547741  0  0.124021  0.077768  0  3.951701  0
C  C129  1  0.23603126  0.00240555  0.93884323  1  0.547665  0  0.124183  0.077828  0  3.951942  0
C  C130  1  0.23603938  0.49759458  0.43883749  1  0.548011  0  0.124053  0.077888  0  3.951565  0
C  C131  1  0.76397318  0.99758505  0.06115887  1  0.547993  0  0.12401  0.077704  0  3.951736  0
C  C132  1  0.19121334  0.45617336  0.74095075  1  1.575681  0  0.202647  0.571895  0  4.192766  0
C  C133  1  0.80880086  0.95618297  0.75904540  1  1.575158  0  0.202535  0.571838  0  4.192867  0
C  C134  1  0.80878857  0.54383048  0.25904561  1  1.575444  0  0.202657  0.571918  0  4.192612  0
C  C135  1  0.19120549  0.04381469  0.24095785  1  1.575295  0  0.202596  0.571938  0  4.192805  0
C  C136  1  0.88757089  0.53947447  0.59206178  1  0.467973  0  0.062376  0.048899  0  3.86172  0
C  C137  1  0.11242074  0.03945947  0.90794388  1  0.468212  0  0.062435  0.048887  0  3.861671  0
C  C138  1  0.11243012  0.46053996  0.40793350  1  0.468455  0  0.062427  0.048822  0  3.861531  0
C  C139  1  0.88758062  0.96052495  0.09205901  1  0.467885  0  0.062461  0.049089  0  3.861536  0
C  C140  1  0.18674659  0.94169570  0.73189308  1  1.569102  0  0.200014  0.566677  0  4.196564  0
C  C141  1  0.81324691  0.44170522  0.76810962  1  1.569357  0  0.200187  0.566857  0  4.196513  0
C  C142  1  0.81325203  0.05830902  0.26810658  1  1.569568  0  0.200073  0.566797  0  4.196219  0
C  C143  1  0.18675393  0.55828891  0.23188768  1  1.569013  0  0.200186  0.566906  0  4.196442  0
C  C144  1  0.51254797  0.58813511  0.89639867  1  0.532491  0  0.06203  0.045685  0  3.878174  0
C  C145  1  0.48745198  0.08813790  0.60360581  1  0.532519  0  0.061775  0.04554  0  3.878429  0
C  C146  1  0.48744535  0.41186432  0.10360416  1  0.532941  0  0.061875  0.04549  0  3.878142  0
C  C147  1  0.51254052  0.91185712  0.39639494  1  0.532796  0  0.061842  0.045512  0  3.878353  0
C  C148  1  0.69989093  0.75707927  0.90983844  1  0.597768  0  0.058248  0.059412  0  3.948795  0
C  C149  1  0.30011809  0.25708153  0.59016194  1  0.598375  0  0.058099  0.059189  0  3.948839  0
C  C150  1  0.30010777  0.24291310  0.09016022  1  0.597935  0  0.058132  0.059244  0  3.948856  0
C  C151  1  0.69988309  0.74291966  0.40984297  1  0.598473  0  0.058222  0.059329  0  3.949037  0
C  C152  1  0.74341928  0.37519680  0.54074111  1  1.453163  0  0.238266  0.517675  0  4.155841  0
C  C153  1  0.25657514  0.87519282  0.95927094  1  1.453209  0  0.23822  0.517671  0  4.155814  0
C  C154  1  0.25659079  0.62481058  0.45925381  1  1.452411  0  0.238208  0.517424  0  4.155998  0
C  C155  1  0.74343298  0.12480308  0.04073497  1  1.453807  0  0.238259  0.517646  0  4.15583  0
C  C156  1  0.66339009  0.45280877  0.96731097  1  1.464573  0  0.249847  0.519419  0  4.145902  0
C  C157  1  0.33661299  0.95281571  0.53268589  1  1.464751  0  0.249848  0.519362  0  4.146215  0
C  C158  1  0.33660232  0.54719066  0.03269078  1  1.464823  0  0.249859  0.519556  0  4.145797  0
C  C159  1  0.66337583  0.04719254  0.46731105  1  1.464414  0  0.24993  0.519729  0  4.145891  0
N  N160  1  0.48030580  0.69319329  0.86839315  1  -1.209531  0  -0.312808  -0.176227  0  3.500882  0
N  N161  1  0.51969757  0.19319218  0.63161157  1  -1.209591  0  -0.312628  -0.176027  0  3.501031  0
N  N162  1  0.51968865  0.30680613  0.13160824  1  -1.20971  0  -0.312602  -0.175913  0  3.500774  0
N  N163  1  0.48029984  0.80680107  0.36839054  1  -1.209752  0  -0.312628  -0.175994  0  3.500542  0
N  N164  1  0.66153052  0.57818116  0.54848215  1  -1.206438  0  -0.292222  -0.244011  0  3.331062  0
N  N165  1  0.33846267  0.07816812  0.95151875  1  -1.206416  0  -0.292239  -0.243982  0  3.331157  0
N  N166  1  0.33846945  0.42182356  0.45151356  1  -1.206883  0  -0.292254  -0.244071  0  3.330964  0
N  N167  1  0.66153916  0.92182248  0.04847861  1  -1.206374  0  -0.292247  -0.244002  0  3.331099  0
N  N168  1  0.73214258  0.65261855  0.93840862  1  -1.172963  0  -0.292064  -0.245513  0  3.312884  0
N  N169  1  0.26786398  0.15262736  0.56159209  1  -1.173291  0  -0.29201  -0.245313  0  3.313047  0
N  N170  1  0.26785608  0.34737558  0.06159054  1  -1.172743  0  -0.292031  -0.245379  0  3.312998  0
N  N171  1  0.73212947  0.84737560  0.43840923  1  -1.17338  0  -0.292091  -0.245448  0  3.313174  0
N  N172  1  0.62870089  0.35189617  0.50330601  1  -1.342332  0  -0.569174  -0.619333  0  3.398598  0
N  N173  1  0.37129410  0.85189034  0.99669838  1  -1.342399  0  -0.569039  -0.619283  0  3.398557  0
N  N174  1  0.37130254  0.64810856  0.49669602  1  -1.341494  0  -0.569069  -0.61911  0  3.398442  0
N  N175  1  0.62871315  0.14810733  0.00330595  1  -1.342994  0  -0.568979  -0.619067  0  3.398458  0
N  N176  1  0.78251185  0.43808601  0.00249244  1  -1.334475  0  -0.546706  -0.59457  0  3.304537  0
N  N177  1  0.21749568  0.93809670  0.49750125  1  -1.334236  0  -0.546708  -0.594636  0  3.30449  0
N  N178  1  0.21748269  0.56191166  0.99750794  1  -1.334266  0  -0.546759  -0.594657  0  3.304475  0
N  N179  1  0.78249413  0.06191155  0.50249576  1  -1.334405  0  -0.546747  -0.59491  0  3.30444  0
N  N180  1  0.90961446  0.65307408  0.60901354  1  -1.174234  0  -0.31775  -0.174861  0  3.517419  0
N  N181  1  0.09037896  0.15305876  0.89098826  1  -1.173693  0  -0.317918  -0.174817  0  3.517295  0
N  N182  1  0.09038039  0.34694036  0.39098333  1  -1.173874  0  -0.317849  -0.174788  0  3.517247  0
N  N183  1  0.90961749  0.84692566  0.10901328  1  -1.174229  0  -0.317798  -0.174917  0  3.517352  0
O  O184  1  0.22671727  0.89050486  0.78758387  1  -1.141099  0  -0.323564  -0.521307  0  2.391348  0
O  O185  1  0.77326688  0.39051430  0.71241994  1  -1.141242  0  -0.323661  -0.521468  0  2.391334  0
O  O186  1  0.77327636  0.10949898  0.21241544  1  -1.141244  0  -0.32357  -0.521345  0  2.391261  0
O  O187  1  0.22673282  0.60948513  0.28757879  1  -1.141134  0  -0.323668  -0.521448  0  2.391171  0
O  O188  1  0.13867200  0.89186121  0.67720013  1  -1.130258  0  -0.332335  -0.510181  0  2.298751  0
O  O189  1  0.86133234  0.39186992  0.82280260  1  -1.130206  0  -0.332382  -0.510173  0  2.298707  0
O  O190  1  0.86133573  0.10814439  0.32279867  1  -1.130238  0  -0.33242  -0.51029  0  2.298677  0
O  O191  1  0.13867340  0.60812421  0.17719606  1  -1.130196  0  -0.332356  -0.510168  0  2.29867  0
O  O192  1  0.83101146  0.29920958  0.55792690  1  -1.158097  0  -0.308898  -0.519793  0  2.093901  0
O  O193  1  0.16897319  0.79920430  0.94209015  1  -1.158107  0  -0.30897  -0.519877  0  2.093716  0
O  O194  1  0.16900695  0.70080397  0.44206457  1  -1.158166  0  -0.308942  -0.519734  0  2.094079  0
O  O195  1  0.83103246  0.20078983  0.05792114  1  -1.158361  0  -0.308965  -0.519866  0  2.093835  0
O  O196  1  0.22736173  0.50650030  0.79741493  1  -1.140876  0  -0.327493  -0.526693  0  2.313055  0
O  O197  1  0.77265073  0.00650604  0.70258043  1  -1.140553  0  -0.327448  -0.526575  0  2.312954  0
O  O198  1  0.77263623  0.49350796  0.20258064  1  -1.140854  0  -0.327476  -0.526686  0  2.312945  0
O  O199  1  0.22736277  0.99349250  0.29742131  1  -1.140741  0  -0.327541  -0.52669  0  2.313052  0
O  O200  1  0.57190774  0.37720690  0.96315557  1  -1.167105  0  -0.291379  -0.510518  0  2.220502  0
O  O201  1  0.42809277  0.87721318  0.53684428  1  -1.167378  0  -0.291346  -0.510458  0  2.220525  0
O  O202  1  0.42808459  0.62279165  0.03684719  1  -1.167286  0  -0.291352  -0.510558  0  2.220497  0
O  O203  1  0.57189604  0.12279331  0.46315266  1  -1.167267  0  -0.291416  -0.510619  0  2.220547  0
O  O204  1  0.15153634  0.50753276  0.68531280  1  -1.140212  0  -0.324511  -0.520902  0  2.328462  0
O  O205  1  0.84847916  0.00754132  0.81468228  1  -1.140176  0  -0.324431  -0.520895  0  2.328731  0
O  O206  1  0.84847265  0.49247196  0.31468305  1  -1.140006  0  -0.32453  -0.520953  0  2.328336  0
O  O207  1  0.15151408  0.99245546  0.18532156  1  -1.140309  0  -0.32442  -0.520932  0  2.328588  0
