# generated using pymatgen
data_KH6C9BrO2
_symmetry_space_group_name_H-M   'P 1'
_cell_length_a   3.92858907
_cell_length_b   11.33553403
_cell_length_c   21.20948446
_cell_angle_alpha   90.31583150
_cell_angle_beta   95.33160484
_cell_angle_gamma   89.97614200
_symmetry_Int_Tables_number   1
_chemical_formula_structural   KH6C9BrO2
_chemical_formula_sum   'K4 H24 C36 Br4 O8'
_cell_volume   940.41400917
_cell_formula_units_Z   4
loop_
 _symmetry_equiv_pos_site_id
 _symmetry_equiv_pos_as_xyz
  1  'x, y, z'
loop_
 _atom_site_type_symbol
 _atom_site_label
 _atom_site_symmetry_multiplicity
 _atom_site_fract_x
 _atom_site_fract_y
 _atom_site_fract_z
 _atom_site_occupancy
 _atom_site_hle17_bader_spin_density
 _atom_site_hle17_ddec_charge
 _atom_site_hle17_ddec_spin_density
 _atom_site_hle17_ddec_sum_bond_order
 _atom_site_hle17_magmom
 _atom_site_hse06_10hf_bader_spin_density
 _atom_site_hse06_10hf_ddec_charge
 _atom_site_hse06_10hf_ddec_spin_density
 _atom_site_hse06_10hf_ddec_sum_bond_order
 _atom_site_hse06_10hf_magmom
 _atom_site_hse06_bader_spin_density
 _atom_site_hse06_ddec_charge
 _atom_site_hse06_ddec_spin_density
 _atom_site_hse06_ddec_sum_bond_order
 _atom_site_hse06_magmom
 _atom_site_pbe_bader_spin_density
 _atom_site_pbe_cm5_charge
 _atom_site_pbe_ddec_charge
 _atom_site_pbe_ddec_spin_density
 _atom_site_pbe_ddec_sum_bond_order
 _atom_site_pbe_magmom
K  K0  1  0.27614389  0.46041688  0.48513463  1  0  0.928544  0  0.520834  0  0  0.87982  0  0.712743  0  0  0.895928  0  0.688273  0  0  0.818994  0.867465  0  0.730597  0
K  K1  1  0.21074188  0.96030658  0.48534835  1  0  0.928039  0  0.521924  0  0  0.879318  0  0.713804  0  0  0.895448  0  0.689293  0  0  0.81952  0.866963  0  0.731656  0
K  K2  1  0.80873169  0.71068645  0.58822005  1  0  0.927352  0  0.526506  0  0  0.878851  0  0.718757  0  0  0.894958  0  0.694307  0  0  0.822114  0.866503  0  0.736598  0
K  K3  1  0.78096980  0.21056026  0.58828442  1  0  0.927456  0  0.526239  0  0  0.878832  0  0.718766  0  0  0.894874  0  0.694375  0  0  0.821747  0.866496  0  0.736608  0
H  H4  1  0.45042170  0.45232617  0.84269559  1  0  0.106611  0  0.958862  0  0  0.11797  0  1.021283  0  0  0.120625  0  1.020634  0  0  0.101936  0.116065  0  1.021788  0
H  H5  1  0.39013907  0.95203326  0.84280405  1  0  0.106076  0  0.959273  0  0  0.117418  0  1.021862  0  0  0.120045  0  1.021223  0  0  0.101725  0.115547  0  1.022363  0
H  H6  1  0.04703048  0.21015864  0.97330574  1  0  0.095976  0  0.976736  0  0  0.099845  0  1.051739  0  0  0.104087  0  1.048317  0  0  0.086301  0.096719  0  1.054258  0
H  H7  1  0.92465421  0.71009935  0.97356875  1  0  0.096131  0  0.976558  0  0  0.099629  0  1.052331  0  0  0.103843  0  1.048943  0  0  0.086102  0.096522  0  1.054831  0
H  H8  1  0.85764342  0.07690596  0.88408605  1  0  0.080021  0  0.994148  0  0  0.086571  0  1.06554  0  0  0.08895  0  1.064867  0  0  0.089196  0.084935  0  1.065953  0
H  H9  1  0.02797292  0.57717955  0.88444582  1  0  0.079441  0  0.993679  0  0  0.08552  0  1.065957  0  0  0.087937  0  1.06525  0  0  0.088684  0.083869  0  1.066357  0
H  H10  1  0.95935281  0.13019742  0.77345224  1  0  0.092519  0  0.951744  0  0  0.10512  0  1.012128  0  0  0.1081  0  1.010654  0  0  0.104343  0.102902  0  1.013429  0
H  H11  1  0.81670451  0.63037332  0.77372310  1  0  0.091747  0  0.951861  0  0  0.104803  0  1.01192  0  0  0.107678  0  1.010581  0  0  0.10447  0.102643  0  1.013148  0
H  H12  1  0.23502224  0.25189305  0.70106554  1  0  0.080446  0  0.978332  0  0  0.086914  0  1.051681  0  0  0.091045  0  1.047678  0  0  0.104976  0.08379  0  1.054823  0
H  H13  1  0.46769750  0.75168643  0.70116531  1  0  0.080789  0  0.977539  0  0  0.087188  0  1.05109  0  0  0.091403  0  1.046933  0  0  0.104965  0.084043  0  1.054246  0
H  H14  1  0.29577148  0.51339078  0.74108151  1  0  0.103025  0  0.966088  0  0  0.113328  0  1.029742  0  0  0.116638  0  1.028681  0  0  0.100226  0.110888  0  1.030848  0
H  H15  1  0.44545831  0.01316010  0.74124449  1  0  0.102578  0  0.966355  0  0  0.112901  0  1.029835  0  0  0.11621  0  1.028808  0  0  0.099963  0.110467  0  1.030939  0
H  H16  1  0.65722120  0.19979108  0.23079080  1  0  0.105664  0  0.957963  0  0  0.117171  0  1.020491  0  0  0.119738  0  1.01998  0  0  0.101505  0.115356  0  1.020894  0
H  H17  1  0.57261249  0.69998638  0.23063237  1  0  0.105718  0  0.959174  0  0  0.117192  0  1.021687  0  0  0.119834  0  1.021068  0  0  0.101506  0.115321  0  1.022164  0
H  H18  1  0.13223868  0.95694424  0.09788980  1  0  0.09741  0  0.973645  0  0  0.100101  0  1.050707  0  0  0.104319  0  1.047328  0  0  0.086712  0.097076  0  1.053152  0
H  H19  1  0.96438312  0.45716269  0.09769886  1  0  0.097405  0  0.973667  0  0  0.100246  0  1.050546  0  0  0.104478  0  1.047158  0  0  0.0866  0.097208  0  1.052987  0
H  H20  1  0.01208874  0.82630504  0.18643548  1  0  0.081374  0  0.988467  0  0  0.087504  0  1.060033  0  0  0.089989  0  1.059233  0  0  0.089723  0.085762  0  1.06058  0
H  H21  1  0.17335037  0.32637059  0.18619346  1  0  0.081482  0  0.988559  0  0  0.087285  0  1.060581  0  0  0.089774  0  1.059786  0  0  0.089696  0.085548  0  1.06111  0
H  H22  1  0.21024985  0.88143530  0.29777595  1  0  0.091906  0  0.95031  0  0  0.104585  0  1.01066  0  0  0.107462  0  1.009346  0  0  0.104183  0.102399  0  1.011904  0
H  H23  1  0.08686562  0.38140612  0.29755976  1  0  0.091349  0  0.950297  0  0  0.104313  0  1.010371  0  0  0.107155  0  1.009094  0  0  0.104152  0.102174  0  1.01156  0
H  H24  1  0.54738984  0.00253928  0.37190030  1  0  0.080458  0  0.976842  0  0  0.087318  0  1.049796  0  0  0.091354  0  1.045867  0  0  0.105503  0.084238  0  1.052921  0
H  H25  1  0.82540927  0.50255745  0.37171466  1  0  0.079848  0  0.976878  0  0  0.086475  0  1.050111  0  0  0.09057  0  1.046174  0  0  0.105307  0.083283  0  1.053327  0
H  H26  1  0.61973095  0.26166826  0.33211203  1  0  0.102165  0  0.964598  0  0  0.112538  0  1.028546  0  0  0.115976  0  1.027293  0  0  0.099781  0.110028  0  1.029729  0
H  H27  1  0.71211675  0.76168254  0.33191546  1  0  0.102855  0  0.965393  0  0  0.113195  0  1.029219  0  0  0.116641  0  1.027988  0  0  0.099764  0.110668  0  1.030441  0
C  C28  1  0.20256961  0.29640690  0.79994931  1  0  0.100146  0  3.807896  0  0  0.123523  0  4.034194  0  0  0.122834  0  4.059392  0  0  -0.00683  0.123876  0  4.016967  0
C  C29  1  0.59724075  0.79622093  0.80008352  1  0  0.099856  0  3.807899  0  0  0.122425  0  4.035789  0  0  0.121643  0  4.061093  0  0  -0.007378  0.122806  0  4.018551  0
C  C30  1  0.31254803  0.37132200  0.85099744  1  0  -0.158506  0  3.69844  0  0  -0.181711  0  3.934163  0  0  -0.184948  0  3.955509  0  0  -0.09441  -0.179318  0  3.919609  0
C  C31  1  0.53704941  0.87110610  0.85106641  1  0  -0.157448  0  3.698067  0  0  -0.180578  0  3.934249  0  0  -0.183749  0  3.955699  0  0  -0.093638  -0.178246  0  3.919658  0
C  C32  1  0.25591793  0.33885848  0.91229195  1  0  0.09628  0  3.72791  0  0  0.11398  0  3.99047  0  0  0.116768  0  4.012904  0  0  -0.018058  0.111983  0  3.975194  0
C  C33  1  0.65486419  0.83875768  0.91240560  1  0  0.095811  0  3.73008  0  0  0.114002  0  3.992054  0  0  0.116799  0  4.014484  0  0  -0.018276  0.111998  0  3.976791  0
C  C34  1  0.09109305  0.23377626  0.92505483  1  0  -0.117773  0  3.759983  0  0  -0.141427  0  4.011961  0  0  -0.143945  0  4.032468  0  0  -0.102372  -0.139492  0  3.997885  0
C  C35  1  0.83336021  0.73383824  0.92527945  1  0  -0.118389  0  3.760983  0  0  -0.142078  0  4.012665  0  0  -0.144546  0  4.033093  0  0  -0.10243  -0.140173  0  3.99865  0
C  C36  1  0.98645183  0.15901315  0.87447831  1  0  -0.047415  0  3.779014  0  0  -0.058732  0  4.031206  0  0  -0.060046  0  4.053148  0  0  -0.092666  -0.057817  0  4.016067  0
C  C37  1  0.88876219  0.65912156  0.87475740  1  0  -0.045357  0  3.777759  0  0  -0.056094  0  4.029426  0  0  -0.057416  0  4.051224  0  0  -0.091755  -0.055179  0  4.014373  0
C  C38  1  0.04339205  0.18907052  0.81275678  1  0  -0.12073  0  3.71386  0  0  -0.142759  0  3.9606  0  0  -0.145734  0  3.98136  0  0  -0.08864  -0.140502  0  3.946453  0
C  C39  1  0.77054586  0.68910983  0.81299979  1  0  -0.12133  0  3.714418  0  0  -0.143584  0  3.961766  0  0  -0.14648  0  3.982608  0  0  -0.089536  -0.141359  0  3.94756  0
C  C40  1  0.24590211  0.32646867  0.73431166  1  0  -0.056038  0  3.752826  0  0  -0.078753  0  4.001439  0  0  -0.076712  0  4.021189  0  0  -0.072928  -0.07973  0  3.987977  0
C  C41  1  0.48909080  0.82625964  0.73442784  1  0  -0.05591  0  3.753955  0  0  -0.078636  0  4.002644  0  0  -0.076566  0  4.022433  0  0  -0.072819  -0.079619  0  3.989161  0
C  C42  1  0.28774046  0.43508815  0.71074982  1  0  -0.235872  0  3.663125  0  0  -0.248461  0  3.912102  0  0  -0.259202  0  3.930028  0  0  -0.097339  -0.241404  0  3.899992  0
C  C43  1  0.42366638  0.93489631  0.71086893  1  0  -0.235951  0  3.664025  0  0  -0.247911  0  3.912677  0  0  -0.258695  0  3.930662  0  0  -0.096833  -0.240853  0  3.900556  0
C  C44  1  0.31032682  0.45735707  0.64188984  1  0  0.712896  0  3.970094  0  0  0.676519  0  4.25525  0  0  0.710459  0  4.24569  0  0  0.185097  0.653509  0  4.260667  0
C  C45  1  0.33269261  0.95723488  0.64200824  1  0  0.713541  0  3.968443  0  0  0.676317  0  4.254607  0  0  0.710247  0  4.245045  0  0  0.185322  0.653321  0  4.260009  0
C  C46  1  0.44042682  0.04552953  0.27251367  1  0  0.097736  0  3.809004  0  0  0.120386  0  4.036909  0  0  0.11964  0  4.062113  0  0  -0.008101  0.12078  0  4.019714  0
C  C47  1  0.83117275  0.54554082  0.27234588  1  0  0.097402  0  3.812213  0  0  0.120868  0  4.038837  0  0  0.120114  0  4.064084  0  0  -0.007732  0.121299  0  4.021551  0
C  C48  1  0.50952304  0.11906901  0.22193496  1  0  -0.155371  0  3.697315  0  0  -0.178721  0  3.93368  0  0  -0.181884  0  3.955119  0  0  -0.092926  -0.176449  0  3.919113  0
C  C49  1  0.71108636  0.61914382  0.22177980  1  0  -0.156733  0  3.701259  0  0  -0.18048  0  3.937431  0  0  -0.183669  0  3.958786  0  0  -0.09369  -0.178182  0  3.922901  0
C  C50  1  0.39922518  0.08559796  0.16024480  1  0  0.094923  0  3.734125  0  0  0.112317  0  3.99736  0  0  0.115136  0  4.019838  0  0  -0.018054  0.110305  0  3.982065  0
C  C51  1  0.75940713  0.58571639  0.16008363  1  0  0.095733  0  3.735791  0  0  0.113203  0  3.998636  0  0  0.116009  0  4.021143  0  0  -0.017559  0.111189  0  3.983339  0
C  C52  1  0.21932949  0.98103306  0.14648362  1  0  -0.117069  0  3.757934  0  0  -0.140243  0  4.010843  0  0  -0.14268  0  4.03113  0  0  -0.101819  -0.138446  0  3.996993  0
C  C53  1  0.92575353  0.48113773  0.14630880  1  0  -0.11816  0  3.75799  0  0  -0.141066  0  4.01004  0  0  -0.143524  0  4.030331  0  0  -0.102256  -0.139245  0  3.996181  0
C  C54  1  0.15373890  0.90784855  0.19664591  1  0  -0.048408  0  3.780121  0  0  -0.058945  0  4.031414  0  0  -0.060274  0  4.053279  0  0  -0.092319  -0.058021  0  4.016391  0
C  C55  1  0.04190371  0.40790416  0.19643367  1  0  -0.047981  0  3.778627  0  0  -0.058548  0  4.030296  0  0  -0.059876  0  4.052142  0  0  -0.092314  -0.05763  0  4.015291  0
C  C56  1  0.26448845  0.93893467  0.25879624  1  0  -0.120162  0  3.715582  0  0  -0.141906  0  3.962594  0  0  -0.144856  0  3.983543  0  0  -0.089105  -0.139667  0  3.948322  0
C  C57  1  0.99347126  0.43894413  0.25859595  1  0  -0.119439  0  3.715624  0  0  -0.141612  0  3.962132  0  0  -0.144523  0  3.983067  0  0  -0.089177  -0.139433  0  3.947857  0
C  C58  1  0.54261110  0.07609376  0.33850926  1  0  -0.057484  0  3.756671  0  0  -0.080526  0  4.005824  0  0  -0.078408  0  4.025641  0  0  -0.073361  -0.081534  0  3.992267  0
C  C59  1  0.79602373  0.57615966  0.33835055  1  0  -0.055595  0  3.757573  0  0  -0.078565  0  4.006088  0  0  -0.076524  0  4.025963  0  0  -0.073162  -0.079485  0  3.992534  0
C  C60  1  0.62261221  0.18395291  0.36237305  1  0  -0.233408  0  3.661726  0  0  -0.245729  0  3.910409  0  0  -0.256493  0  3.928357  0  0  -0.096524  -0.238634  0  3.898309  0
C  C61  1  0.74014126  0.68405830  0.36222275  1  0  -0.234765  0  3.665406  0  0  -0.246901  0  3.914005  0  0  -0.257711  0  3.931982  0  0  -0.095794  -0.239797  0  3.901872  0
C  C62  1  0.70553402  0.20625874  0.43158419  1  0  0.713348  0  3.966131  0  0  0.676403  0  4.252061  0  0  0.710315  0  4.2426  0  0  0.185346  0.653429  0  4.257397  0
C  C63  1  0.72767138  0.70640617  0.43145573  1  0  0.713451  0  3.966933  0  0  0.676158  0  4.253461  0  0  0.710092  0  4.243944  0  0  0.184805  0.653181  0  4.258826  0
Br  Br64  1  0.41242584  0.44129610  0.98081328  1  0  -0.080736  0  1.37338  0  0  -0.069399  0  1.658384  0  0  -0.074221  0  1.652106  0  0  0.041078  -0.066084  0  1.662689  0
Br  Br65  1  0.56533746  0.94123033  0.98080017  1  0  -0.080959  0  1.373908  0  0  -0.069778  0  1.658898  0  0  -0.074625  0  1.65262  0  0  0.040623  -0.066432  0  1.663203  0
Br  Br66  1  0.49956359  0.18616243  0.09244242  1  0  -0.073834  0  1.378204  0  0  -0.061325  0  1.66381  0  0  -0.066521  0  1.657568  0  0  0.046673  -0.05756  0  1.668041  0
Br  Br67  1  0.59156315  0.68636126  0.09227475  1  0  -0.073532  0  1.378931  0  0  -0.061072  0  1.66474  0  0  -0.066278  0  1.65852  0  0  0.046888  -0.057283  0  1.668902  0
O  O68  1  0.33500040  0.56473277  0.62500627  1  0  -0.776207  0  1.919646  0  0  -0.729969  0  2.157654  0  0  -0.753475  0  2.144044  0  0  -0.504881  -0.713225  0  2.166715  0
O  O69  1  0.29134764  0.06462385  0.62512833  1  0  -0.776643  0  1.918735  0  0  -0.730241  0  2.157287  0  0  -0.753703  0  2.14367  0  0  -0.505082  -0.713517  0  2.166345  0
O  O70  1  0.29866483  0.36959098  0.60367305  1  0  -0.805744  0  1.97489  0  0  -0.755165  0  2.214628  0  0  -0.779738  0  2.202089  0  0  -0.558401  -0.737545  0  2.222833  0
O  O71  1  0.30600421  0.86945316  0.60380854  1  0  -0.805898  0  1.975741  0  0  -0.754908  0  2.215741  0  0  -0.779549  0  2.203286  0  0  -0.559674  -0.737263  0  2.223876  0
O  O72  1  0.76398655  0.31297492  0.44884874  1  0  -0.77624  0  1.914369  0  0  -0.730246  0  2.152681  0  0  -0.75371  0  2.139158  0  0  -0.503789  -0.713533  0  2.161641  0
O  O73  1  0.68705538  0.81314978  0.44876804  1  0  -0.775911  0  1.913964  0  0  -0.729879  0  2.152601  0  0  -0.753352  0  2.139043  0  0  -0.503709  -0.713159  0  2.161578  0
O  O74  1  0.70857690  0.11914203  0.46964630  1  0  -0.8069  0  1.9739  0  0  -0.75572  0  2.213675  0  0  -0.780404  0  2.201199  0  0  -0.560206  -0.738039  0  2.221811  0
O  O75  1  0.76303226  0.61926068  0.46950516  1  0  -0.80761  0  1.973611  0  0  -0.756386  0  2.21361  0  0  -0.781076  0  2.20111  0  0  -0.559985  -0.738702  0  2.221743  0
