# generated using pymatgen
data_ZnH12C18S2(NO2)2
_symmetry_space_group_name_H-M   'P 1'
_cell_length_a   9.63350764
_cell_length_b   11.46466238
_cell_length_c   11.52261728
_cell_angle_alpha   67.77944062
_cell_angle_beta   82.30654793
_cell_angle_gamma   69.49559663
_symmetry_Int_Tables_number   1
_chemical_formula_structural   ZnH12C18S2(NO2)2
_chemical_formula_sum   'Zn2 H24 C36 S4 N4 O8'
_cell_volume   1103.46378450
_cell_formula_units_Z   2
loop_
 _symmetry_equiv_pos_site_id
 _symmetry_equiv_pos_as_xyz
  1  'x, y, z'
loop_
 _atom_site_type_symbol
 _atom_site_label
 _atom_site_symmetry_multiplicity
 _atom_site_fract_x
 _atom_site_fract_y
 _atom_site_fract_z
 _atom_site_occupancy
 _atom_site_hle17_bader_spin_density
 _atom_site_hle17_ddec_charge
 _atom_site_hle17_ddec_spin_density
 _atom_site_hle17_ddec_sum_bond_order
 _atom_site_hle17_magmom
 _atom_site_hse06_10hf_bader_spin_density
 _atom_site_hse06_10hf_ddec_charge
 _atom_site_hse06_10hf_ddec_spin_density
 _atom_site_hse06_10hf_ddec_sum_bond_order
 _atom_site_hse06_10hf_magmom
 _atom_site_hse06_bader_spin_density
 _atom_site_hse06_ddec_charge
 _atom_site_hse06_ddec_spin_density
 _atom_site_hse06_ddec_sum_bond_order
 _atom_site_hse06_magmom
 _atom_site_pbe_bader_spin_density
 _atom_site_pbe_cm5_charge
 _atom_site_pbe_ddec_charge
 _atom_site_pbe_ddec_spin_density
 _atom_site_pbe_ddec_sum_bond_order
 _atom_site_pbe_magmom
Zn  Zn0  1  0.44769368  0.20227312  0.27795938  1  0  0.983646  0  1.871498  0  0  0.786071  0  2.353136  0  0  0.83492  0  2.29802  0  0  0.691407  0.752186  0  2.390598  0
Zn  Zn1  1  0.55230122  0.79772473  0.72204114  1  0  0.983615  0  1.871475  0  0  0.786052  0  2.353147  0  0  0.834899  0  2.298034  0  0  0.691399  0.752168  0  2.390609  0
H  H2  1  0.56195148  0.91283665  0.40296682  1  0  0.103499  0  0.947232  0  0  0.109745  0  1.012161  0  0  0.113359  0  1.008119  0  0  0.121776  0.106895  0  1.01536  0
H  H3  1  0.43804969  0.08716120  0.59703124  1  0  0.103445  0  0.947272  0  0  0.109737  0  1.01215  0  0  0.113359  0  1.008096  0  0  0.121773  0.106885  0  1.01535  0
H  H4  1  0.49130134  0.71266735  0.44120700  1  0  0.116784  0  0.964087  0  0  0.121174  0  1.035581  0  0  0.124819  0  1.034029  0  0  0.105864  0.118477  0  1.036928  0
H  H5  1  0.50870131  0.28732947  0.55880082  1  0  0.116765  0  0.964123  0  0  0.121187  0  1.035598  0  0  0.12483  0  1.034046  0  0  0.105885  0.118491  0  1.036939  0
H  H6  1  0.10053396  0.97395847  0.21519549  1  0  0.111828  0  0.932382  0  0  0.124555  0  0.984963  0  0  0.127721  0  0.984449  0  0  0.110455  0.122226  0  0.985618  0
H  H7  1  0.89946767  0.02602943  0.78480364  1  0  0.111811  0  0.932356  0  0  0.124571  0  0.984897  0  0  0.127739  0  0.984383  0  0  0.110456  0.122241  0  0.985554  0
H  H8  1  0.18488372  0.16580152  0.19144216  1  0  0.091387  0  0.922472  0  0  0.102374  0  0.978357  0  0  0.104817  0  0.976266  0  0  0.123296  0.10054  0  0.980009  0
H  H9  1  0.81511784  0.83418937  0.80855152  1  0  0.091336  0  0.92249  0  0  0.102343  0  0.978354  0  0  0.104788  0  0.976258  0  0  0.123243  0.100508  0  0.980008  0
H  H10  1  0.29994606  0.83271806  0.88123725  1  0  0.085812  0  0.934207  0  0  0.096283  0  0.990351  0  0  0.099042  0  0.987817  0  0  0.11946  0.094253  0  0.992206  0
H  H11  1  0.70005306  0.16727977  0.11876626  1  0  0.085801  0  0.934217  0  0  0.096281  0  0.990351  0  0  0.09904  0  0.987816  0  0  0.119438  0.094251  0  0.992207  0
H  H12  1  0.23397116  0.75531157  0.10880369  1  0  0.103107  0  0.976392  0  0  0.110245  0  1.038885  0  0  0.11403  0  1.037763  0  0  0.099512  0.107618  0  1.039742  0
H  H13  1  0.76602938  0.24468526  0.89120263  1  0  0.103024  0  0.976488  0  0  0.110163  0  1.038988  0  0  0.113946  0  1.037866  0  0  0.099494  0.10754  0  1.039842  0
H  H14  1  0.68046200  0.47671400  0.17967856  1  0  0.142955  0  0.949218  0  0  0.154078  0  1.003019  0  0  0.158481  0  1.00029  0  0  0.115352  0.150866  0  1.005215  0
H  H15  1  0.31954546  0.52328682  0.82032372  1  0  0.142985  0  0.949204  0  0  0.154125  0  1.002974  0  0  0.158512  0  1.000263  0  0  0.115354  0.150912  0  1.005169  0
H  H16  1  0.72888042  0.57032092  0.94778054  1  0  0.100433  0  0.943711  0  0  0.110197  0  1.002303  0  0  0.113114  0  0.999356  0  0  0.121215  0.107963  0  1.004568  0
H  H17  1  0.27112280  0.42968290  0.05221938  1  0  0.100486  0  0.943609  0  0  0.110226  0  1.002247  0  0  0.113143  0  0.999297  0  0  0.121184  0.10799  0  1.004511  0
H  H18  1  0.83570895  0.88833654  0.46920530  1  0  0.104341  0  0.956763  0  0  0.111725  0  1.022437  0  0  0.115135  0  1.020496  0  0  0.099737  0.109275  0  1.023938  0
H  H19  1  0.16428263  0.11167624  0.53079348  1  0  0.104289  0  0.956811  0  0  0.111701  0  1.022456  0  0  0.115113  0  1.020515  0  0  0.099718  0.109247  0  1.023961  0
H  H20  1  0.93023681  0.24714800  0.40451969  1  0  0.100035  0  0.958424  0  0  0.1063  0  1.026136  0  0  0.109856  0  1.024113  0  0  0.098061  0.103738  0  1.027655  0
H  H21  1  0.06975578  0.75286480  0.59547462  1  0  0.09999  0  0.958487  0  0  0.106269  0  1.026205  0  0  0.109829  0  1.024177  0  0  0.098058  0.103703  0  1.027726  0
H  H22  1  0.24332968  0.33438475  0.58695834  1  0  0.09784  0  0.95583  0  0  0.109238  0  1.015577  0  0  0.112384  0  1.013921  0  0  0.100687  0.106977  0  1.01688  0
H  H23  1  0.75667042  0.66561609  0.41304133  1  0  0.097886  0  0.955775  0  0  0.109274  0  1.015538  0  0  0.112418  0  1.013878  0  0  0.100688  0.107013  0  1.016843  0
H  H24  1  0.92958185  0.53858087  0.28518131  1  0  0.103428  0  0.938244  0  0  0.114138  0  0.99481  0  0  0.118266  0  0.991764  0  0  0.103175  0.111186  0  0.997043  0
H  H25  1  0.07041892  0.46142097  0.71481616  1  0  0.103429  0  0.938262  0  0  0.114143  0  0.994819  0  0  0.118271  0  0.991773  0  0  0.103176  0.11119  0  0.997053  0
C  C26  1  0.46183884  0.92161209  0.36158329  1  0  0.147757  0  3.651759  0  0  0.117202  0  3.897444  0  0  0.12502  0  3.913787  0  0  0.051326  0.112227  0  3.886374  0
C  C27  1  0.53816233  0.07838576  0.63841477  1  0  0.147845  0  3.651623  0  0  0.117278  0  3.897313  0  0  0.125093  0  3.913647  0  0  0.051385  0.112304  0  3.886242  0
C  C28  1  0.42252678  0.81023819  0.38160771  1  0  -0.14897  0  3.725004  0  0  -0.169456  0  3.975011  0  0  -0.17741  0  3.996354  0  0  -0.0836  -0.164169  0  3.96045  0
C  C29  1  0.57747343  0.18975665  0.61839767  1  0  -0.148989  0  3.724795  0  0  -0.169492  0  3.974811  0  0  -0.177461  0  3.99617  0  0  -0.083656  -0.164203  0  3.960247  0
C  C30  1  0.29187796  0.82725252  0.32764872  1  0  0.083008  0  3.775545  0  0  0.099626  0  4.030101  0  0  0.10511  0  4.052653  0  0  0.008602  0.096096  0  4.014684  0
C  C31  1  0.70812433  0.17274233  0.67235467  1  0  0.083098  0  3.775393  0  0  0.099668  0  4.030025  0  0  0.105172  0  4.052551  0  0  0.008629  0.096137  0  4.01461  0
C  C32  1  0.20428629  0.95629067  0.25705408  1  0  -0.156382  0  3.733881  0  0  -0.175632  0  3.983913  0  0  -0.183975  0  4.006351  0  0  -0.085642  -0.170464  0  3.969118  0
C  C33  1  0.79571359  0.04369920  0.74294712  1  0  -0.156426  0  3.734069  0  0  -0.175682  0  3.9841  0  0  -0.184037  0  4.006539  0  0  -0.085646  -0.170513  0  3.969305  0
C  C34  1  0.25068309  0.06300610  0.24292390  1  0  0.137898  0  3.704303  0  0  0.107034  0  3.954484  0  0  0.114412  0  3.97324  0  0  0.052275  0.102148  0  3.941831  0
C  C35  1  0.74931847  0.93698777  0.75707387  1  0  0.137902  0  3.704439  0  0  0.107037  0  3.954616  0  0  0.114415  0  3.973375  0  0  0.052308  0.102153  0  3.941961  0
C  C36  1  0.38102346  0.75500709  0.95110136  1  0  0.136944  0  3.720064  0  0  0.107727  0  3.964809  0  0  0.115882  0  3.982635  0  0  0.045592  0.102466  0  3.952639  0
C  C37  1  0.61897425  0.24499174  0.04890280  1  0  0.136774  0  3.720063  0  0  0.107545  0  3.964807  0  0  0.115698  0  3.982635  0  0  0.04553  0.102284  0  3.952637  0
C  C38  1  0.34500975  0.71173971  0.07709901  1  0  -0.177201  0  3.770831  0  0  -0.192341  0  4.013976  0  0  -0.201691  0  4.036031  0  0  -0.094677  -0.18635  0  3.999194  0
C  C39  1  0.65499464  0.28825514  0.92290501  1  0  -0.177024  0  3.770753  0  0  -0.192172  0  4.013911  0  0  -0.201519  0  4.035965  0  0  -0.094658  -0.186182  0  3.99913  0
C  C40  1  0.45360799  0.61194404  0.16284819  1  0  0.096583  0  3.754366  0  0  0.111203  0  4.01126  0  0  0.118554  0  4.032488  0  0  0.009731  0.106342  0  3.996904  0
C  C41  1  0.54639881  0.38805280  0.83715393  1  0  0.096574  0  3.754245  0  0  0.111186  0  4.011156  0  0  0.118538  0  4.032378  0  0  0.00974  0.106318  0  3.996813  0
C  C42  1  0.59439728  0.55751344  0.11669213  1  0  -0.155655  0  3.679438  0  0  -0.173887  0  3.924439  0  0  -0.182496  0  3.944447  0  0  -0.084066  -0.168433  0  3.911177  0
C  C43  1  0.40560419  0.44248939  0.88330663  1  0  -0.155721  0  3.679312  0  0  -0.173953  0  3.924307  0  0  -0.182547  0  3.944321  0  0  -0.084063  -0.168496  0  3.911046  0
C  C44  1  0.62120608  0.60726731  0.98880046  1  0  0.133142  0  3.688479  0  0  0.101179  0  3.938845  0  0  0.108862  0  3.95721  0  0  0.048671  0.096278  0  3.926331  0
C  C45  1  0.37879890  0.39273452  0.01119913  1  0  0.133131  0  3.688449  0  0  0.101153  0  3.938822  0  0  0.108835  0  3.957187  0  0  0.048706  0.096255  0  3.926301  0
C  C46  1  0.90901792  0.93609643  0.48256037  1  0  -0.08239  0  3.733414  0  0  -0.105288  0  3.985056  0  0  -0.106453  0  4.005945  0  0  -0.093386  -0.104325  0  3.970731  0
C  C47  1  0.09097149  0.06391936  0.51743319  1  0  -0.082177  0  3.733255  0  0  -0.105063  0  3.984836  0  0  -0.10622  0  4.005708  0  0  -0.093253  -0.104098  0  3.970509  0
C  C48  1  0.87005537  0.07543425  0.42931448  1  0  -0.066192  0  3.765128  0  0  -0.04257  0  3.99307  0  0  -0.049425  0  4.016699  0  0  -0.02297  -0.037885  0  3.976756  0
C  C49  1  0.12993864  0.92457755  0.57068091  1  0  -0.06621  0  3.764882  0  0  -0.042679  0  3.992953  0  0  -0.049534  0  4.016587  0  0  -0.022979  -0.037993  0  3.976633  0
C  C50  1  0.96202803  0.13888772  0.44680218  1  0  -0.081758  0  3.752696  0  0  -0.103042  0  4.002365  0  0  -0.104726  0  4.023772  0  0  -0.091093  -0.101608  0  3.987554  0
C  C51  1  0.03796566  0.86112208  0.55319399  1  0  -0.081626  0  3.752568  0  0  -0.102926  0  4.002291  0  0  -0.104614  0  4.023701  0  0  -0.091076  -0.101499  0  3.987498  0
C  C52  1  0.72701225  0.15797802  0.35931600  1  0  0.627099  0  3.947354  0  0  0.581479  0  4.237045  0  0  0.614761  0  4.23042  0  0  0.193988  0.558963  0  4.240661  0
C  C53  1  0.27298179  0.84203080  0.64067877  1  0  0.626981  0  3.947627  0  0  0.581438  0  4.237252  0  0  0.614719  0  4.230633  0  0  0.193943  0.558922  0  4.240863  0
C  C54  1  0.13636074  0.40702058  0.54981405  1  0  -0.080136  0  3.745675  0  0  -0.105117  0  3.998417  0  0  -0.105544  0  4.018158  0  0  -0.090038  -0.104597  0  3.985123  0
C  C55  1  0.86363862  0.59298225  0.45018321  1  0  -0.08021  0  3.745586  0  0  -0.105183  0  3.998319  0  0  -0.105607  0  4.018057  0  0  -0.090029  -0.104663  0  3.985029  0
C  C56  1  0.09621615  0.42938279  0.42854924  1  0  -0.060594  0  3.759787  0  0  -0.037408  0  3.99255  0  0  -0.044244  0  4.015703  0  0  -0.021467  -0.033024  0  3.977028  0
C  C57  1  0.90378463  0.57061905  0.57144910  1  0  -0.060552  0  3.759717  0  0  -0.037362  0  3.992471  0  0  -0.044197  0  4.015623  0  0  -0.021452  -0.032979  0  3.97695  0
C  C58  1  0.95896536  0.52277222  0.37936844  1  0  -0.079055  0  3.748463  0  0  -0.102212  0  3.999292  0  0  -0.103222  0  4.018753  0  0  -0.088303  -0.101372  0  3.985974  0
C  C59  1  0.04103305  0.47722463  0.62063379  1  0  -0.079084  0  3.748435  0  0  -0.102249  0  3.999275  0  0  -0.103257  0  4.018735  0  0  -0.088307  -0.101405  0  3.985952  0
C  C60  1  0.19978621  0.35741438  0.34971219  1  0  0.620933  0  3.948143  0  0  0.571635  0  4.243905  0  0  0.605159  0  4.238036  0  0  0.193181  0.54893  0  4.246889  0
C  C61  1  0.80021389  0.64258645  0.65028747  1  0  0.620922  0  3.948168  0  0  0.571628  0  4.243929  0  0  0.605152  0  4.23806  0  0  0.193192  0.548926  0  4.246912  0
S  S62  1  0.23077183  0.69078269  0.35098445  1  0  0.016339  0  2.425274  0  0  0.013535  0  2.778101  0  0  0.009904  0  2.780046  0  0  0.059714  0.015838  0  2.777199  0
S  S63  1  0.76923617  0.30920516  0.64902524  1  0  0.016348  0  2.425402  0  0  0.013552  0  2.778247  0  0  0.009915  0  2.780187  0  0  0.05974  0.015853  0  2.777348  0
S  S64  1  0.42405384  0.55207302  0.32644826  1  0  0.072546  0  2.421325  0  0  0.068773  0  2.780665  0  0  0.066529  0  2.779181  0  0  0.083709  0.070292  0  2.781797  0
S  S65  1  0.57595719  0.44792083  0.67355448  1  0  0.072531  0  2.421445  0  0  0.068758  0  2.780781  0  0  0.066515  0  2.779297  0  0  0.083707  0.07028  0  2.781918  0
N  N66  1  0.37814038  0.04602298  0.29267613  1  0  -0.330459  0  3.287771  0  0  -0.246848  0  3.563047  0  0  -0.266166  0  3.577807  0  0  -0.330815  -0.233717  0  3.552698  0
N  N67  1  0.62185939  0.95397289  0.70731936  1  0  -0.330431  0  3.287664  0  0  -0.246871  0  3.563006  0  0  -0.266189  0  3.577766  0  0  -0.330864  -0.23374  0  3.552657  0
N  N68  1  0.51712673  0.70557682  0.90679562  1  0  -0.340988  0  3.332377  0  0  -0.256872  0  3.617893  0  0  -0.276607  0  3.631481  0  0  -0.337409  -0.243719  0  3.608512  0
N  N69  1  0.48287198  0.29442500  0.09320644  1  0  -0.340882  0  3.332396  0  0  -0.25672  0  3.617844  0  0  -0.276454  0  3.631438  0  0  -0.337359  -0.243567  0  3.608458  0
O  O70  1  0.64933896  0.09060243  0.34675424  1  0  -0.665617  0  2.06259  0  0  -0.590557  0  2.33286  0  0  -0.619719  0  2.3182  0  0  -0.34212  -0.570217  0  2.3421  0
O  O71  1  0.35065618  0.90940339  0.65324239  1  0  -0.665544  0  2.062758  0  0  -0.59051  0  2.332995  0  0  -0.619673  0  2.31834  0  0  -0.342067  -0.57017  0  2.342233  0
O  O72  1  0.68791559  0.28255043  0.31911661  1  0  -0.620263  0  1.934639  0  0  -0.579451  0  2.165885  0  0  -0.601638  0  2.157184  0  0  -0.327939  -0.563796  0  2.171404  0
O  O73  1  0.31207356  0.71745739  0.68087736  1  0  -0.620254  0  1.93463  0  0  -0.579449  0  2.165824  0  0  -0.601635  0  2.157124  0  0  -0.327968  -0.563793  0  2.171341  0
O  O74  1  0.32771971  0.27784104  0.40005676  1  0  -0.649541  0  2.081462  0  0  -0.577635  0  2.365933  0  0  -0.607364  0  2.352278  0  0  -0.332708  -0.556577  0  2.374104  0
O  O75  1  0.67228048  0.72215381  0.59994600  1  0  -0.649511  0  2.081468  0  0  -0.577603  0  2.365927  0  0  -0.607332  0  2.352269  0  0  -0.332692  -0.556544  0  2.374093  0
O  O76  1  0.16293784  0.37586094  0.24217212  1  0  -0.62222  0  1.89374  0  0  -0.577274  0  2.111555  0  0  -0.599539  0  2.101098  0  0  -0.330583  -0.561603  0  2.118168  0
O  O77  1  0.83706431  0.62414289  0.75782618  1  0  -0.622254  0  1.893717  0  0  -0.577323  0  2.111545  0  0  -0.599584  0  2.10108  0  0  -0.330652  -0.561651  0  2.118159  0
