# generated using pymatgen
data_MgH16C24(NO2)2
_symmetry_space_group_name_H-M   'P 1'
_cell_length_a   8.50954357
_cell_length_b   12.20074938
_cell_length_c   12.20075339
_cell_angle_alpha   77.10451915
_cell_angle_beta   74.59115884
_cell_angle_gamma   74.59122495
_symmetry_Int_Tables_number   1
_chemical_formula_structural   MgH16C24(NO2)2
_chemical_formula_sum   'Mg2 H32 C48 N4 O8'
_cell_volume   1161.31559293
_cell_formula_units_Z   2
loop_
 _symmetry_equiv_pos_site_id
 _symmetry_equiv_pos_as_xyz
  1  'x, y, z'
loop_
 _atom_site_type_symbol
 _atom_site_label
 _atom_site_symmetry_multiplicity
 _atom_site_fract_x
 _atom_site_fract_y
 _atom_site_fract_z
 _atom_site_occupancy
 _atom_site_hle17_bader_spin_density
 _atom_site_hle17_ddec_charge
 _atom_site_hle17_ddec_spin_density
 _atom_site_hle17_ddec_sum_bond_order
 _atom_site_hle17_magmom
 _atom_site_hse06_10hf_bader_spin_density
 _atom_site_hse06_10hf_ddec_charge
 _atom_site_hse06_10hf_ddec_spin_density
 _atom_site_hse06_10hf_ddec_sum_bond_order
 _atom_site_hse06_10hf_magmom
 _atom_site_hse06_bader_spin_density
 _atom_site_hse06_ddec_charge
 _atom_site_hse06_ddec_spin_density
 _atom_site_hse06_ddec_sum_bond_order
 _atom_site_hse06_magmom
 _atom_site_pbe_bader_spin_density
 _atom_site_pbe_cm5_charge
 _atom_site_pbe_ddec_charge
 _atom_site_pbe_ddec_spin_density
 _atom_site_pbe_ddec_sum_bond_order
 _atom_site_pbe_magmom
Mg  Mg0  1  0.75000021  0.57497453  0.42502573  1  0  1.448358  0  1.239768  0  0  1.340755  0  1.48797  0  0  1.364781  0  1.453758  0  0  0.833517  1.323732  0  1.512012  0
Mg  Mg1  1  0.25000071  0.42502761  0.57497219  1  0  1.448473  0  1.239629  0  0  1.340756  0  1.487989  0  0  1.364804  0  1.453752  0  0  0.833496  1.323732  0  1.512031  0
H  H2  1  0.17240456  0.67495015  0.67384405  1  0  0.104819  0  0.991795  0  0  0.10974  0  1.061476  0  0  0.112931  0  1.059764  0  0  0.104898  0.107426  0  1.062721  0
H  H3  1  0.32759389  0.32615525  0.32504751  1  0  0.104793  0  0.991829  0  0  0.109706  0  1.061524  0  0  0.112897  0  1.059811  0  0  0.104879  0.107391  0  1.062769  0
H  H4  1  0.82759581  0.32505369  0.32615525  1  0  0.104811  0  0.991804  0  0  0.109759  0  1.06147  0  0  0.11295  0  1.05976  0  0  0.104895  0.107445  0  1.06272  0
H  H5  1  0.67240242  0.67384607  0.67494653  1  0  0.104795  0  0.991824  0  0  0.109747  0  1.06148  0  0  0.112937  0  1.059769  0  0  0.104882  0.10743  0  1.062731  0
H  H6  1  0.16213410  0.83891194  0.77005756  1  0  0.089444  0  0.956052  0  0  0.10068  0  1.01242  0  0  0.103263  0  1.012469  0  0  0.098404  0.098838  0  1.012482  0
H  H7  1  0.33786428  0.22993777  0.16108836  1  0  0.08941  0  0.956048  0  0  0.10063  0  1.012437  0  0  0.103213  0  1.012487  0  0  0.098376  0.098785  0  1.012499  0
H  H8  1  0.83786383  0.16109188  0.22994301  1  0  0.089359  0  0.956098  0  0  0.100623  0  1.012441  0  0  0.103207  0  1.012488  0  0  0.098362  0.098777  0  1.012502  0
H  H9  1  0.66213618  0.77005836  0.83890846  1  0  0.089406  0  0.956097  0  0  0.100666  0  1.01244  0  0  0.10325  0  1.012487  0  0  0.098385  0.09882  0  1.0125  0
H  H10  1  0.93853636  0.01698865  0.75269171  1  0  0.090235  0  0.944505  0  0  0.102512  0  1.000888  0  0  0.106049  0  0.998573  0  0  0.100873  0.100016  0  1.002503  0
H  H11  1  0.56146233  0.24730568  0.98301024  1  0  0.090222  0  0.944488  0  0  0.102507  0  1.000872  0  0  0.106044  0  0.998556  0  0  0.100867  0.10001  0  1.002489  0
H  H12  1  0.06145944  0.98301426  0.24731191  1  0  0.09024  0  0.944466  0  0  0.102506  0  1.000859  0  0  0.106042  0  0.998546  0  0  0.100883  0.100015  0  1.00247  0
H  H13  1  0.43853962  0.75268960  0.01698648  1  0  0.090202  0  0.944425  0  0  0.102468  0  1.000823  0  0  0.106003  0  0.99851  0  0  0.100863  0.099975  0  1.002435  0
H  H14  1  0.73665222  0.86442743  0.54895791  1  0  0.097116  0  0.969892  0  0  0.103705  0  1.0403  0  0  0.107086  0  1.038121  0  0  0.102683  0.10125  0  1.041925  0
H  H15  1  0.76334576  0.45104342  0.13556955  1  0  0.097127  0  0.969894  0  0  0.103739  0  1.040278  0  0  0.107121  0  1.038101  0  0  0.102677  0.101284  0  1.041906  0
H  H16  1  0.26334715  0.13557205  0.45104577  1  0  0.097097  0  0.969853  0  0  0.103681  0  1.040276  0  0  0.107063  0  1.038097  0  0  0.102664  0.101226  0  1.041901  0
H  H17  1  0.23665113  0.54895613  0.86442803  1  0  0.097122  0  0.96985  0  0  0.103714  0  1.040255  0  0  0.107095  0  1.038077  0  0  0.102674  0.101258  0  1.04188  0
H  H18  1  0.61893726  0.35150658  0.59165587  1  0  0.091063  0  0.968654  0  0  0.094985  0  1.038291  0  0  0.098381  0  1.035256  0  0  0.122362  0.092427  0  1.040669  0
H  H19  1  0.88107054  0.40834152  0.64849462  1  0  0.091023  0  0.968651  0  0  0.094894  0  1.038361  0  0  0.09829  0  1.035327  0  0  0.122339  0.092334  0  1.040739  0
H  H20  1  0.38107125  0.64849473  0.40834163  1  0  0.091012  0  0.968654  0  0  0.094921  0  1.038309  0  0  0.098317  0  1.035276  0  0  0.122348  0.092362  0  1.040684  0
H  H21  1  0.11893705  0.59165888  0.35150570  1  0  0.091096  0  0.968622  0  0  0.09496  0  1.03832  0  0  0.098359  0  1.035284  0  0  0.122359  0.092398  0  1.040696  0
H  H22  1  0.84612599  0.17784786  0.61725197  1  0  0.102875  0  0.958741  0  0  0.112461  0  1.020721  0  0  0.115012  0  1.020981  0  0  0.104538  0.110627  0  1.02071  0
H  H23  1  0.65387851  0.38274719  0.82214848  1  0  0.10292  0  0.958744  0  0  0.112489  0  1.020745  0  0  0.115041  0  1.021003  0  0  0.104544  0.110649  0  1.020738  0
H  H24  1  0.15387787  0.82214908  0.38274978  1  0  0.102942  0  0.95866  0  0  0.112506  0  1.020667  0  0  0.115059  0  1.020922  0  0  0.104528  0.11067  0  1.020657  0
H  H25  1  0.34612513  0.61725410  0.17784911  1  0  0.102882  0  0.958736  0  0  0.112446  0  1.020737  0  0  0.114996  0  1.020998  0  0  0.104538  0.110609  0  1.020726  0
H  H26  1  0.48841245  0.97034158  0.65705073  1  0  0.105749  0  0.951926  0  0  0.117357  0  1.009193  0  0  0.120322  0  1.009284  0  0  0.105557  0.115234  0  1.009268  0
H  H27  1  0.01158404  0.34294695  0.02966145  1  0  0.105775  0  0.951903  0  0  0.11738  0  1.00917  0  0  0.120345  0  1.009259  0  0  0.105561  0.115258  0  1.009252  0
H  H28  1  0.51158670  0.02966225  0.34294962  1  0  0.105771  0  0.951932  0  0  0.117364  0  1.009206  0  0  0.12033  0  1.009294  0  0  0.105541  0.115242  0  1.009284  0
H  H29  1  0.98841309  0.65704821  0.97034275  1  0  0.105755  0  0.951939  0  0  0.117364  0  1.0092  0  0  0.120328  0  1.009291  0  0  0.105572  0.115242  0  1.009276  0
H  H30  1  0.27382902  0.15400413  0.63389121  1  0  0.078685  0  0.937699  0  0  0.086696  0  1.000623  0  0  0.089818  0  0.99754  0  0  0.116344  0.084404  0  1.00287  0
H  H31  1  0.22617076  0.36610710  0.84600029  1  0  0.078695  0  0.937704  0  0  0.086712  0  1.000628  0  0  0.089824  0  0.997554  0  0  0.116307  0.084408  0  1.002877  0
H  H32  1  0.72617228  0.84600057  0.36610855  1  0  0.078702  0  0.937648  0  0  0.086727  0  1.000563  0  0  0.089836  0  0.997494  0  0  0.116311  0.084427  0  1.002807  0
H  H33  1  0.77383096  0.63388892  0.15400533  1  0  0.078716  0  0.937637  0  0  0.08673  0  1.000557  0  0  0.089851  0  0.997475  0  0  0.11634  0.084434  0  1.002804  0
C  C34  1  0.96844092  0.66397711  0.54319059  1  0  0.69596  0  3.882991  0  0  0.642737  0  4.180421  0  0  0.677086  0  4.169295  0  0  0.227372  0.619569  0  4.187258  0
C  C35  1  0.53155070  0.45680900  0.33602340  1  0  0.695964  0  3.882937  0  0  0.642764  0  4.180312  0  0  0.677113  0  4.169185  0  0  0.227371  0.6196  0  4.187145  0
C  C36  1  0.03154221  0.33603095  0.45681185  1  0  0.695654  0  3.883064  0  0  0.64234  0  4.180674  0  0  0.676688  0  4.169554  0  0  0.227255  0.619184  0  4.187497  0
C  C37  1  0.46845375  0.54318978  0.66396884  1  0  0.69584  0  3.883013  0  0  0.642539  0  4.180595  0  0  0.67689  0  4.16947  0  0  0.227319  0.619379  0  4.187425  0
C  C38  1  0.95669682  0.76112819  0.60504165  1  0  -0.072593  0  3.757956  0  0  -0.047669  0  3.989839  0  0  -0.056005  0  4.013312  0  0  -0.019252  -0.042392  0  3.974024  0
C  C39  1  0.54330010  0.39496057  0.23887053  1  0  -0.07264  0  3.758065  0  0  -0.047678  0  3.989891  0  0  -0.056017  0  4.013362  0  0  -0.019249  -0.042409  0  3.974084  0
C  C40  1  0.04330442  0.23887302  0.39496215  1  0  -0.072476  0  3.757772  0  0  -0.047598  0  3.989781  0  0  -0.055933  0  4.013253  0  0  -0.019277  -0.042335  0  3.973982  0
C  C41  1  0.45669529  0.60503983  0.76112714  1  0  -0.072535  0  3.757728  0  0  -0.047673  0  3.989767  0  0  -0.056012  0  4.013239  0  0  -0.019284  -0.042403  0  3.973959  0
C  C42  1  0.07583975  0.75358648  0.66795902  1  0  -0.063947  0  3.71592  0  0  -0.090481  0  3.963551  0  0  -0.08998  0  3.984091  0  0  -0.084061  -0.090475  0  3.94953  0
C  C43  1  0.42415753  0.33203948  0.24641247  1  0  -0.063923  0  3.715957  0  0  -0.090463  0  3.963568  0  0  -0.08996  0  3.984108  0  0  -0.084066  -0.090459  0  3.949548  0
C  C44  1  0.92415753  0.24641562  0.33204123  1  0  -0.063945  0  3.715775  0  0  -0.09048  0  3.963395  0  0  -0.08998  0  3.983935  0  0  -0.084055  -0.090475  0  3.94938  0
C  C45  1  0.57584301  0.66796010  0.75358361  1  0  -0.063897  0  3.7157  0  0  -0.09043  0  3.963328  0  0  -0.089926  0  3.983867  0  0  -0.084034  -0.090425  0  3.949309  0
C  C46  1  0.06913817  0.84545705  0.72090380  1  0  -0.07997  0  3.797631  0  0  -0.08879  0  4.047085  0  0  -0.092333  0  4.068823  0  0  -0.095081  -0.086488  0  4.032208  0
C  C47  1  0.43085916  0.27909555  0.15454165  1  0  -0.079931  0  3.797641  0  0  -0.088732  0  4.047091  0  0  -0.092277  0  4.068831  0  0  -0.095062  -0.086426  0  4.032207  0
C  C48  1  0.93086269  0.15454160  0.27909815  1  0  -0.079946  0  3.797756  0  0  -0.088783  0  4.047205  0  0  -0.092327  0  4.068944  0  0  -0.095063  -0.086471  0  4.03232  0
C  C49  1  0.56913831  0.72090224  0.84545865  1  0  -0.08  0  3.797711  0  0  -0.088837  0  4.047164  0  0  -0.092382  0  4.068902  0  0  -0.095073  -0.086525  0  4.032275  0
C  C50  1  0.94391850  0.94527699  0.71104055  1  0  -0.102036  0  3.743613  0  0  -0.123832  0  3.988694  0  0  -0.124183  0  4.007597  0  0  -0.087018  -0.123281  0  3.975617  0
C  C51  1  0.55607909  0.28895811  0.05472122  1  0  -0.102016  0  3.743568  0  0  -0.123813  0  3.988666  0  0  -0.124164  0  4.007571  0  0  -0.086972  -0.123257  0  3.975583  0
C  C52  1  0.05607936  0.05472335  0.28896242  1  0  -0.101975  0  3.743713  0  0  -0.123755  0  3.988817  0  0  -0.124106  0  4.007721  0  0  -0.086986  -0.123206  0  3.975734  0
C  C53  1  0.44392137  0.71103801  0.94527642  1  0  -0.101951  0  3.743606  0  0  -0.123734  0  3.988715  0  0  -0.124085  0  4.007619  0  0  -0.086992  -0.123187  0  3.975637  0
C  C54  1  0.82113833  0.95324930  0.65016347  1  0  0.031126  0  3.79531  0  0  0.048524  0  4.029799  0  0  0.046254  0  4.053604  0  0  -0.013085  0.049912  0  4.013497  0
C  C55  1  0.67885985  0.34983750  0.04674882  1  0  0.031188  0  3.795385  0  0  0.048534  0  4.029902  0  0  0.046263  0  4.053709  0  0  -0.013076  0.049916  0  4.013608  0
C  C56  1  0.17885981  0.04675019  0.34983962  1  0  0.031052  0  3.795429  0  0  0.048425  0  4.029967  0  0  0.046153  0  4.053773  0  0  -0.013091  0.049812  0  4.013667  0
C  C57  1  0.32113856  0.65016118  0.95325030  1  0  0.03111  0  3.79536  0  0  0.048484  0  4.029881  0  0  0.046214  0  4.053686  0  0  -0.013069  0.049868  0  4.013588  0
C  C58  1  0.82889713  0.86011058  0.59786516  1  0  -0.107244  0  3.704818  0  0  -0.137611  0  3.951524  0  0  -0.137789  0  3.971121  0  0  -0.081282  -0.137138  0  3.938119  0
C  C59  1  0.67109711  0.40213379  0.13988842  1  0  -0.107271  0  3.704999  0  0  -0.137674  0  3.951704  0  0  -0.137852  0  3.971302  0  0  -0.08131  -0.137203  0  3.938303  0
C  C60  1  0.17109679  0.13989061  0.40213754  1  0  -0.107196  0  3.70479  0  0  -0.137531  0  3.951515  0  0  -0.137708  0  3.971112  0  0  -0.081248  -0.137053  0  3.93811  0
C  C61  1  0.32890129  0.59786489  0.86010988  1  0  -0.107256  0  3.704866  0  0  -0.137594  0  3.951596  0  0  -0.13777  0  3.971192  0  0  -0.081271  -0.137117  0  3.93819  0
C  C62  1  0.59369343  0.26538279  0.60950011  1  0  0.140434  0  3.694673  0  0  0.111013  0  3.949126  0  0  0.117645  0  3.965779  0  0  0.048566  0.106812  0  3.937836  0
C  C63  1  0.90631138  0.39049757  0.73461564  1  0  0.140602  0  3.694529  0  0  0.111217  0  3.948987  0  0  0.11785  0  3.965637  0  0  0.048636  0.10701  0  3.937701  0
C  C64  1  0.40631050  0.73461763  0.39049843  1  0  0.14062  0  3.694459  0  0  0.111224  0  3.948897  0  0  0.117856  0  3.965548  0  0  0.048629  0.107017  0  3.937608  0
C  C65  1  0.09369528  0.60950198  0.26538422  1  0  0.140474  0  3.694456  0  0  0.111098  0  3.948911  0  0  0.117731  0  3.965558  0  0  0.048598  0.106896  0  3.937618  0
C  C66  1  0.72042078  0.16794529  0.62348745  1  0  -0.166292  0  3.710128  0  0  -0.183246  0  3.955875  0  0  -0.191901  0  3.97882  0  0  -0.086634  -0.177708  0  3.940481  0
C  C67  1  0.77958124  0.37651088  0.83205374  1  0  -0.166361  0  3.710231  0  0  -0.183336  0  3.955937  0  0  -0.191991  0  3.97888  0  0  -0.08668  -0.177787  0  3.940534  0
C  C68  1  0.27958166  0.83205596  0.37651283  1  0  -0.166371  0  3.710156  0  0  -0.183309  0  3.955896  0  0  -0.191965  0  3.97884  0  0  -0.086615  -0.177767  0  3.9405  0
C  C69  1  0.22042202  0.62348785  0.16794283  1  0  -0.166312  0  3.71018  0  0  -0.183244  0  3.955902  0  0  -0.191898  0  3.978845  0  0  -0.086666  -0.177699  0  3.940503  0
C  C70  1  0.68749726  0.05809396  0.63964323  1  0  0.105494  0  3.78158  0  0  0.1179  0  4.007531  0  0  0.122642  0  4.03078  0  0  0.009864  0.114972  0  3.99167  0
C  C71  1  0.81250178  0.36035484  0.94190342  1  0  0.105427  0  3.781812  0  0  0.11793  0  4.007638  0  0  0.122671  0  4.03089  0  0  0.009906  0.114998  0  3.991778  0
C  C72  1  0.31249965  0.94190554  0.36035845  1  0  0.105455  0  3.781761  0  0  0.117851  0  4.007726  0  0  0.122593  0  4.030977  0  0  0.009838  0.114918  0  3.991871  0
C  C73  1  0.18750206  0.63964212  0.05809587  1  0  0.105474  0  3.781762  0  0  0.117888  0  4.007701  0  0  0.122631  0  4.030949  0  0  0.009876  0.114952  0  3.991849  0
C  C74  1  0.52303277  0.05302866  0.64328002  1  0  -0.184758  0  3.733034  0  0  -0.199725  0  3.973928  0  0  -0.20841  0  3.996141  0  0  -0.091519  -0.194099  0  3.95889  0
C  C75  1  0.97696389  0.35671843  0.94697418  1  0  -0.184717  0  3.732969  0  0  -0.199708  0  3.973828  0  0  -0.208392  0  3.996038  0  0  -0.091525  -0.194093  0  3.958801  0
C  C76  1  0.47696366  0.94697601  0.35672065  1  0  -0.184717  0  3.732953  0  0  -0.19966  0  3.973816  0  0  -0.208345  0  3.996025  0  0  -0.091498  -0.194041  0  3.958786  0
C  C77  1  0.02303781  0.64327764  0.05302734  1  0  -0.18474  0  3.733035  0  0  -0.199703  0  3.973909  0  0  -0.208387  0  3.996122  0  0  -0.091567  -0.194087  0  3.958883  0
C  C78  1  0.40278011  0.15481665  0.63105150  1  0  0.135113  0  3.745736  0  0  0.105394  0  4.002973  0  0  0.112163  0  4.019506  0  0  0.045629  0.101123  0  3.991666  0
C  C79  1  0.09722131  0.36894566  0.84518497  1  0  0.135067  0  3.745759  0  0  0.105341  0  4.002986  0  0  0.112118  0  4.019524  0  0  0.045654  0.10109  0  3.991666  0
C  C80  1  0.59722081  0.84518549  0.36894641  1  0  0.135025  0  3.745799  0  0  0.105295  0  4.003027  0  0  0.112074  0  4.019566  0  0  0.045647  0.101036  0  3.991708  0
C  C81  1  0.90278256  0.63105125  0.15481843  1  0  0.135034  0  3.745798  0  0  0.10531  0  4.003042  0  0  0.112078  0  4.019576  0  0  0.04564  0.101042  0  3.99173  0
N  N82  1  0.43610638  0.25998101  0.61354747  1  0  -0.38738  0  3.221522  0  0  -0.328992  0  3.4762  0  0  -0.342036  0  3.491604  0  0  -0.346272  -0.320285  0  3.46574  0
N  N83  1  0.06389642  0.38645071  0.74001970  1  0  -0.387481  0  3.221594  0  0  -0.329097  0  3.476267  0  0  -0.342141  0  3.49167  0  0  -0.346324  -0.320393  0  3.465801  0
N  N84  1  0.56389819  0.74002115  0.38644976  1  0  -0.387452  0  3.221583  0  0  -0.329096  0  3.476273  0  0  -0.342135  0  3.491668  0  0  -0.346335  -0.320387  0  3.465804  0
N  N85  1  0.93610686  0.61354797  0.25998015  1  0  -0.387385  0  3.221581  0  0  -0.329008  0  3.476233  0  0  -0.342048  0  3.491635  0  0  -0.34629  -0.3203  0  3.465764  0
O  O86  1  0.09456276  0.58101400  0.54332433  1  0  -0.705294  0  2.065173  0  0  -0.651884  0  2.316796  0  0  -0.673985  0  2.303174  0  0  -0.350412  -0.636526  0  2.325819  0
O  O87  1  0.40543332  0.45667762  0.41898067  1  0  -0.70524  0  2.065229  0  0  -0.651869  0  2.316891  0  0  -0.673966  0  2.303267  0  0  -0.350378  -0.636514  0  2.325915  0
O  O88  1  0.90543929  0.41898469  0.45667411  1  0  -0.705082  0  2.065441  0  0  -0.651676  0  2.31714  0  0  -0.673762  0  2.303513  0  0  -0.350384  -0.636325  0  2.326164  0
O  O89  1  0.59456063  0.54332714  0.58101308  1  0  -0.705185  0  2.065383  0  0  -0.651776  0  2.31706  0  0  -0.673863  0  2.303429  0  0  -0.35041  -0.636425  0  2.326088  0
O  O90  1  0.85139282  0.67428159  0.49263484  1  0  -0.72284  0  2.078027  0  0  -0.67186  0  2.330795  0  0  -0.694436  0  2.317649  0  0  -0.349215  -0.656081  0  2.339281  0
O  O91  1  0.64860691  0.50736532  0.32571739  1  0  -0.722866  0  2.077862  0  0  -0.671897  0  2.330615  0  0  -0.69448  0  2.31748  0  0  -0.34924  -0.656115  0  2.339097  0
O  O92  1  0.14860993  0.32571873  0.50737131  1  0  -0.72276  0  2.077787  0  0  -0.671686  0  2.330568  0  0  -0.694277  0  2.317434  0  0  -0.34911  -0.655905  0  2.339046  0
O  O93  1  0.35138840  0.49263164  0.67428021  1  0  -0.722823  0  2.077908  0  0  -0.671761  0  2.330691  0  0  -0.69435  0  2.317553  0  0  -0.349137  -0.655979  0  2.33917  0
