# generated using pymatgen
data_CuH10C4(ClO2)2
_symmetry_space_group_name_H-M   'P 1'
_cell_length_a   6.32226089
_cell_length_b   7.44264927
_cell_length_c   9.54046059
_cell_angle_alpha   104.61491968
_cell_angle_beta   105.88076709
_cell_angle_gamma   99.34957119
_symmetry_Int_Tables_number   1
_chemical_formula_structural   CuH10C4(ClO2)2
_chemical_formula_sum   'Cu2 H20 C8 Cl4 O8'
_cell_volume   404.68399014
_cell_formula_units_Z   2
loop_
 _symmetry_equiv_pos_site_id
 _symmetry_equiv_pos_as_xyz
  1  'x, y, z'
loop_
 _atom_site_type_symbol
 _atom_site_label
 _atom_site_symmetry_multiplicity
 _atom_site_fract_x
 _atom_site_fract_y
 _atom_site_fract_z
 _atom_site_occupancy
 _atom_site_hle17_ddec_charge
 _atom_site_hle17_ddec_spin_density
 _atom_site_hle17_ddec_sum_bond_order
 _atom_site_hle17_magmom
 _atom_site_hse06_10hf_ddec_charge
 _atom_site_hse06_10hf_ddec_spin_density
 _atom_site_hse06_10hf_ddec_sum_bond_order
 _atom_site_hse06_10hf_magmom
 _atom_site_hse06_ddec_charge
 _atom_site_hse06_ddec_spin_density
 _atom_site_hse06_ddec_sum_bond_order
 _atom_site_hse06_magmom
 _atom_site_pbe_cm5_charge
 _atom_site_pbe_ddec_charge
 _atom_site_pbe_ddec_spin_density
 _atom_site_pbe_ddec_sum_bond_order
 _atom_site_pbe_magmom
Cu  Cu0  1  0.28569341  0.14339223  0.09974307  1  0.846112  -0.645333  1.816554  -0.479  0.857675  -0.75957  2.211566  -0.613  0.962096  -0.825532  2.119254  -0.702  0.556281  0.796054  -0.716585  2.270705  -0.56
Cu  Cu1  1  0.71431140  0.85661238  0.90025832  1  0.846116  -0.645332  1.81656  -0.479  0.857691  -0.759587  2.211563  -0.613  0.962091  -0.825538  2.119264  -0.702  0.55629  0.796053  -0.716593  2.270696  -0.56
H  H2  1  0.27918073  0.52609807  0.89981395  1  0.060863  -0.001312  0.93606  -0.001  0.073539  -0.001283  0.997283  -0.001  0.074739  -0.000948  0.995635  -0.001  0.105865  0.072567  -0.001519  0.99879  -0.002
H  H3  1  0.72082431  0.47389645  0.10018134  1  0.060741  -0.00131  0.936173  -0.001  0.073503  -0.001284  0.997301  -0.001  0.074704  -0.000948  0.995651  -0.001  0.105848  0.072531  -0.001519  0.99882  -0.002
H  H4  1  0.40041620  0.69171329  0.19324660  1  0.083743  -0.002607  0.949426  -0.004  0.097351  -0.002203  1.011296  -0.003  0.098757  -0.001483  1.009283  -0.002  0.096954  0.096626  -0.002781  1.01247  -0.004
H  H5  1  0.59958275  0.30828840  0.80674689  1  0.083724  -0.002607  0.949426  -0.004  0.097336  -0.002203  1.01131  -0.003  0.098744  -0.001483  1.0093  -0.002  0.096949  0.09661  -0.002782  1.012481  -0.004
H  H6  1  0.13181081  0.52014598  0.10581909  1  0.061509  -0.00085  0.948426  -0.001  0.072744  -0.000544  1.019275  -0.001  0.07328  -0.000261  1.018284  0.0  0.093947  0.072523  -0.000852  1.019906  -0.001
H  H7  1  0.86819055  0.47985283  0.89417323  1  0.061552  -0.000849  0.948475  -0.001  0.07279  -0.000544  1.019339  -0.001  0.073332  -0.000261  1.018343  0.0  0.093952  0.072563  -0.000852  1.019973  -0.001
H  H8  1  0.18110784  0.21907231  0.82980393  1  0.394457  9.4e-05  0.902825  0.0  0.368  -0.000274  0.973724  -0.001  0.380112  -9.2e-05  0.961028  0.0  0.302789  0.359747  -0.000418  0.98174  -0.001
H  H9  1  0.81888786  0.78092373  0.17019629  1  0.394297  9.3e-05  0.903054  0.0  0.36791  -0.000274  0.973842  -0.001  0.380021  -9.2e-05  0.961153  0.0  0.302758  0.359651  -0.000419  0.98186  -0.001
H  H10  1  0.34713172  0.46390210  0.32080357  1  0.383709  0.000381  0.909471  0.001  0.358849  -0.000234  0.979248  0.0  0.370923  -5e-05  0.967802  0.0  0.300262  0.350432  -0.000399  0.987151  0.0
H  H11  1  0.65286485  0.53610250  0.67919426  1  0.383735  0.000382  0.909452  0.001  0.358895  -0.000234  0.979189  0.0  0.370967  -4.9e-05  0.967744  0.0  0.300292  0.350474  -0.000399  0.987097  0.0
H  H12  1  0.63748443  0.32033648  0.46455047  1  0.364507  0.000286  0.911884  0.0  0.3395  4e-06  0.989534  0.0  0.34978  4.7e-05  0.977613  0.0  0.275163  0.332501  -5.6e-05  0.997618  0.0
H  H13  1  0.36251167  0.67966097  0.53544799  1  0.364575  0.000286  0.911803  0.0  0.339551  3e-06  0.989476  0.0  0.349833  4.7e-05  0.977556  0.0  0.275188  0.332551  -5.6e-05  0.997562  0.0
H  H14  1  0.85041610  0.11865096  0.64994713  1  0.364274  0.000115  0.909473  0.0  0.342363  -0.000173  0.981742  0.0  0.352455  -0.000108  0.969854  0.0  0.279235  0.335354  -0.000231  0.990066  0.0
H  H15  1  0.14957721  0.88134799  0.35005637  1  0.364276  0.000115  0.90943  0.0  0.34237  -0.000173  0.98169  0.0  0.352464  -0.000108  0.969793  0.0  0.27925  0.335356  -0.000231  0.990021  0.0
H  H16  1  0.06721592  0.55806013  0.67531037  1  0.055297  -0.001707  0.930181  -0.001  0.068943  -0.00136  0.991472  -0.001  0.069339  -0.00096  0.991474  0.0  0.100506  0.068703  -0.001687  0.991659  -0.001
H  H17  1  0.93277612  0.44194021  0.32468898  1  0.055297  -0.001704  0.930145  -0.001  0.068885  -0.00136  0.991511  -0.001  0.069277  -0.00096  0.991511  0.0  0.100496  0.068647  -0.001687  0.991704  -0.001
H  H18  1  0.92397805  0.15768167  0.43600308  1  0.064997  -0.000298  0.945421  0.0  0.074879  -0.000295  1.017051  0.0  0.075932  -0.00018  1.015675  0.0  0.096097  0.074417  -0.000396  1.017607  0.0
H  H19  1  0.07602590  0.84231438  0.56400174  1  0.065034  -0.000297  0.945367  0.0  0.074965  -0.000295  1.016971  0.0  0.076019  -0.00018  1.015594  0.0  0.096139  0.074504  -0.000396  1.017522  0.0
H  H20  1  0.20777811  0.28025348  0.55289598  1  0.07938  -6.5e-05  0.925315  0.0  0.091196  -0.000137  0.988533  0.0  0.092587  -8.5e-05  0.986903  0.0  0.102701  0.090088  -0.000162  0.989937  0.0
H  H21  1  0.79222433  0.71974836  0.44711494  1  0.079481  -6.4e-05  0.925311  0.0  0.091283  -0.000137  0.988573  0.0  0.092679  -8.5e-05  0.986932  0.0  0.102739  0.090166  -0.000162  0.989998  0.0
C  C22  1  0.37261751  0.46982325  0.98710513  1  0.165529  -0.001515  3.57333  -0.001  0.139176  -0.002197  3.819673  -0.002  0.14526  -0.001231  3.830064  -0.001  -0.01447  0.135053  -0.002999  3.812888  -0.002
C  C23  1  0.62738590  0.53017127  0.01288988  1  0.165694  -0.001526  3.573312  -0.001  0.139288  -0.002197  3.819678  -0.002  0.145377  -0.00123  3.830067  -0.001  -0.014367  0.135158  -0.002999  3.812908  -0.002
C  C24  1  0.31592398  0.53978123  0.13191628  1  0.058336  -0.000704  3.601203  0.0  -0.006305  -0.002572  3.870907  -0.002  0.002021  -0.001273  3.875915  -0.001  -0.093074  -0.011983  -0.003703  3.867373  -0.003
C  C25  1  0.68408153  0.46022044  0.86807838  1  0.058388  -0.000708  3.601312  0.0  -0.006312  -0.002569  3.871076  -0.002  0.002004  -0.001274  3.876093  -0.001  -0.093072  -0.011985  -0.003703  3.867536  -0.003
C  C26  1  0.97099682  0.45680382  0.55993003  1  0.154511  -0.00214  3.586173  -0.002  0.12439  -0.001862  3.84319  -0.002  0.128758  -0.001181  3.854102  -0.002  -0.010805  0.121428  -0.002537  3.835662  -0.003
C  C27  1  0.02900138  0.54319509  0.44007223  1  0.154474  -0.002152  3.586136  -0.002  0.124396  -0.001862  3.843174  -0.002  0.128774  -0.001181  3.854082  -0.002  -0.010788  0.121438  -0.002536  3.835641  -0.003
C  C28  1  0.02978798  0.26385733  0.54711150  1  0.073472  -0.000249  3.615613  0.0  0.008479  -0.000414  3.888213  0.0  0.015804  -0.00022  3.891783  0.0  -0.083191  0.00341  -0.000677  3.885782  -0.001
C  C29  1  0.97020784  0.73614450  0.45289509  1  0.073409  -0.000251  3.615573  0.0  0.00832  -0.000414  3.888292  0.0  0.015645  -0.00022  3.891861  0.0  -0.08329  0.003253  -0.000677  3.885873  -0.001
Cl  Cl30  1  0.41919283  0.05892844  0.31354168  1  -0.499605  -0.108442  1.025714  -0.132  -0.492988  -0.067119  1.305956  -0.086  -0.525457  -0.049078  1.277137  -0.069  -0.245681  -0.474415  -0.077559  1.32696  -0.094
Cl  Cl31  1  0.58079636  0.94107336  0.68645849  1  -0.499609  -0.108444  1.025677  -0.132  -0.493019  -0.067118  1.305971  -0.086  -0.52549  -0.049079  1.277167  -0.069  -0.24568  -0.474443  -0.077559  1.326963  -0.094
Cl  Cl32  1  0.15299364  0.85157654  0.92474367  1  -0.50703  -0.131838  1.04797  -0.163  -0.537671  -0.076195  1.381571  -0.102  -0.581135  -0.052711  1.352554  -0.078  -0.275771  -0.513481  -0.090877  1.403268  -0.114
Cl  Cl33  1  0.84700537  0.14842520  0.07525509  1  -0.507024  -0.131837  1.047961  -0.163  -0.537677  -0.076192  1.381571  -0.102  -0.581127  -0.05271  1.352537  -0.078  -0.275783  -0.513489  -0.090871  1.403272  -0.114
O  O34  1  0.30394504  0.26330034  0.93394609  1  -0.569694  -0.043382  2.235895  -0.059  -0.517641  -0.036076  2.498944  -0.053  -0.551294  -0.028628  2.488779  -0.046  -0.39855  -0.495641  -0.04072  2.505891  -0.057
O  O35  1  0.69606208  0.73669561  0.06604984  1  -0.569617  -0.043375  2.235978  -0.059  -0.517586  -0.036073  2.498973  -0.053  -0.551236  -0.028626  2.488808  -0.046  -0.398574  -0.495574  -0.040715  2.505918  -0.057
O  O36  1  0.39530817  0.42366533  0.22657806  1  -0.542843  -0.057852  2.221414  -0.078  -0.492551  -0.045497  2.490758  -0.066  -0.528359  -0.035126  2.482061  -0.056  -0.405597  -0.469089  -0.052555  2.497454  -0.073
O  O37  1  0.60469455  0.57633783  0.77342164  1  -0.542915  -0.057853  2.221528  -0.078  -0.492609  -0.045498  2.490868  -0.066  -0.528406  -0.035127  2.482172  -0.056  -0.405623  -0.469135  -0.052559  2.497551  -0.073
O  O38  1  0.73517545  0.44151794  0.54431452  1  -0.552618  -0.001979  2.140345  -0.003  -0.492728  -0.001433  2.354015  -0.002  -0.51043  -0.000651  2.343154  -0.001  -0.386646  -0.479858  -0.002364  2.360943  -0.003
O  O39  1  0.26481699  0.55848382  0.45568308  1  -0.552651  -0.001978  2.140349  -0.003  -0.492728  -0.001433  2.354014  -0.002  -0.510432  -0.000651  2.34314  -0.001  -0.38663  -0.479863  -0.002364  2.360943  -0.003
O  O40  1  0.00552336  0.19374461  0.67030454  1  -0.538948  -0.000597  2.172151  -0.001  -0.477233  -0.000562  2.391969  -0.001  -0.495211  -0.000249  2.380425  0.0  -0.396057  -0.46446  -0.00092  2.399226  -0.001
O  O41  1  0.99447379  0.80626154  0.32970627  1  -0.538936  -0.000596  2.172138  -0.001  -0.477219  -0.000562  2.391993  -0.001  -0.495198  -0.000249  2.380445  0.0  -0.396049  -0.464443  -0.000921  2.399254  -0.001
