# generated using pymatgen
data_CdH3C2SN3Cl2
_symmetry_space_group_name_H-M   'P 1'
_cell_length_a   7.24320692
_cell_length_b   7.71195790
_cell_length_c   12.60334210
_cell_angle_alpha   96.54728087
_cell_angle_beta   89.99999090
_cell_angle_gamma   89.99990364
_symmetry_Int_Tables_number   1
_chemical_formula_structural   CdH3C2SN3Cl2
_chemical_formula_sum   'Cd4 H12 C8 S4 N12 Cl8'
_cell_volume   699.42244645
_cell_formula_units_Z   4
loop_
 _symmetry_equiv_pos_site_id
 _symmetry_equiv_pos_as_xyz
  1  'x, y, z'
loop_
 _atom_site_type_symbol
 _atom_site_label
 _atom_site_symmetry_multiplicity
 _atom_site_fract_x
 _atom_site_fract_y
 _atom_site_fract_z
 _atom_site_occupancy
 _atom_site_hle17_bader_spin_density
 _atom_site_hle17_ddec_charge
 _atom_site_hle17_ddec_spin_density
 _atom_site_hle17_ddec_sum_bond_order
 _atom_site_hle17_magmom
 _atom_site_hse06_10hf_bader_spin_density
 _atom_site_hse06_10hf_ddec_charge
 _atom_site_hse06_10hf_ddec_spin_density
 _atom_site_hse06_10hf_ddec_sum_bond_order
 _atom_site_hse06_10hf_magmom
 _atom_site_hse06_bader_spin_density
 _atom_site_hse06_ddec_charge
 _atom_site_hse06_ddec_spin_density
 _atom_site_hse06_ddec_sum_bond_order
 _atom_site_hse06_magmom
 _atom_site_pbe_bader_spin_density
 _atom_site_pbe_cm5_charge
 _atom_site_pbe_ddec_charge
 _atom_site_pbe_ddec_spin_density
 _atom_site_pbe_ddec_sum_bond_order
 _atom_site_pbe_magmom
Cd  Cd0  1  0.83210905  0.26344170  0.25321732  1  0  0.952967  0  1.963693  0  0  0.786942  0  2.421539  0  0  0.832948  0  2.381715  0  0  0.602578  0.75449  0  2.448596  0
Cd  Cd1  1  0.33210679  0.23656005  0.24678146  1  0  0.952976  0  1.963752  0  0  0.786966  0  2.421609  0  0  0.832973  0  2.381782  0  0  0.602599  0.754516  0  2.448665  0
Cd  Cd2  1  0.16789172  0.73655902  0.74678329  1  0  0.952944  0  1.963731  0  0  0.786911  0  2.421591  0  0  0.832927  0  2.381748  0  0  0.602561  0.75446  0  2.448642  0
Cd  Cd3  1  0.66788846  0.76344458  0.75321861  1  0  0.95302  0  1.963653  0  0  0.787012  0  2.421501  0  0  0.833021  0  2.381668  0  0  0.60261  0.754558  0  2.448561  0
H  H4  1  0.17077919  0.15048668  0.01030047  1  0  0.325718  0  0.919439  0  0  0.308721  0  0.987757  0  0  0.315689  0  0.982457  0  0  0.278102  0.30375  0  0.991572  0
H  H5  1  0.67077156  0.34951532  0.48969754  1  0  0.325574  0  0.919591  0  0  0.308589  0  0.987896  0  0  0.315556  0  0.982602  0  0  0.277975  0.303616  0  0.991711  0
H  H6  1  0.82922296  0.84951400  0.98969775  1  0  0.325699  0  0.919436  0  0  0.308715  0  0.987729  0  0  0.315679  0  0.98244  0  0  0.278114  0.303745  0  0.991541  0
H  H7  1  0.32922093  0.65048407  0.51030140  1  0  0.325698  0  0.919465  0  0  0.308714  0  0.987752  0  0  0.315678  0  0.982461  0  0  0.278104  0.303744  0  0.991565  0
H  H8  1  0.21996443  0.17555779  0.87878562  1  0  0.340061  0  0.883348  0  0  0.322852  0  0.948743  0  0  0.329618  0  0.943377  0  0  0.291847  0.318006  0  0.952684  0
H  H9  1  0.71995420  0.32444440  0.62121627  1  0  0.340086  0  0.883266  0  0  0.322873  0  0.948676  0  0  0.32964  0  0.943308  0  0  0.291825  0.318026  0  0.952619  0
H  H10  1  0.78004601  0.82444816  0.12121612  1  0  0.339952  0  0.883433  0  0  0.322804  0  0.948765  0  0  0.329565  0  0.943409  0  0  0.291812  0.317959  0  0.952706  0
H  H11  1  0.28004519  0.67555373  0.37878576  1  0  0.339949  0  0.883431  0  0  0.322807  0  0.948759  0  0  0.329563  0  0.943408  0  0  0.291825  0.317961  0  0.952701  0
H  H12  1  0.88765745  0.36119642  0.99314133  1  0  0.133823  0  0.936494  0  0  0.140695  0  1.002773  0  0  0.143373  0  0.999917  0  0  0.122147  0.138671  0  1.004952  0
H  H13  1  0.38765682  0.13881188  0.50685220  1  0  0.133827  0  0.936425  0  0  0.140706  0  1.002706  0  0  0.143384  0  0.999848  0  0  0.122181  0.13868  0  1.004887  0
H  H14  1  0.11234470  0.63881080  0.00685811  1  0  0.133783  0  0.936528  0  0  0.140693  0  1.002778  0  0  0.143372  0  0.999922  0  0  0.122182  0.138667  0  1.004959  0
H  H15  1  0.61234672  0.86119005  0.49314293  1  0  0.133826  0  0.936506  0  0  0.140715  0  1.002768  0  0  0.143392  0  0.999912  0  0  0.122183  0.138691  0  1.00495  0
C  C16  1  0.74412729  0.32467050  0.00178711  1  0  0.023461  0  3.650882  0  0  -0.022877  0  3.949317  0  0  -0.010847  0  3.956954  0  0  0.044472  -0.030811  0  3.944041  0
C  C17  1  0.24411954  0.17533267  0.49821018  1  0  0.02361  0  3.65059  0  0  -0.022712  0  3.948967  0  0  -0.010678  0  3.956599  0  0  0.044629  -0.030653  0  3.943705  0
C  C18  1  0.25587762  0.67533411  0.99821216  1  0  0.023592  0  3.650568  0  0  -0.02279  0  3.949005  0  0  -0.010759  0  3.956641  0  0  0.044542  -0.030725  0  3.943734  0
C  C19  1  0.75587433  0.82466280  0.50178851  1  0  0.023536  0  3.650741  0  0  -0.022814  0  3.949165  0  0  -0.010779  0  3.956796  0  0  0.044538  -0.030742  0  3.943866  0
C  C20  1  0.42577926  0.24463376  0.98512960  1  0  0.395722  0  3.808417  0  0  0.359744  0  4.10944  0  0  0.380485  0  4.121716  0  0  0.235901  0.345909  0  4.100704  0
C  C21  1  0.92577747  0.25536272  0.51486238  1  0  0.395757  0  3.808749  0  0  0.359783  0  4.109743  0  0  0.380521  0  4.122022  0  0  0.235924  0.345948  0  4.101006  0
C  C22  1  0.57422013  0.75536559  0.01486696  1  0  0.395557  0  3.808507  0  0  0.359589  0  4.109546  0  0  0.380329  0  4.121823  0  0  0.235864  0.345755  0  4.100812  0
C  C23  1  0.07421778  0.74463533  0.48513409  1  0  0.395708  0  3.8087  0  0  0.359761  0  4.10969  0  0  0.380497  0  4.121964  0  0  0.23598  0.345926  0  4.100954  0
S  S24  1  0.59164636  0.30628445  0.89682949  1  0  0.156109  0  2.54476  0  0  0.160172  0  2.891662  0  0  0.15902  0  2.890052  0  0  0.12456  0.160123  0  2.893208  0
S  S25  1  0.09163870  0.19370875  0.60316786  1  0  0.156124  0  2.544582  0  0  0.160153  0  2.891498  0  0  0.159002  0  2.889887  0  0  0.12452  0.160104  0  2.893043  0
S  S26  1  0.40836407  0.69371369  0.10317333  1  0  0.156131  0  2.544548  0  0  0.160181  0  2.891471  0  0  0.159029  0  2.88986  0  0  0.124517  0.160129  0  2.893024  0
S  S27  1  0.90835655  0.80628018  0.39682962  1  0  0.15609  0  2.544742  0  0  0.160125  0  2.89165  0  0  0.158976  0  2.890039  0  0  0.124508  0.160075  0  2.893201  0
N  N28  1  0.67322087  0.28736820  0.09146458  1  0  -0.191799  0  3.330151  0  0  -0.13336  0  3.606998  0  0  -0.147081  0  3.629372  0  0  -0.244759  -0.123981  0  3.591614  0
N  N29  1  0.17321170  0.21263377  0.40853185  1  0  -0.19189  0  3.329956  0  0  -0.133483  0  3.606829  0  0  -0.147206  0  3.629201  0  0  -0.244924  -0.124103  0  3.591445  0
N  N30  1  0.32678266  0.71263641  0.90853469  1  0  -0.191843  0  3.329862  0  0  -0.133405  0  3.60674  0  0  -0.147128  0  3.629113  0  0  -0.244822  -0.124023  0  3.591351  0
N  N31  1  0.82677803  0.78736298  0.59146534  1  0  -0.191779  0  3.329942  0  0  -0.133359  0  3.606806  0  0  -0.147085  0  3.629175  0  0  -0.244791  -0.123976  0  3.591424  0
N  N32  1  0.49062776  0.24342507  0.08407596  1  0  -0.358093  0  3.189475  0  0  -0.29855  0  3.469816  0  0  -0.320206  0  3.490333  0  0  -0.267168  -0.283812  0  3.455341  0
N  N33  1  0.99061755  0.25657659  0.41593391  1  0  -0.358159  0  3.189882  0  0  -0.298576  0  3.470162  0  0  -0.320226  0  3.490674  0  0  -0.267172  -0.28384  0  3.455685  0
N  N34  1  0.50937854  0.75657701  0.91592791  1  0  -0.358077  0  3.189587  0  0  -0.298543  0  3.469925  0  0  -0.3202  0  3.490447  0  0  -0.26718  -0.283805  0  3.455446  0
N  N35  1  0.00937632  0.74342285  0.58406820  1  0  -0.358174  0  3.18975  0  0  -0.298574  0  3.469956  0  0  -0.320246  0  3.490525  0  0  -0.267218  -0.283839  0  3.455476  0
N  N36  1  0.24948308  0.20997442  0.95727962  1  0  -0.637632  0  3.129087  0  0  -0.604928  0  3.367143  0  0  -0.62586  0  3.36633  0  0  -0.576469  -0.590413  0  3.367485  0
N  N37  1  0.74948260  0.29001858  0.54272088  1  0  -0.637566  0  3.129024  0  0  -0.60488  0  3.367076  0  0  -0.625813  0  3.366264  0  0  -0.576335  -0.590364  0  3.367419  0
N  N38  1  0.75052460  0.79002493  0.04271694  1  0  -0.637431  0  3.128957  0  0  -0.604793  0  3.366934  0  0  -0.62572  0  3.36614  0  0  -0.576403  -0.590275  0  3.367277  0
N  N39  1  0.25051679  0.70997180  0.45728541  1  0  -0.637497  0  3.129056  0  0  -0.604887  0  3.367025  0  0  -0.625802  0  3.366238  0  0  -0.57648  -0.59037  0  3.367368  0
Cl  Cl40  1  0.09139138  0.49012888  0.21221705  1  0  -0.573699  0  1.001723  0  0  -0.511965  0  1.289721  0  0  -0.531285  0  1.270372  0  0  -0.314414  -0.497876  0  1.302948  0
Cl  Cl41  1  0.59138855  0.00987586  0.28778115  1  0  -0.573724  0  1.001754  0  0  -0.51199  0  1.289739  0  0  -0.531309  0  1.27039  0  0  -0.31442  -0.497902  0  1.302965  0
Cl  Cl42  1  0.90860939  0.50987833  0.78778160  1  0  -0.573711  0  1.001732  0  0  -0.511972  0  1.289705  0  0  -0.531289  0  1.270356  0  0  -0.314412  -0.497886  0  1.30293  0
Cl  Cl43  1  0.40860532  0.99012613  0.71221716  1  0  -0.573711  0  1.001746  0  0  -0.511986  0  1.289741  0  0  -0.531304  0  1.270392  0  0  -0.314416  -0.497898  0  1.302965  0
Cl  Cl44  1  0.06878716  0.02803930  0.16029920  1  0  -0.56662  0  1.040256  0  0  -0.507432  0  1.330276  0  0  -0.525842  0  1.310604  0  0  -0.296796  -0.494046  0  1.343744  0
Cl  Cl45  1  0.56878627  0.47196417  0.33969891  1  0  -0.566638  0  1.040259  0  0  -0.507459  0  1.33028  0  0  -0.52587  0  1.31061  0  0  -0.296806  -0.494061  0  1.343724  0
Cl  Cl46  1  0.93121499  0.97196658  0.83969777  1  0  -0.56663  0  1.040218  0  0  -0.507441  0  1.330212  0  0  -0.52585  0  1.310542  0  0  -0.296806  -0.494056  0  1.343678  0
Cl  Cl47  1  0.43121036  0.52803524  0.66030161  1  0  -0.566629  0  1.040209  0  0  -0.507443  0  1.330205  0  0  -0.525853  0  1.310535  0  0  -0.296809  -0.494054  0  1.343659  0
