# generated using pymatgen
data_KH9(C3O4)2
_symmetry_space_group_name_H-M   'P 1'
_cell_length_a   4.75942901
_cell_length_b   8.83734535
_cell_length_c   10.98039231
_cell_angle_alpha   89.99983144
_cell_angle_beta   90.00100707
_cell_angle_gamma   91.55972930
_symmetry_Int_Tables_number   1
_chemical_formula_structural   KH9(C3O4)2
_chemical_formula_sum   'K2 H18 C12 O16'
_cell_volume   461.67206602
_cell_formula_units_Z   2
loop_
 _symmetry_equiv_pos_site_id
 _symmetry_equiv_pos_as_xyz
  1  'x, y, z'
loop_
 _atom_site_type_symbol
 _atom_site_label
 _atom_site_symmetry_multiplicity
 _atom_site_fract_x
 _atom_site_fract_y
 _atom_site_fract_z
 _atom_site_occupancy
 _atom_site_hle17_bader_spin_density
 _atom_site_hle17_ddec_charge
 _atom_site_hle17_ddec_spin_density
 _atom_site_hle17_ddec_sum_bond_order
 _atom_site_hle17_magmom
 _atom_site_hse06_10hf_bader_spin_density
 _atom_site_hse06_10hf_ddec_charge
 _atom_site_hse06_10hf_ddec_spin_density
 _atom_site_hse06_10hf_ddec_sum_bond_order
 _atom_site_hse06_10hf_magmom
 _atom_site_hse06_bader_spin_density
 _atom_site_hse06_ddec_charge
 _atom_site_hse06_ddec_spin_density
 _atom_site_hse06_ddec_sum_bond_order
 _atom_site_hse06_magmom
 _atom_site_pbe_bader_spin_density
 _atom_site_pbe_cm5_charge
 _atom_site_pbe_ddec_charge
 _atom_site_pbe_ddec_spin_density
 _atom_site_pbe_ddec_sum_bond_order
 _atom_site_pbe_magmom
K  K0  1  0.65272962  0.35088177  0.83792382  1  0  0.943482  0  0.376922  0  0  0.900322  0  0.539194  0  0  0.915602  0  0.51539  0  0  0.706838  0.888278  0  0.557029  0
K  K1  1  0.34730849  0.64912288  0.33792650  1  0  0.943465  0  0.376988  0  0  0.900306  0  0.539262  0  0  0.915589  0  0.515457  0  0  0.706824  0.888265  0  0.557098  0
H  H2  1  0.92445724  0.86645931  0.51861411  1  0  0.382172  0  0.915095  0  0  0.349416  0  0.996868  0  0  0.361645  0  0.984037  0  0  0.308971  0.340744  0  1.005885  0
H  H3  1  0.07554006  0.13353604  0.01861785  1  0  0.382221  0  0.915006  0  0  0.349507  0  0.996717  0  0  0.361738  0  0.98388  0  0  0.309011  0.340832  0  1.00574  0
H  H4  1  0.17168268  0.95574143  0.65733298  1  0  0.395854  0  0.849831  0  0  0.370526  0  0.91899  0  0  0.380547  0  0.907266  0  0  0.322243  0.3636  0  0.92705  0
H  H5  1  0.82831386  0.04425125  0.15733534  1  0  0.395803  0  0.8499  0  0  0.370536  0  0.918977  0  0  0.380515  0  0.907297  0  0  0.322234  0.363606  0  0.92704  0
H  H6  1  0.57700749  0.91215824  0.75110171  1  0  0.377206  0  0.906043  0  0  0.353111  0  0.977725  0  0  0.362996  0  0.966589  0  0  0.300824  0.346096  0  0.985602  0
H  H7  1  0.42299298  0.08783643  0.25110363  1  0  0.377247  0  0.90601  0  0  0.353153  0  0.977689  0  0  0.363036  0  0.966561  0  0  0.300844  0.346136  0  0.985565  0
H  H8  1  0.77300971  0.98887492  0.95466247  1  0  0.37579  0  0.868799  0  0  0.351527  0  0.93737  0  0  0.36256  0  0.924465  0  0  0.319708  0.343604  0  0.946878  0
H  H9  1  0.22698672  0.01112481  0.45466401  1  0  0.375806  0  0.868773  0  0  0.351536  0  0.937359  0  0  0.362573  0  0.924448  0  0  0.319704  0.343612  0  0.946877  0
H  H10  1  0.53729193  0.73968581  0.12226632  1  0  0.353879  0  0.945526  0  0  0.330752  0  1.02213  0  0  0.340211  0  1.011414  0  0  0.285969  0.324133  0  1.029554  0
H  H11  1  0.46270602  0.26032281  0.62226789  1  0  0.353919  0  0.945422  0  0  0.330788  0  1.022059  0  0  0.34025  0  1.011338  0  0  0.285949  0.324168  0  1.029485  0
H  H12  1  0.18337741  0.65076004  0.74631110  1  0  0.102847  0  0.897738  0  0  0.109214  0  0.959057  0  0  0.111503  0  0.957371  0  0  0.136059  0.107642  0  0.960273  0
H  H13  1  0.81662287  0.34923465  0.24631261  1  0  0.102839  0  0.897803  0  0  0.109201  0  0.959129  0  0  0.111489  0  0.957446  0  0  0.136063  0.107623  0  0.960349  0
H  H14  1  0.75437386  0.72006066  0.86156042  1  0  0.058216  0  0.973825  0  0  0.063971  0  1.04259  0  0  0.065778  0  1.041553  0  0  0.111856  0.062528  0  1.043554  0
H  H15  1  0.24561846  0.27993254  0.36155688  1  0  0.058194  0  0.973939  0  0  0.063915  0  1.042689  0  0  0.065718  0  1.041655  0  0  0.111864  0.062477  0  1.043645  0
H  H16  1  0.28024190  0.92023506  0.90208881  1  0  0.040896  0  0.932835  0  0  0.048737  0  0.998926  0  0  0.050822  0  0.995941  0  0  0.107731  0.047023  0  1.0014  0
H  H17  1  0.71975885  0.07976822  0.40208752  1  0  0.0409  0  0.932865  0  0  0.048744  0  0.998925  0  0  0.050829  0  0.99594  0  0  0.107713  0.047033  0  1.001395  0
H  H18  1  0.31023872  0.65289818  0.96471907  1  0  0.060917  0  0.932134  0  0  0.068674  0  0.998751  0  0  0.07103  0  0.996293  0  0  0.115371  0.066768  0  1.001031  0
H  H19  1  0.68975602  0.34710153  0.46471507  1  0  0.060934  0  0.932167  0  0  0.068655  0  0.998826  0  0  0.071015  0  0.996363  0  0  0.11538  0.066752  0  1.0011  0
C  C20  1  0.84498356  0.69368294  0.62859553  1  0  0.65257  0  3.748568  0  0  0.601523  0  4.05883  0  0  0.633153  0  4.050239  0  0  0.239999  0.579851  0  4.064267  0
C  C21  1  0.15502500  0.30632228  0.12859124  1  0  0.652282  0  3.748649  0  0  0.60129  0  4.058851  0  0  0.632919  0  4.050266  0  0  0.239931  0.579629  0  4.064268  0
C  C22  1  0.06523770  0.75151948  0.72135696  1  0  0.037843  0  3.631848  0  0  0.012574  0  3.882844  0  0  0.013661  0  3.890125  0  0  0.004313  0.011812  0  3.877782  0
C  C23  1  0.93475531  0.24847640  0.22135870  1  0  0.038033  0  3.631809  0  0  0.01271  0  3.882793  0  0  0.013797  0  3.890067  0  0  0.004376  0.011948  0  3.877728  0
C  C24  1  0.90056642  0.81050156  0.83084155  1  0  0.112563  0  3.634579  0  0  0.080804  0  3.892293  0  0  0.084991  0  3.902603  0  0  -0.01443  0.07783  0  3.885396  0
C  C25  1  0.09942070  0.18949739  0.33084442  1  0  0.112644  0  3.634718  0  0  0.081015  0  3.892228  0  0  0.085206  0  3.902538  0  0  -0.014465  0.078038  0  3.885327  0
C  C26  1  0.09148033  0.85990053  0.93707781  1  0  0.177624  0  3.513023  0  0  0.145063  0  3.767918  0  0  0.150762  0  3.776834  0  0  -0.000548  0.141205  0  3.762073  0
C  C27  1  0.90851728  0.14009473  0.43707962  1  0  0.177479  0  3.513192  0  0  0.144962  0  3.767909  0  0  0.150661  0  3.776824  0  0  -0.000543  0.141111  0  3.762055  0
C  C28  1  0.19144116  0.73271205  0.02042440  1  0  0.05407  0  3.626396  0  0  0.029658  0  3.880558  0  0  0.030759  0  3.887661  0  0  -0.011414  0.028815  0  3.876065  0
C  C29  1  0.80855206  0.26728441  0.52042037  1  0  0.054108  0  3.626459  0  0  0.029675  0  3.880617  0  0  0.030762  0  3.88775  0  0  -0.011437  0.028833  0  3.876121  0
C  C30  1  0.93641746  0.64174676  0.07322689  1  0  0.64296  0  3.909503  0  0  0.599345  0  4.210857  0  0  0.630763  0  4.203898  0  0  0.190144  0.577765  0  4.215527  0
C  C31  1  0.06358421  0.35824956  0.57323159  1  0  0.642933  0  3.909818  0  0  0.599347  0  4.211115  0  0  0.630768  0  4.204156  0  0  0.190275  0.577766  0  4.215787  0
O  O32  1  0.68990670  0.58665396  0.65648843  1  0  -0.540295  0  1.964271  0  0  -0.509836  0  2.204914  0  0  -0.530496  0  2.196872  0  0  -0.304753  -0.495445  0  2.210363  0
O  O33  1  0.31010279  0.41334666  0.15649506  1  0  -0.540131  0  1.964365  0  0  -0.509729  0  2.205071  0  0  -0.530387  0  2.197034  0  0  -0.304685  -0.495343  0  2.210511  0
O  O34  1  0.82166425  0.76363320  0.52090339  1  0  -0.575335  0  2.086535  0  0  -0.526856  0  2.30904  0  0  -0.547921  0  2.29282  0  0  -0.351434  -0.511695  0  2.319934  0
O  O35  1  0.17833324  0.23636440  0.02090400  1  0  -0.575349  0  2.086462  0  0  -0.526899  0  2.308907  0  0  -0.547962  0  2.292687  0  0  -0.351468  -0.511744  0  2.319803  0
O  O36  1  0.26620506  0.86081647  0.67734185  1  0  -0.540264  0  2.125321  0  0  -0.490715  0  2.342097  0  0  -0.506071  0  2.330932  0  0  -0.381851  -0.479812  0  2.349373  0
O  O37  1  0.73379036  0.13917954  0.17734416  1  0  -0.540296  0  2.125294  0  0  -0.490802  0  2.342042  0  0  -0.506113  0  2.330937  0  0  -0.381894  -0.479897  0  2.349319  0
O  O38  1  0.75159877  0.94331280  0.79568452  1  0  -0.576555  0  2.067198  0  0  -0.53368  0  2.293025  0  0  -0.549076  0  2.279421  0  0  -0.399597  -0.522791  0  2.302574  0
O  O39  1  0.24839570  0.05669418  0.29568702  1  0  -0.576593  0  2.067243  0  0  -0.533752  0  2.293031  0  0  -0.549152  0  2.279425  0  0  -0.399613  -0.522861  0  2.302582  0
O  O40  1  0.93596412  0.96811820  0.00779895  1  0  -0.549671  0  2.139442  0  0  -0.487337  0  2.351141  0  0  -0.505597  0  2.339079  0  0  -0.374016  -0.474295  0  2.359496  0
O  O41  1  0.06402868  0.03188056  0.50780082  1  0  -0.549644  0  2.139446  0  0  -0.487308  0  2.351131  0  0  -0.505573  0  2.339065  0  0  -0.374022  -0.474286  0  2.3595  0
O  O42  1  0.37031185  0.80220154  0.10924604  1  0  -0.561472  0  2.085076  0  0  -0.526546  0  2.31701  0  0  -0.540547  0  2.306131  0  0  -0.457417  -0.516625  0  2.324364  0
O  O43  1  0.62969571  0.19779921  0.60924448  1  0  -0.561488  0  2.085076  0  0  -0.526568  0  2.316991  0  0  -0.540563  0  2.30611  0  0  -0.457341  -0.516645  0  2.324343  0
O  O44  1  0.85727879  0.66905896  0.18188206  1  0  -0.71963  0  1.921692  0  0  -0.674982  0  2.151716  0  0  -0.697752  0  2.139999  0  0  -0.416118  -0.658846  0  2.15947  0
O  O45  1  0.14273258  0.33095969  0.68186465  1  0  -0.719417  0  1.922454  0  0  -0.674789  0  2.15248  0  0  -0.697552  0  2.140757  0  0  -0.416104  -0.658656  0  2.160238  0
O  O46  1  0.81738328  0.55131024  0.99904503  1  0  -0.705645  0  1.957194  0  0  -0.665265  0  2.203128  0  0  -0.689325  0  2.193026  0  0  -0.438423  -0.648178  0  2.209931  0
O  O47  1  0.18262599  0.44870069  0.49903421  1  0  -0.705909  0  1.95697  0  0  -0.665492  0  2.202788  0  0  -0.689559  0  2.192682  0  0  -0.438621  -0.648405  0  2.209597  0
