# generated using pymatgen
data_CdH7C8SN3O4
_symmetry_space_group_name_H-M   'P 1'
_cell_length_a   7.80559021
_cell_length_b   8.21583429
_cell_length_c   16.65914363
_cell_angle_alpha   90.00001743
_cell_angle_beta   90.00009135
_cell_angle_gamma   96.38483549
_symmetry_Int_Tables_number   1
_chemical_formula_structural   CdH7C8SN3O4
_chemical_formula_sum   'Cd4 H28 C32 S4 N12 O16'
_cell_volume   1061.71497104
_cell_formula_units_Z   4
loop_
 _symmetry_equiv_pos_site_id
 _symmetry_equiv_pos_as_xyz
  1  'x, y, z'
loop_
 _atom_site_type_symbol
 _atom_site_label
 _atom_site_symmetry_multiplicity
 _atom_site_fract_x
 _atom_site_fract_y
 _atom_site_fract_z
 _atom_site_occupancy
 _atom_site_hle17_bader_spin_density
 _atom_site_hle17_ddec_charge
 _atom_site_hle17_ddec_spin_density
 _atom_site_hle17_ddec_sum_bond_order
 _atom_site_hle17_magmom
 _atom_site_hse06_10hf_bader_spin_density
 _atom_site_hse06_10hf_ddec_charge
 _atom_site_hse06_10hf_ddec_spin_density
 _atom_site_hse06_10hf_ddec_sum_bond_order
 _atom_site_hse06_10hf_magmom
 _atom_site_hse06_bader_spin_density
 _atom_site_hse06_ddec_charge
 _atom_site_hse06_ddec_spin_density
 _atom_site_hse06_ddec_sum_bond_order
 _atom_site_hse06_magmom
 _atom_site_pbe_bader_spin_density
 _atom_site_pbe_cm5_charge
 _atom_site_pbe_ddec_charge
 _atom_site_pbe_ddec_spin_density
 _atom_site_pbe_ddec_sum_bond_order
 _atom_site_pbe_magmom
Cd  Cd0  1  0.62002320  0.05433926  0.64200862  1  0  1.053847  0  1.724265  0  0  0.86818  0  2.181691  0  0  0.922506  0  2.133066  0  0  0.70785  0.829733  0  2.214952  0
Cd  Cd1  1  0.87997704  0.94565547  0.14200349  1  0  1.053799  0  1.724237  0  0  0.868114  0  2.181663  0  0  0.922444  0  2.133048  0  0  0.707815  0.829664  0  2.214922  0
Cd  Cd2  1  0.37997207  0.94565628  0.35799220  1  0  1.05375  0  1.72426  0  0  0.868108  0  2.181694  0  0  0.922436  0  2.133073  0  0  0.707837  0.829662  0  2.21496  0
Cd  Cd3  1  0.12002335  0.05434004  0.85799193  1  0  1.053856  0  1.724223  0  0  0.8682  0  2.181646  0  0  0.922524  0  2.133023  0  0  0.707872  0.829754  0  2.214907  0
H  H4  1  0.67377985  0.67139076  0.75630808  1  0  0.343332  0  0.898025  0  0  0.322172  0  0.965012  0  0  0.330228  0  0.95839  0  0  0.302314  0.31647  0  0.969761  0
H  H5  1  0.82621726  0.32860656  0.25630762  1  0  0.343261  0  0.898134  0  0  0.322096  0  0.965132  0  0  0.33015  0  0.958512  0  0  0.30228  0.316394  0  0.969877  0
H  H6  1  0.32621700  0.32860722  0.24369334  1  0  0.343293  0  0.898097  0  0  0.322185  0  0.965027  0  0  0.330239  0  0.958406  0  0  0.302322  0.316479  0  0.969782  0
H  H7  1  0.17378004  0.67139510  0.74369380  1  0  0.343301  0  0.898074  0  0  0.322117  0  0.965089  0  0  0.330169  0  0.958471  0  0  0.302309  0.316417  0  0.969831  0
H  H8  1  0.53092671  0.64906766  0.67414474  1  0  0.340939  0  0.923602  0  0  0.316946  0  0.99581  0  0  0.326149  0  0.987478  0  0  0.293393  0.310434  0  1.00176  0
H  H9  1  0.96906853  0.35092713  0.17414499  1  0  0.340956  0  0.923768  0  0  0.31696  0  0.995954  0  0  0.326159  0  0.987633  0  0  0.293426  0.310448  0  1.001903  0
H  H10  1  0.46907383  0.35092908  0.32585548  1  0  0.340926  0  0.923729  0  0  0.316952  0  0.995891  0  0  0.326152  0  0.987564  0  0  0.293408  0.310439  0  1.001841  0
H  H11  1  0.03092946  0.64906962  0.82585704  1  0  0.341043  0  0.923652  0  0  0.317073  0  0.995798  0  0  0.326271  0  0.987474  0  0  0.29348  0.310562  0  1.001749  0
H  H12  1  0.80182978  0.45711067  0.80092865  1  0  0.339259  0  0.901314  0  0  0.320544  0  0.966495  0  0  0.328151  0  0.960077  0  0  0.305677  0.315128  0  0.971185  0
H  H13  1  0.69816907  0.54288914  0.30092813  1  0  0.339283  0  0.901229  0  0  0.320576  0  0.966404  0  0  0.328183  0  0.95999  0  0  0.305686  0.315159  0  0.9711  0
H  H14  1  0.19816963  0.54288730  0.19907277  1  0  0.339324  0  0.901285  0  0  0.320605  0  0.966473  0  0  0.328213  0  0.960055  0  0  0.305691  0.315188  0  0.971167  0
H  H15  1  0.30183139  0.45711741  0.69907149  1  0  0.339276  0  0.901305  0  0  0.320558  0  0.966489  0  0  0.328166  0  0.960074  0  0  0.305674  0.31514  0  0.971187  0
H  H16  1  0.82316284  0.28617674  0.73997834  1  0  0.352364  0  0.924135  0  0  0.330561  0  0.99249  0  0  0.338708  0  0.985244  0  0  0.299476  0.324815  0  0.997593  0
H  H17  1  0.67683836  0.71382300  0.23997362  1  0  0.352326  0  0.924098  0  0  0.330467  0  0.992564  0  0  0.338615  0  0.985321  0  0  0.299459  0.324722  0  0.997669  0
H  H18  1  0.17684056  0.71382244  0.26002429  1  0  0.352397  0  0.924119  0  0  0.330574  0  0.99253  0  0  0.338721  0  0.985286  0  0  0.29947  0.324828  0  0.997633  0
H  H19  1  0.32316437  0.28618108  0.76002360  1  0  0.352386  0  0.924163  0  0  0.33054  0  0.99262  0  0  0.338687  0  0.985375  0  0  0.299473  0.324793  0  0.997722  0
H  H20  1  0.62027215  0.79251867  0.49950375  1  0  0.082088  0  0.963386  0  0  0.091708  0  1.029528  0  0  0.094481  0  1.025968  0  0  0.10803  0.089617  0  1.03218  0
H  H21  1  0.87973262  0.20749235  0.99950490  1  0  0.08207  0  0.963409  0  0  0.091762  0  1.029435  0  0  0.094535  0  1.025877  0  0  0.108036  0.089668  0  1.032084  0
H  H22  1  0.37972968  0.20747807  0.50049647  1  0  0.082108  0  0.96333  0  0  0.091729  0  1.029457  0  0  0.094503  0  1.025897  0  0  0.108015  0.089637  0  1.032108  0
H  H23  1  0.12026529  0.79251421  0.00049412  1  0  0.082076  0  0.963415  0  0  0.091757  0  1.029452  0  0  0.09453  0  1.025894  0  0  0.108034  0.089663  0  1.032101  0
H  H24  1  0.82214491  0.62262680  0.42917307  1  0  0.111382  0  0.946401  0  0  0.1191  0  1.009516  0  0  0.122868  0  1.00778  0  0  0.107435  0.116381  0  1.010926  0
H  H25  1  0.67785764  0.37738905  0.92917949  1  0  0.111409  0  0.946426  0  0  0.119188  0  1.009481  0  0  0.12291  0  1.007785  0  0  0.107497  0.116464  0  1.010898  0
H  H26  1  0.17785352  0.37737362  0.57082595  1  0  0.11128  0  0.946225  0  0  0.119001  0  1.009376  0  0  0.122766  0  1.007646  0  0  0.107395  0.11628  0  1.010789  0
H  H27  1  0.32213929  0.62261996  0.07082493  1  0  0.11142  0  0.946322  0  0  0.119207  0  1.009375  0  0  0.122919  0  1.007705  0  0  0.107469  0.116483  0  1.010794  0
H  H28  1  0.12817469  0.63718013  0.47782537  1  0  0.088909  0  0.992704  0  0  0.096323  0  1.061322  0  0  0.09903  0  1.060353  0  0  0.094466  0.094343  0  1.062084  0
H  H29  1  0.37182892  0.36282730  0.97782894  1  0  0.088881  0  0.992703  0  0  0.096314  0  1.061311  0  0  0.099022  0  1.060344  0  0  0.094441  0.094334  0  1.062072  0
H  H30  1  0.87182458  0.36281661  0.52217124  1  0  0.088932  0  0.992649  0  0  0.096349  0  1.061267  0  0  0.099056  0  1.060298  0  0  0.094476  0.094367  0  1.06203  0
H  H31  1  0.62817087  0.63718415  0.02217609  1  0  0.088905  0  0.992734  0  0  0.096317  0  1.061357  0  0  0.099024  0  1.060389  0  0  0.09445  0.094336  0  1.062119  0
C  C32  1  0.75328130  0.79250752  0.51868786  1  0  0.14576  0  3.707188  0  0  0.10546  0  3.971626  0  0  0.114607  0  3.986728  0  0  0.046973  0.099314  0  3.961518  0
C  C33  1  0.74671911  0.20749199  0.01869213  1  0  0.145666  0  3.707319  0  0  0.10539  0  3.971661  0  0  0.114535  0  3.986754  0  0  0.04697  0.099245  0  3.961551  0
C  C34  1  0.24671601  0.20749414  0.48131416  1  0  0.145642  0  3.707244  0  0  0.105351  0  3.971681  0  0  0.114498  0  3.986783  0  0  0.046947  0.099204  0  3.961575  0
C  C35  1  0.25327729  0.79250232  0.98131290  1  0  0.145652  0  3.707181  0  0  0.105369  0  3.971591  0  0  0.114519  0  3.986675  0  0  0.046929  0.099226  0  3.961478  0
C  C36  1  0.86646075  0.69906269  0.48007186  1  0  -0.091392  0  3.699248  0  0  -0.104971  0  3.956259  0  0  -0.110584  0  3.974699  0  0  -0.07676  -0.101501  0  3.944119  0
C  C37  1  0.63354808  0.30095074  0.98007164  1  0  -0.091458  0  3.698892  0  0  -0.105137  0  3.95587  0  0  -0.110703  0  3.974331  0  0  -0.076901  -0.101669  0  3.943732  0
C  C38  1  0.13354062  0.30093037  0.51992416  1  0  -0.091234  0  3.699394  0  0  -0.104791  0  3.956346  0  0  -0.110407  0  3.974792  0  0  -0.076755  -0.101322  0  3.944201  0
C  C39  1  0.36645314  0.69906193  0.01992558  1  0  -0.091409  0  3.699323  0  0  -0.105072  0  3.956323  0  0  -0.110643  0  3.974785  0  0  -0.076827  -0.101602  0  3.944182  0
C  C40  1  0.03501796  0.70568447  0.50799076  1  0  -0.026757  0  3.692947  0  0  -0.052708  0  3.939435  0  0  -0.04989  0  3.957266  0  0  -0.067221  -0.054323  0  3.927483  0
C  C41  1  0.46497711  0.29431884  0.00799520  1  0  -0.026645  0  3.692758  0  0  -0.052592  0  3.93925  0  0  -0.049774  0  3.957064  0  0  -0.067142  -0.054205  0  3.927292  0
C  C42  1  0.96498289  0.29431472  0.49200946  1  0  -0.026833  0  3.692847  0  0  -0.052783  0  3.939356  0  0  -0.049967  0  3.957183  0  0  -0.067214  -0.054396  0  3.927406  0
C  C43  1  0.53501793  0.70568528  0.99201102  1  0  -0.02665  0  3.692818  0  0  -0.052607  0  3.939323  0  0  -0.049784  0  3.957138  0  0  -0.067126  -0.054226  0  3.927373  0
C  C44  1  0.08664024  0.80204736  0.57494141  1  0  -0.084295  0  3.664984  0  0  -0.067522  0  3.900861  0  0  -0.074924  0  3.919926  0  0  0.000579  -0.063124  0  3.888629  0
C  C45  1  0.41336388  0.19795475  0.07493979  1  0  -0.084355  0  3.665224  0  0  -0.067613  0  3.901105  0  0  -0.075012  0  3.92017  0  0  0.000535  -0.063233  0  3.888854  0
C  C46  1  0.91336272  0.19794814  0.42505581  1  0  -0.084196  0  3.66499  0  0  -0.067488  0  3.900899  0  0  -0.074881  0  3.919945  0  0  0.000601  -0.06311  0  3.88865  0
C  C47  1  0.58663674  0.80205302  0.92505863  1  0  -0.084401  0  3.665064  0  0  -0.067654  0  3.900924  0  0  -0.07506  0  3.919996  0  0  0.000563  -0.06326  0  3.888685  0
C  C48  1  0.96406264  0.89156533  0.61072749  1  0  0.089856  0  3.697589  0  0  0.085553  0  3.934827  0  0  0.08809  0  3.95384  0  0  0.113942  0.083637  0  3.922334  0
C  C49  1  0.53593508  0.10843061  0.11072738  1  0  0.089815  0  3.697428  0  0  0.085541  0  3.934621  0  0  0.088076  0  3.953636  0  0  0.113893  0.083681  0  3.922052  0
C  C50  1  0.03593293  0.10843266  0.38927213  1  0  0.08974  0  3.69762  0  0  0.085522  0  3.934789  0  0  0.088064  0  3.953789  0  0  0.113917  0.083655  0  3.922232  0
C  C51  1  0.46406463  0.89156981  0.88927404  1  0  0.089778  0  3.697704  0  0  0.085559  0  3.934845  0  0  0.088095  0  3.953861  0  0  0.113898  0.083656  0  3.922332  0
C  C52  1  0.27188916  0.80963132  0.60358521  1  0  0.686711  0  3.912243  0  0  0.626827  0  4.225408  0  0  0.663131  0  4.214137  0  0  0.212393  0.602086  0  4.232336  0
C  C53  1  0.22811318  0.19036592  0.10358525  1  0  0.686728  0  3.912278  0  0  0.626854  0  4.225419  0  0  0.663156  0  4.214148  0  0  0.212367  0.602113  0  4.232347  0
C  C54  1  0.72811236  0.19036296  0.39641562  1  0  0.686652  0  3.912382  0  0  0.626793  0  4.225521  0  0  0.663091  0  4.214255  0  0  0.212381  0.602057  0  4.232444  0
C  C55  1  0.77189007  0.80963203  0.89641617  1  0  0.686864  0  3.912287  0  0  0.626969  0  4.225474  0  0  0.663277  0  4.214198  0  0  0.212443  0.602229  0  4.232403  0
C  C56  1  0.99983067  0.99108056  0.68625780  1  0  0.638887  0  3.909896  0  0  0.582354  0  4.206965  0  0  0.617166  0  4.198331  0  0  0.209848  0.558778  0  4.211983  0
C  C57  1  0.50017779  0.00890682  0.18625646  1  0  0.639046  0  3.909828  0  0  0.582559  0  4.206824  0  0  0.617372  0  4.198189  0  0  0.209944  0.558972  0  4.211835  0
C  C58  1  0.00017695  0.00891124  0.31374062  1  0  0.639166  0  3.909676  0  0  0.582594  0  4.206772  0  0  0.617409  0  4.198134  0  0  0.209963  0.559008  0  4.211784  0
C  C59  1  0.49982531  0.99108991  0.81374196  1  0  0.639071  0  3.909802  0  0  0.582511  0  4.206853  0  0  0.617325  0  4.198219  0  0  0.209931  0.558932  0  4.21187  0
C  C60  1  0.66835724  0.45410940  0.69654148  1  0  0.611274  0  3.825185  0  0  0.567872  0  4.113729  0  0  0.596902  0  4.117608  0  0  0.252887  0.548283  0  4.110356  0
C  C61  1  0.83163432  0.54589646  0.19654406  1  0  0.611358  0  3.825306  0  0  0.567909  0  4.113913  0  0  0.596938  0  4.117794  0  0  0.252922  0.54832  0  4.110542  0
C  C62  1  0.33164459  0.54588733  0.30345994  1  0  0.611454  0  3.824932  0  0  0.568031  0  4.113526  0  0  0.597061  0  4.1174  0  0  0.25302  0.548441  0  4.110154  0
C  C63  1  0.16836216  0.45410887  0.80345676  1  0  0.611266  0  3.825408  0  0  0.567901  0  4.113911  0  0  0.596927  0  4.117791  0  0  0.252919  0.548311  0  4.110539  0
S  S64  1  0.59000841  0.34971609  0.61159651  1  0  -0.468984  0  1.992586  0  0  -0.424142  0  2.338876  0  0  -0.446193  0  2.326764  0  0  -0.170884  -0.408701  0  2.346817  0
S  S65  1  0.90999399  0.65027615  0.11159495  1  0  -0.468925  0  1.992557  0  0  -0.424054  0  2.338832  0  0  -0.446108  0  2.326722  0  0  -0.17085  -0.408613  0  2.346769  0
S  S66  1  0.40999327  0.65027942  0.38840492  1  0  -0.469013  0  1.992557  0  0  -0.42415  0  2.338841  0  0  -0.446201  0  2.326725  0  0  -0.170899  -0.408707  0  2.346785  0
S  S67  1  0.09000640  0.34971936  0.88840407  1  0  -0.468941  0  1.992522  0  0  -0.424108  0  2.338782  0  0  -0.44616  0  2.326669  0  0  -0.17088  -0.408665  0  2.34672  0
N  N68  1  0.80238594  0.88785650  0.58159628  1  0  -0.341237  0  3.292344  0  0  -0.266274  0  3.557688  0  0  -0.285812  0  3.576263  0  0  -0.327497  -0.252905  0  3.544999  0
N  N69  1  0.69761800  0.11214918  0.08159449  1  0  -0.341128  0  3.292292  0  0  -0.266205  0  3.557611  0  0  -0.285744  0  3.576193  0  0  -0.327404  -0.252855  0  3.544903  0
N  N70  1  0.19761333  0.11214024  0.41840154  1  0  -0.341134  0  3.291969  0  0  -0.266182  0  3.55726  0  0  -0.285729  0  3.575844  0  0  -0.327446  -0.252826  0  3.544556  0
N  N71  1  0.30238374  0.88785736  0.91840213  1  0  -0.341138  0  3.292089  0  0  -0.266244  0  3.557419  0  0  -0.285783  0  3.575994  0  0  -0.327459  -0.25288  0  3.544725  0
N  N72  1  0.62830975  0.60599916  0.70702461  1  0  -0.65641  0  3.117085  0  0  -0.611857  0  3.353904  0  0  -0.6335  0  3.349287  0  0  -0.568312  -0.597159  0  3.356998  0
N  N73  1  0.87169412  0.39399195  0.20702480  1  0  -0.65652  0  3.117107  0  0  -0.611917  0  3.35391  0  0  -0.633545  0  3.349266  0  0  -0.568387  -0.597218  0  3.357002  0
N  N74  1  0.37168936  0.39399636  0.29297621  1  0  -0.656416  0  3.117164  0  0  -0.611903  0  3.353918  0  0  -0.633539  0  3.349297  0  0  -0.568371  -0.597203  0  3.357011  0
N  N75  1  0.12830628  0.60600357  0.79297783  1  0  -0.656541  0  3.117139  0  0  -0.611996  0  3.354023  0  0  -0.633628  0  3.349398  0  0  -0.568441  -0.597297  0  3.35712  0
N  N76  1  0.76545924  0.38962760  0.75126942  1  0  -0.67612  0  3.126612  0  0  -0.630887  0  3.357609  0  0  -0.652397  0  3.353075  0  0  -0.571592  -0.616242  0  3.360575  0
N  N77  1  0.73454908  0.61036721  0.25126473  1  0  -0.676043  0  3.126921  0  0  -0.630781  0  3.358003  0  0  -0.652292  0  3.353475  0  0  -0.57156  -0.616143  0  3.360974  0
N  N78  1  0.23453988  0.61036792  0.24873080  1  0  -0.676336  0  3.126622  0  0  -0.631105  0  3.357665  0  0  -0.652618  0  3.353129  0  0  -0.571677  -0.616459  0  3.360632  0
N  N79  1  0.26545545  0.38963074  0.74873429  1  0  -0.676139  0  3.126921  0  0  -0.630891  0  3.357897  0  0  -0.652402  0  3.35337  0  0  -0.571586  -0.616249  0  3.360866  0
O  O80  1  0.91964696  0.11418797  0.69743055  1  0  -0.646347  0  2.069688  0  0  -0.584264  0  2.316921  0  0  -0.612046  0  2.30789  0  0  -0.318765  -0.564617  0  2.322127  0
O  O81  1  0.58034723  0.88580807  0.19742639  1  0  -0.646417  0  2.069984  0  0  -0.584302  0  2.317183  0  0  -0.612068  0  2.308119  0  0  -0.318752  -0.564656  0  2.32239  0
O  O82  1  0.08034906  0.88581369  0.30256967  1  0  -0.646398  0  2.069864  0  0  -0.584284  0  2.317085  0  0  -0.612049  0  2.308028  0  0  -0.3188  -0.564642  0  2.3223  0
O  O83  1  0.41965504  0.11419233  0.80257143  1  0  -0.646386  0  2.069909  0  0  -0.58429  0  2.317177  0  0  -0.612055  0  2.308109  0  0  -0.31877  -0.564646  0  2.322385  0
O  O84  1  0.10645140  0.93727026  0.73484640  1  0  -0.604018  0  2.037517  0  0  -0.525773  0  2.281153  0  0  -0.555561  0  2.271227  0  0  -0.31146  -0.504955  0  2.287248  0
O  O85  1  0.39355284  0.06272834  0.23484535  1  0  -0.603996  0  2.037107  0  0  -0.525878  0  2.28085  0  0  -0.555676  0  2.270931  0  0  -0.311527  -0.505058  0  2.286951  0
O  O86  1  0.89354658  0.06272649  0.26515082  1  0  -0.604202  0  2.037236  0  0  -0.525918  0  2.280814  0  0  -0.555731  0  2.270902  0  0  -0.311506  -0.505101  0  2.286915  0
O  O87  1  0.60645027  0.93726839  0.76515427  1  0  -0.604114  0  2.037261  0  0  -0.525862  0  2.280908  0  0  -0.555655  0  2.270981  0  0  -0.311499  -0.505042  0  2.287004  0
O  O88  1  0.36815089  0.93925444  0.58424512  1  0  -0.649398  0  2.007375  0  0  -0.581023  0  2.273523  0  0  -0.612282  0  2.262089  0  0  -0.328855  -0.558856  0  2.280535  0
O  O89  1  0.13185040  0.06074525  0.08424388  1  0  -0.649386  0  2.007382  0  0  -0.581025  0  2.273556  0  0  -0.612293  0  2.262146  0  0  -0.328869  -0.558859  0  2.280567  0
O  O90  1  0.63184958  0.06075211  0.41575570  1  0  -0.649312  0  2.007557  0  0  -0.580952  0  2.273701  0  0  -0.612217  0  2.262293  0  0  -0.328797  -0.558788  0  2.280713  0
O  O91  1  0.86815218  0.93925761  0.91575634  1  0  -0.64947  0  2.007283  0  0  -0.581096  0  2.273446  0  0  -0.612354  0  2.262008  0  0  -0.328885  -0.558927  0  2.280459  0
O  O92  1  0.31673939  0.68638158  0.63999705  1  0  -0.639642  0  1.9741  0  0  -0.584186  0  2.20308  0  0  -0.608832  0  2.192463  0  0  -0.313917  -0.566638  0  2.20978  0
O  O93  1  0.18326007  0.31361204  0.13999708  1  0  -0.639648  0  1.974083  0  0  -0.584198  0  2.203063  0  0  -0.608844  0  2.192449  0  0  -0.313885  -0.566652  0  2.209762  0
O  O94  1  0.68326348  0.31362372  0.36000137  1  0  -0.639677  0  1.973906  0  0  -0.584254  0  2.202894  0  0  -0.608896  0  2.19228  0  0  -0.313986  -0.566705  0  2.209592  0
O  O95  1  0.81673950  0.68638715  0.86000674  1  0  -0.639704  0  1.974262  0  0  -0.584262  0  2.20327  0  0  -0.608914  0  2.192656  0  0  -0.31396  -0.566717  0  2.209973  0
