# generated using pymatgen
data_GdH12C16O11
_symmetry_space_group_name_H-M   'P 1'
_cell_length_a   5.90918700
_cell_length_b   9.91757881
_cell_length_c   14.74572432
_cell_angle_alpha   85.52717090
_cell_angle_beta   88.94119842
_cell_angle_gamma   74.48461984
_symmetry_Int_Tables_number   1
_chemical_formula_structural   GdH12C16O11
_chemical_formula_sum   'Gd2 H24 C32 O22'
_cell_volume   830.14058013
_cell_formula_units_Z   2
loop_
 _symmetry_equiv_pos_site_id
 _symmetry_equiv_pos_as_xyz
  1  'x, y, z'
loop_
 _atom_site_type_symbol
 _atom_site_label
 _atom_site_symmetry_multiplicity
 _atom_site_fract_x
 _atom_site_fract_y
 _atom_site_fract_z
 _atom_site_occupancy
 _atom_site_hle17_bader_spin_density
 _atom_site_hle17_ddec_charge
 _atom_site_hle17_ddec_spin_density
 _atom_site_hle17_ddec_sum_bond_order
 _atom_site_hle17_magmom
 _atom_site_hse06_10hf_bader_spin_density
 _atom_site_hse06_10hf_ddec_charge
 _atom_site_hse06_10hf_ddec_spin_density
 _atom_site_hse06_10hf_ddec_sum_bond_order
 _atom_site_hse06_10hf_magmom
 _atom_site_hse06_bader_spin_density
 _atom_site_hse06_ddec_charge
 _atom_site_hse06_ddec_spin_density
 _atom_site_hse06_ddec_sum_bond_order
 _atom_site_hse06_magmom
 _atom_site_pbe_bader_spin_density
 _atom_site_pbe_cm5_charge
 _atom_site_pbe_ddec_charge
 _atom_site_pbe_ddec_spin_density
 _atom_site_pbe_ddec_sum_bond_order
 _atom_site_pbe_magmom
Gd  Gd0  1  0.82999000  0.70715877  0.45820461  1  0  2.16891  0  1.788443  0  0  2.079162  0  2.142374  0  0  2.132337  0  2.089021  0  0  1.479895  2.03927  0  2.183186  0
Gd  Gd1  1  0.16999233  0.29285459  0.54180227  1  0  2.168966  0  1.788456  0  0  2.079177  0  2.142469  0  0  2.132358  0  2.089108  0  0  1.479946  2.039264  0  2.183335  0
H  H2  1  0.62429331  0.89421170  0.01924390  1  0  0.395837  0  0.898892  0  0  0.365875  0  0.974562  0  0  0.378876  0  0.961045  0  0  0.303577  0.356768  0  0.983972  0
H  H3  1  0.37572110  0.10577532  0.98075200  1  0  0.395958  0  0.898716  0  0  0.365983  0  0.974425  0  0  0.378985  0  0.960896  0  0  0.303586  0.356876  0  0.983837  0
H  H4  1  0.27078175  0.60562808  0.56971997  1  0  0.453056  0  0.84394  0  0  0.419994  0  0.91071  0  0  0.430412  0  0.89562  0  0  0.31273  0.412671  0  0.921283  0
H  H5  1  0.72924021  0.39435680  0.43028077  1  0  0.453063  0  0.843965  0  0  0.419985  0  0.910734  0  0  0.430389  0  0.895671  0  0  0.312773  0.412665  0  0.921302  0
H  H6  1  0.20401605  0.77097913  0.57515572  1  0  0.460154  0  0.787217  0  0  0.441678  0  0.839265  0  0  0.449928  0  0.829896  0  0  0.336671  0.43578  0  0.846058  0
H  H7  1  0.79599274  0.22900478  0.42484713  1  0  0.460178  0  0.787277  0  0  0.441701  0  0.839327  0  0  0.449954  0  0.829949  0  0  0.33668  0.435803  0  0.846121  0
H  H8  1  0.04394060  0.84717502  0.29929967  1  0  0.432934  0  0.838933  0  0  0.412347  0  0.893898  0  0  0.41992  0  0.883107  0  0  0.31675  0.406885  0  0.901718  0
H  H9  1  0.95604700  0.15282575  0.70071392  1  0  0.433194  0  0.838497  0  0  0.412495  0  0.893658  0  0  0.420061  0  0.882877  0  0  0.316902  0.407035  0  0.901473  0
H  H10  1  0.20232943  0.84823771  0.38628655  1  0  0.452633  0  0.840697  0  0  0.420769  0  0.904953  0  0  0.432471  0  0.888003  0  0  0.305086  0.412427  0  0.917043  0
H  H11  1  0.79766633  0.15176720  0.61373360  1  0  0.452664  0  0.840684  0  0  0.420757  0  0.904952  0  0  0.432454  0  0.888012  0  0  0.305231  0.412432  0  0.917015  0
H  H12  1  0.59739131  0.68003594  0.14104783  1  0  0.113742  0  0.939942  0  0  0.123344  0  1.000553  0  0  0.127255  0  0.99794  0  0  0.108922  0.120831  0  1.001728  0
H  H13  1  0.40259465  0.31999206  0.85896509  1  0  0.113735  0  0.940073  0  0  0.123431  0  1.000575  0  0  0.127305  0  0.998004  0  0  0.108906  0.120917  0  1.001752  0
H  H14  1  0.36288358  0.61450191  0.02097396  1  0  0.094265  0  0.967993  0  0  0.102209  0  1.032889  0  0  0.105149  0  1.031743  0  0  0.100199  0.099974  0  1.034101  0
H  H15  1  0.63712893  0.38552386  0.97903222  1  0  0.094312  0  0.967966  0  0  0.102257  0  1.03287  0  0  0.1052  0  1.031724  0  0  0.100185  0.100025  0  1.034081  0
H  H16  1  0.09788918  0.45920158  0.06470164  1  0  0.110278  0  0.941033  0  0  0.124436  0  0.994994  0  0  0.127356  0  0.993626  0  0  0.109512  0.122209  0  0.996192  0
H  H17  1  0.90215367  0.54079052  0.93528851  1  0  0.11016  0  0.941257  0  0  0.124364  0  0.995157  0  0  0.127263  0  0.993817  0  0  0.109522  0.122136  0  0.996355  0
H  H18  1  0.71795029  0.29080684  0.13747976  1  0  0.119767  0  0.955265  0  0  0.125834  0  1.026119  0  0  0.128933  0  1.024808  0  0  0.109049  0.123833  0  1.02678  0
H  H19  1  0.28203948  0.70919812  0.86251395  1  0  0.119743  0  0.955399  0  0  0.125787  0  1.02627  0  0  0.128887  0  1.02496  0  0  0.108992  0.123802  0  1.026879  0
H  H20  1  0.13240664  0.86013364  0.13621276  1  0  0.10217  0  0.970594  0  0  0.109462  0  1.037864  0  0  0.112126  0  1.036914  0  0  0.102975  0.107654  0  1.038366  0
H  H21  1  0.86759399  0.13986916  0.86378849  1  0  0.102266  0  0.970495  0  0  0.109528  0  1.037802  0  0  0.112194  0  1.03685  0  0  0.102986  0.107721  0  1.038306  0
H  H22  1  0.44235712  0.91597143  0.22778915  1  0  0.10741  0  0.953064  0  0  0.115244  0  1.014752  0  0  0.118582  0  1.013375  0  0  0.106659  0.113087  0  1.015252  0
H  H23  1  0.55766786  0.08402706  0.77219666  1  0  0.107458  0  0.952935  0  0  0.115284  0  1.014637  0  0  0.118624  0  1.013256  0  0  0.106678  0.11313  0  1.015139  0
H  H24  1  0.39025200  0.16162706  0.27159938  1  0  0.125844  0  0.94006  0  0  0.13488  0  1.000465  0  0  0.13862  0  0.99828  0  0  0.1119  0.132175  0  1.00207  0
H  H25  1  0.60976232  0.83837253  0.72838708  1  0  0.125816  0  0.94004  0  0  0.134862  0  1.000452  0  0  0.1386  0  0.998271  0  0  0.111923  0.132155  0  1.002057  0
C  C26  1  0.17909706  0.44780150  0.20687820  1  0  0.253335  0  3.759955  0  0  0.236966  0  4.026631  0  0  0.245059  0  4.043345  0  0  0.091304  0.231315  0  4.015358  0
C  C27  1  0.82090506  0.55220234  0.79311486  1  0  0.253369  0  3.760104  0  0  0.237029  0  4.026735  0  0  0.245124  0  4.043441  0  0  0.091369  0.231375  0  4.015465  0
C  C28  1  0.30715046  0.48557701  0.27494869  1  0  -0.131577  0  3.662162  0  0  -0.127097  0  3.900794  0  0  -0.13113  0  3.917121  0  0  2.7e-05  -0.124923  0  3.890358  0
C  C29  1  0.69286371  0.51441420  0.72505107  1  0  -0.131742  0  3.662275  0  0  -0.127284  0  3.90088  0  0  -0.131303  0  3.917218  0  0  -5.6e-05  -0.125108  0  3.890446  0
C  C30  1  0.45890825  0.56995762  0.24997232  1  0  -0.054273  0  3.728814  0  0  -0.04076  0  3.967477  0  0  -0.04587  0  3.987441  0  0  -0.008221  -0.037534  0  3.954025  0
C  C31  1  0.54109406  0.43004098  0.75003389  1  0  -0.053986  0  3.728994  0  0  -0.040474  0  3.967652  0  0  -0.045583  0  3.987601  0  0  -0.008211  -0.037251  0  3.954201  0
C  C32  1  0.47858674  0.61481531  0.15842630  1  0  -0.073995  0  3.718257  0  0  -0.10365  0  3.97581  0  0  -0.103706  0  3.994151  0  0  -0.083784  -0.103318  0  3.962496  0
C  C33  1  0.52142714  0.38519160  0.84158150  1  0  -0.074026  0  3.718495  0  0  -0.103803  0  3.976079  0  0  -0.103826  0  3.994429  0  0  -0.083727  -0.103474  0  3.962772  0
C  C34  1  0.34909653  0.57646053  0.09160921  1  0  -0.059652  0  3.783117  0  0  -0.071753  0  4.03917  0  0  -0.073294  0  4.05892  0  0  -0.089628  -0.070931  0  4.025979  0
C  C35  1  0.65092154  0.42355264  0.90839419  1  0  -0.059799  0  3.78334  0  0  -0.071884  0  4.039417  0  0  -0.073426  0  4.059147  0  0  -0.089674  -0.071062  0  4.02623  0
C  C36  1  0.20015229  0.49150834  0.11559254  1  0  -0.147319  0  3.727171  0  0  -0.173039  0  3.982227  0  0  -0.175094  0  3.999881  0  0  -0.087374  -0.171387  0  3.970263  0
C  C37  1  0.79987482  0.50849223  0.88440469  1  0  -0.14716  0  3.727572  0  0  -0.17294  0  3.982609  0  0  -0.174976  0  4.000266  0  0  -0.087402  -0.17129  0  3.970649  0
C  C38  1  0.27537305  0.42926921  0.37054112  1  0  0.734106  0  3.857879  0  0  0.679771  0  4.165449  0  0  0.716939  0  4.150823  0  0  0.226874  0.65443  0  4.174706  0
C  C39  1  0.72463838  0.57072411  0.62946329  1  0  0.73419  0  3.857963  0  0  0.679903  0  4.165445  0  0  0.717027  0  4.150892  0  0  0.226924  0.654561  0  4.174704  0
C  C40  1  0.59869254  0.61340564  0.31995855  1  0  0.656944  0  3.885096  0  0  0.602937  0  4.191683  0  0  0.637347  0  4.182675  0  0  0.205005  0.579748  0  4.196772  0
C  C41  1  0.40130907  0.38660238  0.68004718  1  0  0.656456  0  3.885648  0  0  0.60248  0  4.192224  0  0  0.636894  0  4.18322  0  0  0.204776  0.579293  0  4.197304  0
C  C42  1  0.05324684  0.23894156  0.20578172  1  0  0.271784  0  3.771056  0  0  0.266663  0  4.033918  0  0  0.274216  0  4.049861  0  0  0.089269  0.261251  0  4.023188  0
C  C43  1  0.94676162  0.76105179  0.79420846  1  0  0.271842  0  3.770979  0  0  0.26673  0  4.03379  0  0  0.274285  0  4.04973  0  0  0.089255  0.261311  0  4.023064  0
C  C44  1  0.87661411  0.20862900  0.15649708  1  0  -0.163109  0  3.692966  0  0  -0.198443  0  3.941288  0  0  -0.199423  0  3.959637  0  0  -0.086421  -0.197434  0  3.928521  0
C  C45  1  0.12338303  0.79137068  0.84349688  1  0  -0.163109  0  3.692936  0  0  -0.19841  0  3.941195  0  0  -0.199398  0  3.959547  0  0  -0.086308  -0.19739  0  3.928432  0
C  C46  1  0.90640663  0.07151772  0.13133123  1  0  -0.065517  0  3.801693  0  0  -0.039341  0  4.032181  0  0  -0.0483  0  4.056685  0  0  -0.020642  -0.033475  0  4.015703  0
C  C47  1  0.09358618  0.92848408  0.86866331  1  0  -0.065496  0  3.801736  0  0  -0.039307  0  4.032268  0  0  -0.048266  0  4.056759  0  0  -0.020718  -0.033448  0  4.015797  0
C  C48  1  0.11016753  0.96589177  0.15706797  1  0  -0.103569  0  3.748329  0  0  -0.13055  0  3.997193  0  0  -0.129731  0  4.016488  0  0  -0.093699  -0.130836  0  3.983768  0
C  C49  1  0.88983279  0.03410789  0.84293276  1  0  -0.103838  0  3.748458  0  0  -0.130791  0  3.997337  0  0  -0.129974  0  4.016632  0  0  -0.093736  -0.131077  0  3.983919  0
C  C50  1  0.28465900  0.99815663  0.20702196  1  0  -0.057366  0  3.753652  0  0  -0.068121  0  4.010631  0  0  -0.070435  0  4.030231  0  0  -0.088391  -0.066416  0  3.996608  0
C  C51  1  0.71536026  0.00183142  0.79296710  1  0  -0.0573  0  3.753255  0  0  -0.068041  0  4.010226  0  0  -0.070353  0  4.029817  0  0  -0.088348  -0.066338  0  3.996206  0
C  C52  1  0.25770589  0.13479407  0.23141949  1  0  -0.125294  0  3.664885  0  0  -0.155298  0  3.921684  0  0  -0.156653  0  3.938852  0  0  -0.081886  -0.154252  0  3.909947  0
C  C53  1  0.74231072  0.86519608  0.76857082  1  0  -0.125309  0  3.664783  0  0  -0.15532  0  3.921541  0  0  -0.156677  0  3.93871  0  0  -0.081974  -0.154282  0  3.909832  0
C  C54  1  0.72570358  0.04184061  0.07346787  1  0  0.656969  0  3.806082  0  0  0.603767  0  4.10585  0  0  0.637591  0  4.097871  0  0  0.238678  0.580759  0  4.111021  0
C  C55  1  0.27430523  0.95814749  0.92653003  1  0  0.656973  0  3.806208  0  0  0.603611  0  4.106188  0  0  0.637451  0  4.098199  0  0  0.238626  0.580604  0  4.111358  0
C  C56  1  0.60138944  0.01325301  0.52728163  1  0  0.559744  0  3.91602  0  0  0.516854  0  4.214233  0  0  0.54687  0  4.205088  0  0  0.223675  0.49648  0  4.219729  0
C  C57  1  0.39855999  0.98675425  0.47272563  1  0  0.559119  0  3.916059  0  0  0.516247  0  4.214228  0  0  0.546261  0  4.205094  0  0  0.223426  0.49588  0  4.21971  0
O  O58  1  0.01495988  0.37436598  0.23294085  1  0  -0.3075  0  2.338805  0  0  -0.240748  0  2.566034  0  0  -0.257622  0  2.569974  0  0  -0.156054  -0.22914  0  2.562734  0
O  O59  1  0.98504970  0.62562840  0.76705334  1  0  -0.307542  0  2.338889  0  0  -0.240789  0  2.566092  0  0  -0.257674  0  2.570049  0  0  -0.156048  -0.22918  0  2.562789  0
O  O60  1  0.38932940  0.30529906  0.39628124  1  0  -0.679005  0  1.974087  0  0  -0.640101  0  2.214803  0  0  -0.664967  0  2.203962  0  0  -0.349845  -0.622496  0  2.221656  0
O  O61  1  0.61067520  0.69469429  0.60372454  1  0  -0.679126  0  1.97424  0  0  -0.640227  0  2.214926  0  0  -0.665078  0  2.204112  0  0  -0.349881  -0.62262  0  2.221773  0
O  O62  1  0.12117742  0.50134684  0.42225823  1  0  -0.770809  0  2.14539  0  0  -0.72852  0  2.411415  0  0  -0.75654  0  2.400864  0  0  -0.416344  -0.708471  0  2.418287  0
O  O63  1  0.87882290  0.49865282  0.57774251  1  0  -0.770786  0  2.145512  0  0  -0.728506  0  2.411472  0  0  -0.756507  0  2.400939  0  0  -0.416379  -0.708457  0  2.418346  0
O  O64  1  0.59239031  0.56347316  0.40310434  1  0  -0.687421  0  2.034742  0  0  -0.629781  0  2.265616  0  0  -0.655099  0  2.256085  0  0  -0.356867  -0.611901  0  2.2717  0
O  O65  1  0.40763420  0.43651381  0.59689425  1  0  -0.687265  0  2.034891  0  0  -0.629616  0  2.265756  0  0  -0.654948  0  2.25623  0  0  -0.356759  -0.611729  0  2.271834  0
O  O66  1  0.71801609  0.70026616  0.29841666  1  0  -0.661782  0  1.938754  0  0  -0.621083  0  2.176441  0  0  -0.64533  0  2.167584  0  0  -0.364158  -0.60419  0  2.18174  0
O  O67  1  0.28200170  0.29973549  0.70159342  1  0  -0.661508  0  1.938799  0  0  -0.620886  0  2.176516  0  0  -0.645131  0  2.167653  0  0  -0.364012  -0.603992  0  2.181813  0
O  O68  1  0.56146089  0.13841691  0.03886825  1  0  -0.570378  0  2.003893  0  0  -0.518175  0  2.223684  0  0  -0.541972  0  2.217384  0  0  -0.283153  -0.502014  0  2.227998  0
O  O69  1  0.43855712  0.86157429  0.96111658  1  0  -0.570289  0  2.004197  0  0  -0.518024  0  2.224046  0  0  -0.541801  0  2.217701  0  0  -0.283093  -0.501863  0  2.228353  0
O  O70  1  0.75473375  0.90783436  0.06111542  1  0  -0.53814  0  2.101481  0  0  -0.486673  0  2.317692  0  0  -0.509283  0  2.304659  0  0  -0.321103  -0.471139  0  2.326365  0
O  O71  1  0.24527847  0.09215373  0.93888179  1  0  -0.538175  0  2.101182  0  0  -0.48665  0  2.317448  0  0  -0.509264  0  2.304407  0  0  -0.321043  -0.471116  0  2.326121  0
O  O72  1  0.79678497  0.92417245  0.52684777  1  0  -0.60806  0  2.07593  0  0  -0.570519  0  2.317365  0  0  -0.59322  0  2.309085  0  0  -0.352204  -0.554598  0  2.322851  0
O  O73  1  0.20314915  0.07585166  0.47314445  1  0  -0.607972  0  2.075628  0  0  -0.570391  0  2.316955  0  0  -0.593102  0  2.308693  0  0  -0.352148  -0.554461  0  2.322423  0
O  O74  1  0.55239549  0.12591600  0.56880284  1  0  -0.673181  0  2.110824  0  0  -0.623358  0  2.343957  0  0  -0.649861  0  2.33666  0  0  -0.350458  -0.604718  0  2.348561  0
O  O75  1  0.44752586  0.87410189  0.43119717  1  0  -0.67293  0  2.111001  0  0  -0.623109  0  2.344072  0  0  -0.649619  0  2.33679  0  0  -0.350282  -0.604466  0  2.348672  0
O  O76  1  0.14884193  0.69501302  0.55424958  1  0  -0.889631  0  1.899863  0  0  -0.850441  0  2.105752  0  0  -0.869356  0  2.078854  0  0  -0.645058  -0.836874  0  2.124523  0
O  O77  1  0.85114580  0.30497623  0.44575713  1  0  -0.889678  0  1.900064  0  0  -0.850449  0  2.105965  0  0  -0.869362  0  2.079065  0  0  -0.645107  -0.836878  0  2.124738  0
O  O78  1  0.06151262  0.82182574  0.36432927  1  0  -0.902216  0  1.888413  0  0  -0.864689  0  2.078031  0  0  -0.883039  0  2.04711  0  0  -0.643504  -0.851462  0  2.100052  0
O  O79  1  0.93845698  0.17817722  0.63568833  1  0  -0.902517  0  1.888053  0  0  -0.864762  0  2.078025  0  0  -0.883111  0  2.047122  0  0  -0.643743  -0.851538  0  2.100039  0
