# generated using pymatgen
data_ZnH14C13NClO4
_symmetry_space_group_name_H-M   'P 1'
_cell_length_a   9.53565676
_cell_length_b   10.85592400
_cell_length_c   10.91125166
_cell_angle_alpha   89.61350379
_cell_angle_beta   89.61701198
_cell_angle_gamma   90.93688618
_symmetry_Int_Tables_number   1
_chemical_formula_structural   ZnH14C13NClO4
_chemical_formula_sum   'Zn2 H28 C26 N2 Cl2 O8'
_cell_volume   1129.31215916
_cell_formula_units_Z   2
loop_
 _symmetry_equiv_pos_site_id
 _symmetry_equiv_pos_as_xyz
  1  'x, y, z'
loop_
 _atom_site_type_symbol
 _atom_site_label
 _atom_site_symmetry_multiplicity
 _atom_site_fract_x
 _atom_site_fract_y
 _atom_site_fract_z
 _atom_site_occupancy
 _atom_site_pbe_bader_charge
 _atom_site_pbe_bader_spin_density
 _atom_site_pbe_cm5_charge
 _atom_site_pbe_ddec_charge
 _atom_site_pbe_ddec_spin_density
 _atom_site_pbe_ddec_sum_bond_order
 _atom_site_pbe_magmom
Zn  Zn0  1  0.64707489  0.49927514  0.50245447  1  1.258558  0  0.667839  0.810584  0  2.369071  0
Zn  Zn1  1  0.35438658  0.50085749  0.50065154  1  1.259807  0  0.669137  0.809653  0  2.38361  0
H  H2  1  0.39405897  0.92194601  0.30437617  1  0.037774  0  0.092106  0.078177  0  0.999325  0
H  H3  1  0.62778167  0.34426179  0.88218601  1  0.090811  0  0.095949  0.118751  0  0.999182  0
H  H4  1  0.44706044  0.30787942  0.90052096  1  0.06155  0  0.096889  0.119345  0  0.977174  0
H  H5  1  0.12663331  0.35794412  0.37128738  1  0.072732  0  0.114528  0.103614  0  0.959571  0
H  H6  1  0.87706014  0.35010867  0.38092694  1  0.074902  0  0.111088  0.101315  0  0.971965  0
H  H7  1  0.12272273  0.50887339  0.31029526  1  0.073106  0  0.11269  0.101865  0  0.97054  0
H  H8  1  0.87363579  0.49704595  0.31091369  1  0.088866  0  0.107573  0.099514  0  0.995376  0
H  H9  1  0.12209475  0.32744527  0.59081606  1  0.080162  0  0.112042  0.102146  0  0.975138  0
H  H10  1  0.87250182  0.32873193  0.59761370  1  0.081993  0  0.113691  0.102315  0  0.961612  0
H  H11  1  0.12494293  0.66025779  0.60565630  1  0.02652  0  0.113988  0.100911  0  0.960186  0
H  H12  1  0.87622126  0.66414402  0.59978758  1  0.090189  0  0.113374  0.100934  0  0.965719  0
H  H13  1  0.12979082  0.68419407  0.44541764  1  0.077463  0  0.112571  0.103476  0  0.972639  0
H  H14  1  0.88089002  0.67951640  0.43878300  1  0.056799  0  0.11382  0.101951  0  0.962103  0
H  H15  1  0.12644494  0.45642888  0.68938800  1  0.067015  0  0.110729  0.09787  0  0.984779  0
H  H16  1  0.87719498  0.46054311  0.69221226  1  0.07985  0  0.110574  0.098243  0  0.978534  0
H  H17  1  0.62893002  0.08753167  0.31731371  1  0.052541  0  0.088883  0.078626  0  1.020484  0
H  H18  1  0.25434363  0.06665191  0.48376057  1  0.074661  0  0.091171  0.076518  0  1.004555  0
H  H19  1  0.74468602  0.93400652  0.50416377  1  0.086127  0  0.091553  0.077524  0  1.002635  0
H  H20  1  0.37029004  0.91302986  0.66926252  1  0.044318  0  0.094383  0.077856  0  0.998383  0
H  H21  1  0.60405888  0.07941418  0.68236668  1  0.05215  0  0.095237  0.080852  0  0.995682  0
H  H22  1  0.70687573  0.58732205  0.10745401  1  0.060404  0  0.085909  0.090538  0  1.015962  0
H  H23  1  0.28156341  0.44950853  0.10834762  1  0.032336  0  0.085161  0.088179  0  1.016886  0
H  H24  1  0.56326633  0.68701896  0.10282416  1  0.050469  0  0.095118  0.099212  0  0.964796  0
H  H25  1  0.31880642  0.60797445  0.12078749  1  0.041123  0  0.093431  0.096398  0  0.974105  0
H  H26  1  0.58527036  0.68754709  0.88903195  1  0.050502  0  0.092491  0.09211  0  0.973062  0
H  H27  1  0.32335364  0.63085011  0.90686542  1  0.035601  0  0.089209  0.088211  0  0.982323  0
H  H28  1  0.70796685  0.56739502  0.89330510  1  0.032906  0  0.088679  0.089114  0  0.994614  0
H  H29  1  0.26853596  0.47579127  0.89571540  1  0.031277  0  0.088496  0.087964  0  0.990121  0
C  C30  1  0.50552421  0.49702514  0.26268583  1  1.625165  0  0.21295  0.581373  0  4.130095  0
C  C31  1  0.49318749  0.12493999  0.49408096  1  -0.010861  0  -0.011153  -0.027034  0  3.65392  0
C  C32  1  0.60201179  0.59852461  0.06915839  1  -0.087408  0  -0.165521  -0.172085  0  3.877812  0
C  C33  1  0.35273776  0.52313142  0.07585258  1  -0.044464  0  -0.167428  -0.177561  0  3.882705  0
C  C34  1  0.60501109  0.59570276  0.92776411  1  -0.022791  0  -0.162221  -0.178341  0  3.869107  0
C  C35  1  0.34949886  0.53663224  0.93492378  1  -0.020522  0  -0.166779  -0.179078  0  3.89352  0
C  C36  1  0.54722828  0.37141451  0.06715124  1  0.197272  0  0.076879  0.265564  0  3.637377  0
C  C37  1  0.50265055  0.49708818  0.12148462  1  0.013944  0  -0.019487  -0.045701  0  3.774354  0
C  C38  1  0.49285046  0.50374040  0.88092023  1  0.05899  0  -0.0173  0.04444  0  3.796799  0
C  C39  1  0.53038355  0.37355508  0.92616036  1  -0.034671  0  -0.165041  -0.278901  0  3.846504  0
C  C40  1  0.08129102  0.44928332  0.38408884  1  0.288942  0  -0.067875  -0.085712  0  3.813513  0
C  C41  1  0.91915300  0.44458785  0.38660621  1  0.159053  0  -0.072411  -0.09822  0  3.822345  0
C  C42  1  0.08098808  0.42019603  0.60453535  1  0.180393  0  -0.069131  -0.09302  0  3.814284  0
C  C43  1  0.91860858  0.42147522  0.60713923  1  0.269886  0  -0.066985  -0.08465  0  3.812931  0
C  C44  1  0.08340497  0.62636117  0.51831708  1  0.286567  0  -0.068397  -0.089846  0  3.825618  0
C  C45  1  0.92148421  0.62577056  0.51591442  1  0.210187  0  -0.068014  -0.087803  0  3.830946  0
C  C46  1  0.49467546  0.26149642  0.50006704  1  1.583444  0  0.211378  0.591223  0  4.186588  0
C  C47  1  0.49451334  0.50411484  0.74055447  1  1.560595  0  0.220151  0.588898  0  4.105153  0
C  C48  1  0.50484400  0.73888033  0.49314215  1  1.498318  0  0.211859  0.592394  0  4.188652  0
C  C49  1  0.57218625  0.04693503  0.39550042  1  -0.012144  0  -0.080842  -0.072027  0  3.641309  0
C  C50  1  0.36296399  0.03597128  0.48780644  1  -0.072339  0  -0.083267  -0.073121  0  3.659039  0
C  C51  1  0.44074673  0.95840420  0.38830297  1  -0.015781  0  -0.079278  -0.065864  0  3.640938  0
C  C52  1  0.50618595  0.87569916  0.49117785  1  0.078414  0  -0.009926  -0.028668  0  3.655181  0
C  C53  1  0.63615507  0.96473987  0.49911407  1  -0.0691  0  -0.083641  -0.069899  0  3.65427  0
C  C54  1  0.42714926  0.95393229  0.59115270  1  -0.007794  0  -0.074715  -0.061436  0  3.634321  0
C  C55  1  0.55826038  0.04211316  0.59841018  1  -0.031282  0  -0.0741  -0.062616  0  3.629813  0
N  N56  1  0.13537452  0.49895100  0.50187259  1  -0.985495  0  -0.34109  -0.102594  0  3.456586  0
N  N57  1  0.86623657  0.49745014  0.50348493  1  -0.981068  0  -0.340728  -0.104733  0  3.455483  0
Cl  Cl58  1  0.72821396  0.33841719  0.10436942  1  -0.238318  0  -0.047355  -0.148789  0  1.387631  0
Cl  Cl59  1  0.44308347  0.24563733  0.13168873  1  -0.231  0  -0.041136  -0.136222  0  1.391351  0
O  O60  1  0.62043852  0.52557735  0.31409867  1  -1.166397  0  -0.312085  -0.542269  0  2.352905  0
O  O61  1  0.39079591  0.47027666  0.31697091  1  -1.17125  0  -0.313305  -0.550776  0  2.404714  0
O  O62  1  0.61254042  0.31492806  0.47817480  1  -1.160487  0  -0.319853  -0.550127  0  2.328562  0
O  O63  1  0.38082116  0.31452058  0.52881250  1  -1.169651  0  -0.321098  -0.555203  0  2.316174  0
O  O64  1  0.60970707  0.47581987  0.68936580  1  -1.179113  0  -0.316994  -0.553631  0  2.336478  0
O  O65  1  0.38220389  0.53259393  0.68563282  1  -1.172432  0  -0.314781  -0.550831  0  2.342021  0
O  O66  1  0.61706084  0.68518238  0.52453697  1  -1.174475  0  -0.317884  -0.55496  0  2.339221  0
O  O67  1  0.38920682  0.68570321  0.46528235  1  -1.17484  0  -0.321709  -0.555935  0  2.326433  0
