# generated using pymatgen
data_Zn4H28C34N4O13
_symmetry_space_group_name_H-M   'P 1'
_cell_length_a   18.62243220
_cell_length_b   18.63369355
_cell_length_c   25.09327490
_cell_angle_alpha   111.71932721
_cell_angle_beta   111.70674323
_cell_angle_gamma   90.17538972
_symmetry_Int_Tables_number   1
_chemical_formula_structural   Zn4H28C34N4O13
_chemical_formula_sum   'Zn8 H56 C68 N8 O26'
_cell_volume   7416.27540369
_cell_formula_units_Z   2
loop_
 _symmetry_equiv_pos_site_id
 _symmetry_equiv_pos_as_xyz
  1  'x, y, z'
loop_
 _atom_site_type_symbol
 _atom_site_label
 _atom_site_symmetry_multiplicity
 _atom_site_fract_x
 _atom_site_fract_y
 _atom_site_fract_z
 _atom_site_occupancy
 _atom_site_pbe_bader_charge
 _atom_site_pbe_bader_spin_density
 _atom_site_pbe_cm5_charge
 _atom_site_pbe_ddec_charge
 _atom_site_pbe_ddec_spin_density
 _atom_site_pbe_ddec_sum_bond_order
 _atom_site_pbe_magmom
Zn  Zn0  1  0.47256843  0.05911505  0.94655968  1  1.305641  0  0.669408  0.955739  0  2.38316  0
Zn  Zn1  1  0.88762261  0.47380919  0.94666785  1  1.311693  0  0.670401  0.957928  0  2.380305  0
Zn  Zn2  1  0.47399600  0.88742158  0.94653803  1  1.312383  0  0.669499  0.955511  0  2.383487  0
Zn  Zn3  1  0.05897146  0.47286166  0.94662880  1  1.304781  0  0.670354  0.957846  0  2.381426  0
Zn  Zn4  1  0.61241022  0.02655211  0.05339988  1  1.316393  0  0.66796  0.962092  0  2.385019  0
Zn  Zn5  1  0.02675382  0.61246806  0.05369602  1  1.316742  0  0.668674  0.962852  0  2.385268  0
Zn  Zn6  1  0.44100222  0.02684950  0.05337803  1  1.308552  0  0.668123  0.962566  0  2.384186  0
Zn  Zn7  1  0.02689096  0.44126660  0.05370921  1  1.308635  0  0.66843  0.962917  0  2.384769  0
H  H8  1  0.22839047  0.32154077  0.93590850  1  0.091742  0  0.113105  0.111278  0  0.975847  0
H  H9  1  0.61352806  0.22904222  0.93627661  1  0.121939  0  0.113359  0.109475  0  0.982031  0
H  H10  1  0.70751680  0.61442711  0.93579622  1  0.091419  0  0.112848  0.110978  0  0.975995  0
H  H11  1  0.32283509  0.70722533  0.93629686  1  0.087229  0  0.113633  0.109829  0  0.983142  0
H  H12  1  0.22050669  0.61561076  0.92917979  1  0.101785  0  0.112827  0.108774  0  0.97972  0
H  H13  1  0.61632352  0.70915459  0.92992784  1  0.105194  0  0.113056  0.110958  0  0.975472  0
H  H14  1  0.70877023  0.31353836  0.92918587  1  0.083447  0  0.113119  0.108944  0  0.980668  0
H  H15  1  0.31372561  0.22092921  0.93005388  1  0.098127  0  0.113211  0.111361  0  0.976135  0
H  H16  1  0.19054084  0.27290712  0.02869623  1  0.086602  0  0.113146  0.130673  0  0.985717  0
H  H17  1  0.75563169  0.18953622  0.02676608  1  0.086377  0  0.113254  0.131305  0  0.983908  0
H  H18  1  0.83815319  0.75578137  0.02862443  1  0.054177  0  0.11299  0.13067  0  0.984886  0
H  H19  1  0.27117987  0.83719757  0.02676311  1  0.086647  0  0.11342  0.131962  0  0.98407  0
H  H20  1  0.20680693  0.75111093  0.04003770  1  0.096874  0  0.113596  0.131544  0  0.983712  0
H  H21  1  0.75241320  0.83443274  0.03996989  1  0.107548  0  0.113095  0.130741  0  0.984941  0
H  H22  1  0.83328245  0.28884371  0.04005138  1  0.053023  0  0.113699  0.132033  0  0.982921  0
H  H23  1  0.28764975  0.20567959  0.04010243  1  0.080702  0  0.113077  0.130456  0  0.985551  0
H  H24  1  0.41697377  0.87823295  0.63636404  1  0.079487  0  0.104996  0.107071  0  1.016527  0
H  H25  1  0.73704386  0.23592683  0.63619746  1  0.067609  0  0.103551  0.104805  0  1.025272  0
H  H26  1  0.21954625  0.75821294  0.63632559  1  0.072599  0  0.104799  0.1067  0  1.017783  0
H  H27  1  0.89918549  0.40022835  0.63618212  1  0.080145  0  0.103578  0.104744  0  1.025189  0
H  H28  1  0.21615973  0.79242595  0.36394241  1  0.12952  0  0.108191  0.107875  0  1.006721  0
H  H29  1  0.56897160  0.15628369  0.36362943  1  0.105862  0  0.108046  0.107089  0  1.008294  0
H  H30  1  0.14793689  0.57155305  0.36398209  1  0.080633  0  0.108285  0.107548  0  1.00684  0
H  H31  1  0.79455465  0.20728867  0.36362689  1  0.110906  0  0.108457  0.107475  0  1.009565  0
H  H32  1  0.15506500  0.73435007  0.24673846  1  0.095049  0  0.110338  0.116191  0  0.987476  0
H  H33  1  0.51018298  0.09944035  0.24641232  1  0.076931  0  0.110351  0.116949  0  0.987025  0
H  H34  1  0.09174688  0.51236996  0.24679096  1  0.079154  0  0.110539  0.116879  0  0.986992  0
H  H35  1  0.73615808  0.14679578  0.24640156  1  0.095741  0  0.110431  0.117173  0  0.987524  0
H  H36  1  0.60423783  0.08911924  0.84691421  1  0.055065  0  0.079922  0.106659  0  1.028355  0
H  H37  1  0.61226650  0.06376392  0.77400678  1  0.006944  0  0.08147  0.102984  0  1.012722  0
H  H38  1  0.56983826  0.14689945  0.80284565  1  -0.004483  0  0.083528  0.107486  0  1.005181  0
H  H39  1  0.46400864  0.03460354  0.71882159  1  0.027672  0  0.087469  0.076294  0  0.976201  0
H  H40  1  0.45668671  0.05998824  0.79160960  1  0.032121  0  0.088006  0.084326  0  0.985877  0
H  H41  1  0.53019934  0.95175732  0.80786909  1  0.058945  0  0.091229  0.090375  0  0.991548  0
H  H42  1  0.53566585  0.92600124  0.73455225  1  0.024999  0  0.093643  0.092537  0  0.973816  0
H  H43  1  0.79136696  0.23913876  0.85859688  1  0.033046  0  0.079219  0.106723  0  1.036093  0
H  H44  1  0.75089041  0.15386912  0.78799184  1  0.006152  0  0.082547  0.105601  0  1.01316  0
H  H45  1  0.84600816  0.16135884  0.84421289  1  0.02891  0  0.084943  0.110382  0  1.0027  0
H  H46  1  0.85596679  0.18742473  0.75543737  1  -0.003836  0  0.087325  0.075427  0  0.973714  0
H  H47  1  0.89618129  0.27128360  0.82586927  1  0.027089  0  0.084618  0.073614  0  0.993992  0
H  H48  1  0.76911243  0.32398032  0.79510500  1  0.07257  0  0.094298  0.104286  0  0.993621  0
H  H49  1  0.73006651  0.23921711  0.72462910  1  0.012654  0  0.093079  0.092561  0  0.978141  0
H  H50  1  0.24265463  0.75785069  0.84688117  1  0.029714  0  0.079701  0.10656  0  1.02817  0
H  H51  1  0.16169300  0.71030220  0.77399534  1  0.027854  0  0.081474  0.103511  0  1.012872  0
H  H52  1  0.23297484  0.65602234  0.80282595  1  0.017239  0  0.083611  0.107965  0  1.004944  0
H  H53  1  0.25474704  0.68422385  0.71876654  1  0.016463  0  0.087671  0.076633  0  0.975173  0
H  H54  1  0.33486270  0.73158454  0.79154515  1  0.044249  0  0.088159  0.084937  0  0.985366  0
H  H55  1  0.27766595  0.85611234  0.80781028  1  0.057638  0  0.091195  0.089836  0  0.989917  0
H  H56  1  0.19895060  0.80861247  0.73446104  1  0.031516  0  0.093801  0.092443  0  0.972159  0
H  H57  1  0.06708635  0.61941778  0.85859723  1  0.031558  0  0.07918  0.106955  0  1.035536  0
H  H58  1  0.03703943  0.63415297  0.78802156  1  0.018317  0  0.08243  0.105372  0  1.014112  0
H  H59  1  0.99810519  0.68285552  0.84422186  1  0.012415  0  0.08488  0.110742  0  1.003107  0
H  H60  1  0.89938249  0.56804746  0.75536605  1  -0.005337  0  0.086819  0.074896  0  0.973864  0
H  H61  1  0.92949196  0.55460565  0.82579970  1  0.013862  0  0.084556  0.073663  0  0.994984  0
H  H62  1  0.02591232  0.47120705  0.79513775  1  0.058578  0  0.094404  0.104675  0  0.992633  0
H  H63  1  0.99450038  0.48543496  0.72463792  1  0.015221  0  0.092842  0.092765  0  0.976772  0
C  C64  1  0.58487706  0.08478809  0.16972400  1  1.574993  0  0.227692  0.60167  0  4.171511  0
C  C65  1  0.08500924  0.58507260  0.17008200  1  1.586392  0  0.227179  0.601497  0  4.171173  0
C  C66  1  0.21991087  0.71988196  0.43972590  1  0.966447  0  0.240837  0.248693  0  3.978502  0
C  C67  1  0.71966291  0.21967866  0.43938721  1  0.8907  0  0.240449  0.244093  0  3.985031  0
C  C68  1  0.28047307  0.78043360  0.56080646  1  0.902792  0  0.243827  0.25974  0  3.963412  0
C  C69  1  0.78024995  0.28021171  0.56048660  1  0.886451  0  0.242887  0.257147  0  3.964244  0
C  C70  1  0.18814290  0.73139895  0.33790214  1  -0.029189  0  -0.079121  -0.106924  0  3.964334  0
C  C71  1  0.60497860  0.15442640  0.33756577  1  -0.124636  0  -0.079037  -0.106212  0  3.960626  0
C  C72  1  0.14986562  0.60652577  0.33791723  1  0.065223  0  -0.079651  -0.106972  0  3.962551  0
C  C73  1  0.73249629  0.18303613  0.33757110  1  0.006563  0  -0.079999  -0.106724  0  3.962656  0
C  C74  1  0.15462013  0.69907013  0.27290261  1  -0.050105  0  -0.078267  -0.083521  0  3.964484  0
C  C75  1  0.57246824  0.12260944  0.27256975  1  0.091743  0  -0.078169  -0.084177  0  3.963338  0
C  C76  1  0.11831831  0.57382544  0.27290943  1  -0.032827  0  -0.078105  -0.084027  0  3.964699  0
C  C77  1  0.70003865  0.14977561  0.27257362  1  -0.040138  0  -0.077852  -0.084784  0  3.963069  0
C  C78  1  0.11996031  0.61997970  0.23996475  1  -0.093872  0  -0.013353  -0.032229  0  3.963921  0
C  C79  1  0.61978540  0.11968054  0.23960825  1  -0.096264  0  -0.014304  -0.032106  0  3.963422  0
C  C80  1  0.18552800  0.68549203  0.37095728  1  -0.042312  0  -0.000942  0.023821  0  3.99155  0
C  C81  1  0.68526186  0.18526128  0.37062568  1  0.027506  0  -0.000706  0.025467  0  3.991384  0
C  C82  1  0.41505775  0.91500939  0.83006393  1  1.613125  0  0.231905  0.616914  0  4.178493  0
C  C83  1  0.91504049  0.41510792  0.83023075  1  1.600081  0  0.233108  0.618894  0  4.16518  0
C  C84  1  0.63673346  0.13487050  0.99769529  1  1.534695  0  0.217735  0.635922  0  4.197898  0
C  C85  1  0.86273083  0.63679268  0.99913519  1  1.564945  0  0.218101  0.638882  0  4.190772  0
C  C86  1  0.36107000  0.86277192  0.99771869  1  1.529384  0  0.218487  0.6379  0  4.192128  0
C  C87  1  0.13633329  0.36234330  0.99919831  1  1.568466  0  0.218802  0.639128  0  4.192575  0
C  C88  1  0.63636007  0.86198944  0.00060998  1  1.526107  0  0.217881  0.636997  0  4.194551  0
C  C89  1  0.86201770  0.36369296  0.99959481  1  1.526911  0  0.219399  0.639359  0  4.19071  0
C  C90  1  0.36426502  0.13868019  0.00072121  1  1.527161  0  0.218549  0.639272  0  4.191039  0
C  C91  1  0.13754683  0.63584698  0.99953087  1  1.530911  0  0.218359  0.637172  0  4.195389  0
C  C92  1  0.23387761  0.28909486  0.96530265  1  -0.003874  0  -0.064919  -0.019447  0  3.97055  0
C  C93  1  0.67551493  0.23419241  0.96496560  1  -0.017703  0  -0.063265  -0.018193  0  3.972653  0
C  C94  1  0.73141403  0.67626453  0.96518776  1  -0.051535  0  -0.064811  -0.019386  0  3.970898  0
C  C95  1  0.28952386  0.73073401  0.96497708  1  0.0602  0  -0.063879  -0.018848  0  3.974641  0
C  C96  1  0.23324961  0.67572755  0.96399111  1  -0.003932  0  -0.063887  -0.019579  0  3.973815  0
C  C97  1  0.67661291  0.73148627  0.96443691  1  0.015868  0  -0.065048  -0.019383  0  3.970085  0
C  C98  1  0.73081293  0.28822793  0.96399624  1  0.00963  0  -0.064488  -0.019313  0  3.972757  0
C  C99  1  0.28794247  0.23313254  0.96456718  1  -0.029899  0  -0.065052  -0.019841  0  3.969896  0
C  C100  1  0.18950792  0.30375524  0.99907611  1  -0.036424  0  -0.085083  -0.221054  0  3.871961  0
C  C101  1  0.69499023  0.18885465  0.99785447  1  -0.052021  0  -0.084307  -0.223233  0  3.87317  0
C  C102  1  0.80952777  0.69533215  0.99899687  1  0.042806  0  -0.084551  -0.221142  0  3.871921  0
C  C103  1  0.30293178  0.80895887  0.99787842  1  -0.119837  0  -0.084801  -0.224372  0  3.872189  0
C  C104  1  0.19588746  0.69303676  0.00306794  1  -0.051278  0  -0.08382  -0.221918  0  3.875054  0
C  C105  1  0.69405765  0.80792022  0.00348565  1  -0.11896  0  -0.08464  -0.220362  0  3.87215  0
C  C106  1  0.80723790  0.30997177  0.00309347  1  -0.0287  0  -0.084208  -0.224005  0  3.874753  0
C  C107  1  0.30952197  0.19572146  0.00362035  1  -0.028347  0  -0.085009  -0.220723  0  3.86997  0
C  C108  1  0.42065499  0.89821335  0.72772563  1  -0.093876  0  0.000289  0.115201  0  3.945442  0
C  C109  1  0.81698340  0.31661912  0.72747966  1  0.11382  0  0.002395  0.120603  0  3.929553  0
C  C110  1  0.30719850  0.82955284  0.72770137  1  -0.050627  0  -3.3e-05  0.113803  0  3.941571  0
C  C111  1  0.91046285  0.41084265  0.72748103  1  0.07439  0  0.002584  0.122853  0  3.92742  0
C  C112  1  0.38680106  0.86530420  0.66242805  1  0.084208  0  -0.085372  -0.173988  0  3.948603  0
C  C113  1  0.78536845  0.28487888  0.66219822  1  -0.076407  0  -0.086803  -0.175707  0  3.951001  0
C  C114  1  0.27577721  0.79719611  0.66240166  1  0.03122  0  -0.085566  -0.173308  0  3.948858  0
C  C115  1  0.87686492  0.37725814  0.66218603  1  -0.061365  0  -0.08685  -0.176664  0  3.950352  0
C  C116  1  0.31481473  0.81477089  0.62945105  1  0.026817  0  -0.010412  0.023203  0  4.050145  0
C  C117  1  0.81459480  0.31452207  0.62912112  1  -0.047545  0  -0.009185  0.027472  0  4.04724  0
C  C118  1  0.38002064  0.87998175  0.75991879  1  -0.074256  0  -0.007682  -0.127023  0  3.873923  0
C  C119  1  0.87998499  0.38002040  0.76003118  1  -0.076072  0  -0.007159  -0.131331  0  3.846087  0
C  C120  1  0.49922287  0.95087872  0.76077889  1  -0.035687  0  -0.159573  -0.194415  0  3.960097  0
C  C121  1  0.49380287  0.03544147  0.76609423  1  -0.001786  0  -0.164783  -0.087618  0  3.952595  0
C  C122  1  0.57439759  0.08658674  0.79922468  1  -0.065489  0  -0.246583  -0.351207  0  3.984611  0
C  C123  1  0.78462382  0.27921364  0.75982194  1  -0.029573  0  -0.163681  -0.205003  0  3.954279  0
C  C124  1  0.84073744  0.23249265  0.79096120  1  0.010978  0  -0.164464  -0.083987  0  3.95913  0
C  C125  1  0.80539452  0.19458328  0.82217689  1  -0.063535  0  -0.246733  -0.352303  0  3.978579  0
C  C126  1  0.26160071  0.80992554  0.76071164  1  -0.045877  0  -0.159408  -0.192621  0  3.953179  0
C  C127  1  0.27224418  0.73067295  0.76603244  1  -0.004361  0  -0.165154  -0.088525  0  3.950309  0
C  C128  1  0.22477976  0.71270371  0.79918750  1  -0.086646  0  -0.246645  -0.352813  0  3.984744  0
C  C129  1  0.97510748  0.48062565  0.75981910  1  -0.013179  0  -0.163516  -0.206548  0  3.951386  0
C  C130  1  0.95007992  0.55847948  0.79090998  1  0.030328  0  -0.164144  -0.083241  0  3.959622  0
C  C131  1  0.01666046  0.62759096  0.82217988  1  -0.064024  0  -0.246369  -0.352748  0  3.979565  0
N  N132  1  0.22708497  0.71391004  0.53103205  1  -0.477158  0  -0.157894  -0.151717  0  3.209521  0
N  N133  1  0.82219386  0.29550707  0.53065478  1  -0.593007  0  -0.156567  -0.149432  0  3.212736  0
N  N134  1  0.30403895  0.81717753  0.53100365  1  -0.637924  0  -0.158315  -0.152675  0  3.208934  0
N  N135  1  0.70844368  0.23515806  0.53068907  1  -0.591421  0  -0.156277  -0.14878  0  3.21155  0
N  N136  1  0.19569114  0.68359690  0.46943635  1  -0.632254  0  -0.157381  -0.151539  0  3.216749  0
N  N137  1  0.79097513  0.26543799  0.46909330  1  -0.489502  0  -0.156503  -0.14951  0  3.221312  0
N  N138  1  0.27381838  0.78589014  0.46940990  1  -0.481  0  -0.157089  -0.15092  0  3.216377  0
N  N139  1  0.67807245  0.20368071  0.46912557  1  -0.487477  0  -0.156974  -0.150327  0  3.222203  0
O  O140  1  0.49987541  0.99983360  0.99970108  1  -1.223477  0  -0.572108  -1.028764  0  2.538784  0
O  O141  1  0.99999650  0.50002929  0.00002585  1  -1.223615  0  -0.572588  -1.028871  0  2.538729  0
O  O142  1  0.51026479  0.06797342  0.14264990  1  -1.15063  0  -0.314579  -0.546327  0  2.338032  0
O  O143  1  0.06872758  0.51048118  0.14304113  1  -1.148202  0  -0.314583  -0.546513  0  2.337256  0
O  O144  1  0.63243879  0.07460823  0.14267285  1  -1.173415  0  -0.314126  -0.546113  0  2.340356  0
O  O145  1  0.07425345  0.63263056  0.14304396  1  -1.169877  0  -0.313911  -0.545481  0  2.338021  0
O  O146  1  0.42568878  0.98944884  0.85694672  1  -1.157781  0  -0.305716  -0.539589  0  2.342563  0
O  O147  1  0.86805772  0.43612275  0.85735999  1  -1.170458  0  -0.308675  -0.54571  0  2.34801  0
O  O148  1  0.43125379  0.86740749  0.85690495  1  -1.167474  0  -0.305152  -0.538791  0  2.343809  0
O  O149  1  0.98914381  0.42119060  0.85736041  1  -1.156556  0  -0.308636  -0.545927  0  2.347632  0
O  O150  1  0.66432812  0.10175953  0.03588490  1  -1.154297  0  -0.319754  -0.548978  0  2.299408  0
O  O151  1  0.93442180  0.66439752  0.03677166  1  -1.165587  0  -0.320853  -0.552131  0  2.295764  0
O  O152  1  0.37156307  0.93409796  0.03581233  1  -1.167004  0  -0.319981  -0.549639  0  2.296992  0
O  O153  1  0.10240397  0.37246152  0.03693449  1  -1.161389  0  -0.321036  -0.552412  0  2.296596  0
O  O154  1  0.66339253  0.93321091  0.03948623  1  -1.161952  0  -0.320267  -0.550399  0  2.296257  0
O  O155  1  0.93284314  0.37615946  0.03908782  1  -1.165623  0  -0.319038  -0.548525  0  2.298427  0
O  O156  1  0.37595245  0.10622128  0.03952094  1  -1.165463  0  -0.320348  -0.551319  0  2.296976  0
O  O157  1  0.10611140  0.66287508  0.03895602  1  -1.154116  0  -0.318736  -0.547852  0  2.300155  0
O  O158  1  0.39527197  0.83482999  0.96041441  1  -1.160581  0  -0.317822  -0.553108  0  2.323396  0
O  O159  1  0.12848437  0.39761282  0.96282100  1  -1.177867  0  -0.319033  -0.552113  0  2.320649  0
O  O160  1  0.56524048  0.12536852  0.96030017  1  -1.178548  0  -0.317583  -0.552143  0  2.324179  0
O  O161  1  0.83413094  0.56512605  0.96289607  1  -1.172772  0  -0.319075  -0.552447  0  2.319589  0
O  O162  1  0.39503198  0.12633277  0.96089478  1  -1.185166  0  -0.320274  -0.554266  0  2.320726  0
O  O163  1  0.12303031  0.56576205  0.95839905  1  -1.17923  0  -0.318021  -0.555846  0  2.326082  0
O  O164  1  0.56580617  0.83445311  0.96074954  1  -1.174017  0  -0.319703  -0.552794  0  2.323067  0
O  O165  1  0.83541566  0.39261968  0.95843665  1  -1.162288  0  -0.318343  -0.556362  0  2.32354  0
