# generated using pymatgen
data_Cd2H11C16N5O7
_symmetry_space_group_name_H-M   'P 1'
_cell_length_a   13.60285189
_cell_length_b   14.28536084
_cell_length_c   14.28533582
_cell_angle_alpha   75.24538384
_cell_angle_beta   69.10817280
_cell_angle_gamma   69.10812041
_symmetry_Int_Tables_number   1
_chemical_formula_structural   Cd2H11C16N5O7
_chemical_formula_sum   'Cd8 H44 C64 N20 O28'
_cell_volume   2396.94489843
_cell_formula_units_Z   4
loop_
 _symmetry_equiv_pos_site_id
 _symmetry_equiv_pos_as_xyz
  1  'x, y, z'
loop_
 _atom_site_type_symbol
 _atom_site_label
 _atom_site_symmetry_multiplicity
 _atom_site_fract_x
 _atom_site_fract_y
 _atom_site_fract_z
 _atom_site_occupancy
 _atom_site_pbe_bader_charge
 _atom_site_pbe_bader_spin_density
 _atom_site_pbe_cm5_charge
 _atom_site_pbe_ddec_charge
 _atom_site_pbe_ddec_spin_density
 _atom_site_pbe_ddec_sum_bond_order
 _atom_site_pbe_magmom
Cd  Cd0  1  0.61842817  0.33994208  0.32604146  1  1.281616  0  0.753059  0.899676  0  2.198684  0
Cd  Cd1  1  0.88157160  0.67395842  0.66005704  1  1.281592  0  0.753063  0.899698  0  2.198653  0
Cd  Cd2  1  0.38157146  0.66005710  0.67395896  1  1.281563  0  0.753052  0.899669  0  2.198686  0
Cd  Cd3  1  0.11842778  0.32604151  0.33994258  1  1.281615  0  0.753041  0.899657  0  2.19872  0
Cd  Cd4  1  0.58058827  0.43232014  0.57969461  1  1.310193  0  0.769104  0.950862  0  2.237775  0
Cd  Cd5  1  0.91941040  0.42030512  0.56767914  1  1.31026  0  0.769106  0.950816  0  2.237841  0
Cd  Cd6  1  0.41941002  0.56767827  0.42030576  1  1.310278  0  0.769103  0.950812  0  2.237828  0
Cd  Cd7  1  0.08058819  0.57969481  0.43232144  1  1.310267  0  0.769105  0.950847  0  2.237749  0
H  H8  1  0.70499222  0.22787496  0.63245157  1  0.624492  0  0.322629  0.403517  0  0.876759  0
H  H9  1  0.79500744  0.36754950  0.77212696  1  0.624471  0  0.322689  0.403606  0  0.876649  0
H  H10  1  0.29500722  0.77212725  0.36754953  1  0.624467  0  0.322671  0.403591  0  0.876671  0
H  H11  1  0.20499249  0.63245120  0.22787647  1  0.62449  0  0.322675  0.403557  0  0.876764  0
H  H12  1  0.58439343  0.22245707  0.68297245  1  0.639749  0  0.295021  0.399265  0  0.931785  0
H  H13  1  0.91560643  0.31702929  0.77754743  1  0.639687  0  0.294997  0.399178  0  0.931885  0
H  H14  1  0.41560655  0.77754590  0.31702827  1  0.63968  0  0.294996  0.399205  0  0.931851  0
H  H15  1  0.08439429  0.68297142  0.22245643  1  0.639748  0  0.295021  0.399235  0  0.931828  0
H  H16  1  0.36563506  0.04858032  0.90400720  1  0.429154  0  0.319032  0.267742  0  0.950076  0
H  H17  1  0.13436614  0.09599018  0.95141715  1  0.429124  0  0.319045  0.267771  0  0.950047  0
H  H18  1  0.63436480  0.95141808  0.09599054  1  0.429139  0  0.319033  0.267756  0  0.950063  0
H  H19  1  0.86563584  0.90400899  0.04858037  1  0.429158  0  0.319018  0.267727  0  0.950075  0
H  H20  1  0.28627923  0.13836656  0.04775106  1  0.103336  0  0.103595  0.116597  0  1.007857  0
H  H21  1  0.21372088  0.95224912  0.86163223  1  0.103331  0  0.103588  0.116583  0  1.007891  0
H  H22  1  0.71372039  0.86163261  0.95224936  1  0.103341  0  0.103586  0.116571  0  1.007892  0
H  H23  1  0.78627929  0.04775081  0.13836711  1  0.103332  0  0.103602  0.116604  0  1.007844  0
H  H24  1  0.40179445  0.28736423  0.74281735  1  0.121444  0  0.106686  0.121489  0  1.052977  0
H  H25  1  0.09820567  0.25718153  0.71263581  1  0.121475  0  0.106688  0.121485  0  1.052883  0
H  H26  1  0.59820468  0.71263646  0.25718215  1  0.121448  0  0.106686  0.121479  0  1.05293  0
H  H27  1  0.90179292  0.74281840  0.28736477  1  0.121457  0  0.106681  0.121465  0  1.052921  0
H  H28  1  0.24783848  0.45739700  0.99212297  1  0.121818  0  0.110387  0.126844  0  1.003025  0
H  H29  1  0.25216248  0.00787813  0.54260167  1  0.121872  0  0.110382  0.126809  0  1.003046  0
H  H30  1  0.75216193  0.54260218  0.00787788  1  0.121889  0  0.11039  0.126845  0  1.00303  0
H  H31  1  0.74783877  0.99212332  0.45739691  1  0.121838  0  0.110396  0.126863  0  1.002991  0
H  H32  1  0.46972360  0.90518391  0.90922711  1  0.028928  0  0.101507  0.090359  0  1.010543  0
H  H33  1  0.03027743  0.09076954  0.09481822  1  0.02888  0  0.101502  0.09034  0  1.010515  0
H  H34  1  0.53027686  0.09481753  0.09076965  1  0.028881  0  0.101492  0.090343  0  1.010508  0
H  H35  1  0.96972584  0.90922814  0.90518414  1  0.028905  0  0.101519  0.090383  0  1.010516  0
H  H36  1  0.53469841  0.73020156  0.87332156  1  0.084423  0  0.114202  0.118012  0  0.970462  0
H  H37  1  0.96530145  0.12667672  0.26979975  1  0.084385  0  0.114216  0.118041  0  0.970427  0
H  H38  1  0.46530150  0.26979913  0.12667697  1  0.084441  0  0.114186  0.117959  0  0.970484  0
H  H39  1  0.03469768  0.87332398  0.73020185  1  0.083775  0  0.11423  0.118018  0  0.970431  0
H  H40  1  0.60837852  0.83860934  0.55292735  1  0.075677  0  0.109122  0.109608  0  0.988474  0
H  H41  1  0.89162229  0.44707034  0.16139095  1  0.075729  0  0.109126  0.109616  0  0.98848  0
H  H42  1  0.39162188  0.16138983  0.44707071  1  0.075721  0  0.109111  0.109587  0  0.988499  0
H  H43  1  0.10837994  0.55292809  0.83861018  1  0.075697  0  0.109105  0.109597  0  0.988467  0
H  H44  1  0.54365516  0.01610192  0.58867798  1  0.125984  0  0.112553  0.116723  0  0.995991  0
H  H45  1  0.95634457  0.41131830  0.98389974  1  0.126039  0  0.112546  0.116719  0  0.996067  0
H  H46  1  0.45634239  0.98389875  0.41131856  1  0.125945  0  0.112546  0.11672  0  0.996049  0
H  H47  1  0.04366105  0.58867938  0.01610251  1  0.125905  0  0.112542  0.116716  0  0.995999  0
H  H48  1  0.45828137  0.35769072  0.52176997  1  0.565452  0  0.289791  0.37905  0  0.922199  0
H  H49  1  0.04171745  0.47822890  0.64231045  1  0.565449  0  0.289734  0.378944  0  0.922297  0
H  H50  1  0.54171776  0.64230997  0.47822953  1  0.565453  0  0.289751  0.378967  0  0.922246  0
H  H51  1  0.95828138  0.52177027  0.35768954  1  0.565433  0  0.289759  0.378998  0  0.922258  0
C  C52  1  0.62290548  0.66919371  0.68718765  1  0.962493  0  0.237311  0.262902  0  4.003933  0
C  C53  1  0.87709421  0.31281229  0.33080732  1  0.96226  0  0.23731  0.262916  0  4.003912  0
C  C54  1  0.37709390  0.33080622  0.31281267  1  0.962498  0  0.2373  0.262937  0  4.00387  0
C  C55  1  0.12290595  0.68718765  0.66919412  1  0.962493  0  0.237269  0.262854  0  4.003993  0
C  C56  1  0.25807148  0.29859867  0.02932847  1  0.009394  0  -0.01598  -0.003946  0  3.989097  0
C  C57  1  0.24192838  0.97067191  0.70139993  1  0.009407  0  -0.015933  -0.003818  0  3.989088  0
C  C58  1  0.74192814  0.70140051  0.97067195  1  0.009429  0  -0.015929  -0.003893  0  3.989046  0
C  C59  1  0.75807232  0.02932877  0.29859763  1  0.009451  0  -0.015973  -0.003924  0  3.989061  0
C  C60  1  0.29747943  0.20566218  0.99313046  1  -0.015253  0  -0.091726  -0.208051  0  3.946069  0
C  C61  1  0.20252031  0.00686939  0.79433824  1  -0.015416  0  -0.091758  -0.208092  0  3.946118  0
C  C62  1  0.70251868  0.79433926  0.00686990  1  -0.015241  0  -0.091712  -0.207968  0  3.94603  0
C  C63  1  0.79747907  0.99313054  0.20566138  1  -0.015279  0  -0.091745  -0.20804  0  3.946025  0
C  C64  1  0.36362554  0.28891405  0.82320374  1  -0.023737  0  -0.091269  -0.180123  0  3.922264  0
C  C65  1  0.13637548  0.17679454  0.71108644  1  -0.023789  0  -0.091282  -0.180142  0  3.922338  0
C  C66  1  0.63637619  0.71108588  0.17679576  1  -0.023827  0  -0.091307  -0.180189  0  3.922376  0
C  C67  1  0.86362439  0.82320387  0.28891480  1  -0.023752  0  -0.091251  -0.180047  0  3.922269  0
C  C68  1  0.35641042  0.46980320  0.78735454  1  1.553901  0  0.197713  0.569096  0  4.215913  0
C  C69  1  0.14358716  0.21264517  0.53019681  1  1.553957  0  0.197714  0.569095  0  4.215912  0
C  C70  1  0.64358793  0.53019749  0.21264523  1  1.553917  0  0.197739  0.569147  0  4.215962  0
C  C71  1  0.85640986  0.78735475  0.46980431  1  1.553908  0  0.197753  0.569135  0  4.215896  0
C  C72  1  0.27525204  0.38602782  0.96307218  1  -0.072252  0  -0.077738  -0.117916  0  3.91725  0
C  C73  1  0.22474999  0.03692682  0.61397138  1  -0.072356  0  -0.077736  -0.117915  0  3.917345  0
C  C74  1  0.72474812  0.61397211  0.03692786  1  -0.072333  0  -0.077779  -0.118015  0  3.91732  0
C  C75  1  0.77525096  0.96307311  0.38602770  1  -0.072318  0  -0.077789  -0.118034  0  3.917277  0
C  C76  1  0.20212090  0.30391669  0.14029481  1  1.559125  0  0.178815  0.541205  0  4.263439  0
C  C77  1  0.29788079  0.85970435  0.69608216  1  1.55906  0  0.178801  0.541158  0  4.263424  0
C  C78  1  0.79788108  0.69608249  0.85970480  1  1.559094  0  0.178826  0.541225  0  4.26343  0
C  C79  1  0.70212094  0.14029558  0.30391664  1  1.559055  0  0.178812  0.541201  0  4.263413  0
C  C80  1  0.32914358  0.38034106  0.86029037  1  0.034739  0  -0.020785  -0.017855  0  4.007933  0
C  C81  1  0.17085635  0.13970946  0.61965886  1  0.034756  0  -0.02079  -0.017854  0  4.007903  0
C  C82  1  0.67085531  0.61966039  0.13970971  1  0.034729  0  -0.020793  -0.017813  0  4.007864  0
C  C83  1  0.82914224  0.86029047  0.38034172  1  0.034752  0  -0.020779  -0.017823  0  4.0079  0
C  C84  1  0.35098942  0.20055722  0.88970965  1  0.27415  0  0.086624  0.231586  0  4.05751  0
C  C85  1  0.14901034  0.11029196  0.79943902  1  0.274288  0  0.086602  0.23155  0  4.057586  0
C  C86  1  0.64901276  0.79943894  0.11029347  1  0.274124  0  0.086597  0.231559  0  4.057581  0
C  C87  1  0.85098855  0.88970948  0.20055827  1  0.274153  0  0.086535  0.231403  0  4.057598  0
C  C88  1  0.57611128  0.77345516  0.71096919  1  -0.060523  0  0.005527  0.031507  0  3.985187  0
C  C89  1  0.92388809  0.28902883  0.22654756  1  -0.060701  0  0.005546  0.031481  0  3.985191  0
C  C90  1  0.42388761  0.22654628  0.28902880  1  -0.060661  0  0.005515  0.031483  0  3.985086  0
C  C91  1  0.07611159  0.71097263  0.77345436  1  -0.060689  0  0.005486  0.031429  0  3.985246  0
C  C92  1  0.50013070  0.97283221  0.75047362  1  -0.0032  0  -0.012503  -0.037343  0  4.004456  0
C  C93  1  0.99987273  0.24951993  0.02717121  1  -0.003208  0  -0.012562  -0.037462  0  4.00438  0
C  C94  1  0.49987084  0.02717075  0.24952097  1  -0.003279  0  -0.012513  -0.037418  0  4.004374  0
C  C95  1  0.00013205  0.75047547  0.97283052  1  -0.003137  0  -0.012444  -0.03727  0  4.004341  0
C  C96  1  0.49697643  0.89222347  0.83063853  1  0.004909  0  -0.084172  -0.105359  0  3.995272  0
C  C97  1  0.00302286  0.16935877  0.10778010  1  0.004866  0  -0.084148  -0.10524  0  3.995373  0
C  C98  1  0.50302142  0.10777872  0.16935962  1  0.004881  0  -0.084182  -0.105331  0  3.995403  0
C  C99  1  0.99698015  0.83063966  0.89222145  1  0.004819  0  -0.084215  -0.105463  0  3.995373  0
C  C100  1  0.53492844  0.79285397  0.81109543  1  0.035937  0  -0.070954  -0.078744  0  3.942917  0
C  C101  1  0.96507286  0.18890239  0.20714885  1  0.035989  0  -0.070994  -0.0788  0  3.942861  0
C  C102  1  0.46507202  0.20714747  0.18890202  1  0.035951  0  -0.070912  -0.078643  0  3.942801  0
C  C103  1  0.03492887  0.81109755  0.79285135  1  0.036639  0  -0.070927  -0.078607  0  3.942875  0
C  C104  1  0.57726469  0.85395602  0.63075199  1  -0.016898  0  -0.069426  -0.079737  0  3.939424  0
C  C105  1  0.92273478  0.36924414  0.14604557  1  -0.016811  0  -0.069434  -0.079747  0  3.939571  0
C  C106  1  0.42273287  0.14604466  0.36924525  1  -0.016823  0  -0.069387  -0.079674  0  3.939478  0
C  C107  1  0.07726533  0.63075352  0.85395508  1  -0.016875  0  -0.069429  -0.079756  0  3.939503  0
C  C108  1  0.46776430  0.08058079  0.76480043  1  1.386245  0  0.250078  0.489142  0  4.097986  0
C  C109  1  0.03223141  0.23520374  0.91941419  1  1.386437  0  0.249983  0.489147  0  4.098401  0
C  C110  1  0.53223050  0.91941383  0.23520352  1  1.386466  0  0.250088  0.489254  0  4.098186  0
C  C111  1  0.96776856  0.76479921  0.08058233  1  1.386288  0  0.25001  0.489062  0  4.098054  0
C  C112  1  0.54032367  0.95296269  0.65032566  1  -0.006569  0  -0.06881  -0.068523  0  3.922936  0
C  C113  1  0.95967697  0.34967151  0.04703790  1  -0.006577  0  -0.068785  -0.068516  0  3.922909  0
C  C114  1  0.45967492  0.04703723  0.34967213  1  -0.006473  0  -0.068832  -0.068581  0  3.923028  0
C  C115  1  0.04032731  0.65032541  0.95296151  1  -0.006444  0  -0.068784  -0.068497  0  3.922909  0
N  N116  1  0.73157194  0.62228638  0.65497387  1  -0.643117  0  -0.207813  -0.218111  0  3.343795  0
N  N117  1  0.76842718  0.34502776  0.37771347  1  -0.643136  0  -0.207838  -0.218103  0  3.343729  0
N  N118  1  0.26842690  0.37771279  0.34502752  1  -0.643167  0  -0.207855  -0.218164  0  3.343721  0
N  N119  1  0.23157250  0.65497368  0.62228635  1  -0.643124  0  -0.207814  -0.218091  0  3.343787  0
N  N120  1  0.56562197  0.60947916  0.68761527  1  -0.689321  0  -0.21537  -0.23226  0  3.356985  0
N  N121  1  0.93437698  0.31238337  0.39052262  1  -0.689075  0  -0.215373  -0.232313  0  3.356977  0
N  N122  1  0.43437819  0.39052077  0.31238267  1  -0.689328  0  -0.215386  -0.23233  0  3.356887  0
N  N123  1  0.06562107  0.68761580  0.60948044  1  -0.689349  0  -0.215329  -0.232248  0  3.357088  0
N  N124  1  0.74027367  0.53297821  0.63464263  1  -0.18753  0  -0.104097  -0.076082  0  3.462975  0
N  N125  1  0.75972558  0.36535664  0.46702283  1  -0.187536  0  -0.104095  -0.076102  0  3.463017  0
N  N126  1  0.25972571  0.46702172  0.36535698  1  -0.187445  0  -0.104074  -0.076057  0  3.462909  0
N  N127  1  0.24027277  0.63464405  0.53297764  1  -0.187568  0  -0.104069  -0.076011  0  3.462997  0
N  N128  1  0.64086715  0.52495679  0.65430550  1  -0.170437  0  -0.109546  -0.078032  0  3.452709  0
N  N129  1  0.85913149  0.34569344  0.47504510  1  -0.170484  0  -0.109522  -0.077967  0  3.452739  0
N  N130  1  0.35913198  0.47504390  0.34569330  1  -0.170446  0  -0.109503  -0.077948  0  3.452582  0
N  N131  1  0.14086578  0.65430574  0.52495823  1  -0.17042  0  -0.109567  -0.078084  0  3.452845  0
N  N132  1  0.39204191  0.10596708  0.85494889  1  -1.235169  0  -0.396576  -0.375765  0  3.596618  0
N  N133  1  0.10795993  0.14504729  0.89403537  1  -1.235175  0  -0.39659  -0.375808  0  3.59647  0
N  N134  1  0.60795830  0.89403512  0.14504775  1  -1.235212  0  -0.396626  -0.375888  0  3.596456  0
N  N135  1  0.89204357  0.85494962  0.10596641  1  -1.235048  0  -0.39647  -0.375598  0  3.59645  0
O  O136  1  0.50603092  0.39906040  0.47970104  1  -1.171127  0  -0.596085  -0.84849  0  2.137165  0
O  O137  1  0.99396744  0.52029889  0.60094019  1  -1.171168  0  -0.596044  -0.848371  0  2.137196  0
O  O138  1  0.49396743  0.60094028  0.52029873  1  -1.171201  0  -0.596058  -0.84839  0  2.137155  0
O  O139  1  0.00602982  0.47970027  0.39905964  1  -1.171113  0  -0.596062  -0.848415  0  2.137144  0
O  O140  1  0.19832472  0.22257391  0.20144003  1  -1.162946  0  -0.338834  -0.554053  0  2.135501  0
O  O141  1  0.30167422  0.79856015  0.77742582  1  -1.162875  0  -0.338831  -0.554045  0  2.135455  0
O  O142  1  0.80167569  0.77742526  0.79856012  1  -1.162934  0  -0.338892  -0.554122  0  2.135452  0
O  O143  1  0.69832570  0.20144053  0.22257271  1  -1.162909  0  -0.338821  -0.554041  0  2.135495  0
O  O144  1  0.16231246  0.39171014  0.16864475  1  -1.15268  0  -0.351986  -0.572783  0  2.164903  0
O  O145  1  0.33768984  0.83135461  0.60828844  1  -1.152701  0  -0.35197  -0.572773  0  2.164958  0
O  O146  1  0.83768691  0.60828979  0.83135416  1  -1.152679  0  -0.351964  -0.57276  0  2.16498  0
O  O147  1  0.66231323  0.16864609  0.39170971  1  -1.15265  0  -0.351969  -0.572749  0  2.164922  0
O  O148  1  0.40735955  0.45780922  0.69448588  1  -1.20524  0  -0.355243  -0.601302  0  2.326346  0
O  O149  1  0.09263563  0.30551353  0.54219106  1  -1.205338  0  -0.355211  -0.601283  0  2.326403  0
O  O150  1  0.59263486  0.54219145  0.30551314  1  -1.205334  0  -0.35521  -0.601293  0  2.326395  0
O  O151  1  0.90735981  0.69448638  0.45780920  1  -1.20529  0  -0.35525  -0.60131  0  2.326293  0
O  O152  1  0.32760313  0.55321419  0.81985901  1  -1.133383  0  -0.316569  -0.522959  0  2.223718  0
O  O153  1  0.17239910  0.18014239  0.44678473  1  -1.133422  0  -0.316589  -0.522961  0  2.22373  0
O  O154  1  0.67240096  0.44678576  0.18014108  1  -1.133365  0  -0.316596  -0.522983  0  2.223776  0
O  O155  1  0.82760136  0.81985906  0.55321481  1  -1.13344  0  -0.316582  -0.522974  0  2.223747  0
O  O156  1  0.63284878  0.26507310  0.67173130  1  -1.224116  0  -0.580991  -0.758256  0  2.003368  0
O  O157  1  0.86715034  0.32826950  0.73492972  1  -1.224032  0  -0.581021  -0.758262  0  2.003378  0
O  O158  1  0.36714987  0.73492911  0.32827008  1  -1.224024  0  -0.581005  -0.758277  0  2.003385  0
O  O159  1  0.13284958  0.67173119  0.26507301  1  -1.224118  0  -0.581039  -0.758272  0  2.003409  0
O  O160  1  0.50840732  0.14221317  0.69661753  1  -1.159522  0  -0.286281  -0.489509  0  2.176636  0
O  O161  1  0.99160052  0.30337653  0.85779270  1  -1.159626  0  -0.286117  -0.489362  0  2.177362  0
O  O162  1  0.49159924  0.85779132  0.30337705  1  -1.15966  0  -0.286167  -0.489391  0  2.177301  0
O  O163  1  0.00840796  0.69661966  0.14221526  1  -1.159579  0  -0.28625  -0.48948  0  2.176827  0
