# generated using pymatgen
data_LaH8C9NO11
_symmetry_space_group_name_H-M   'P 1'
_cell_length_a   8.48432869
_cell_length_b   9.19954815
_cell_length_c   9.39747720
_cell_angle_alpha   77.40909934
_cell_angle_beta   63.43882603
_cell_angle_gamma   90.00794848
_symmetry_Int_Tables_number   1
_chemical_formula_structural   LaH8C9NO11
_chemical_formula_sum   'La2 H16 C18 N2 O22'
_cell_volume   636.28381845
_cell_formula_units_Z   2
loop_
 _symmetry_equiv_pos_site_id
 _symmetry_equiv_pos_as_xyz
  1  'x, y, z'
loop_
 _atom_site_type_symbol
 _atom_site_label
 _atom_site_symmetry_multiplicity
 _atom_site_fract_x
 _atom_site_fract_y
 _atom_site_fract_z
 _atom_site_occupancy
 _atom_site_pbe_bader_spin_density
 _atom_site_pbe_cm5_charge
 _atom_site_pbe_ddec_charge
 _atom_site_pbe_ddec_spin_density
 _atom_site_pbe_ddec_sum_bond_order
 _atom_site_pbe_magmom
La  La0  1  0.64080631  0.29362368  0.68036079  1  0  1.393674  1.914684  0  2.331811  0
La  La1  1  0.35918421  0.70637318  0.31964425  1  0  1.393616  1.914551  0  2.332061  0
H  H2  1  0.72993460  0.94196096  0.08871729  1  0  0.309562  0.36198  0  0.981863  0
H  H3  1  0.27006233  0.05803184  0.91128177  1  0  0.309555  0.361975  0  0.981815  0
H  H4  1  0.80851920  0.42673273  0.85658344  1  0  0.320841  0.399323  0  0.894526  0
H  H5  1  0.19148618  0.57324705  0.14343090  1  0  0.320818  0.39929  0  0.89452  0
H  H6  1  0.94895670  0.49043146  0.67717111  1  0  0.29995  0.390378  0  0.950188  0
H  H7  1  0.05103488  0.50956202  0.32284804  1  0  0.299952  0.390427  0  0.950126  0
H  H8  1  0.33263090  0.48450179  0.70982785  1  0  0.30765  0.391757  0  0.938157  0
H  H9  1  0.66736950  0.51550574  0.29016038  1  0  0.307636  0.391683  0  0.938232  0
H  H10  1  0.22528510  0.36906293  0.88510169  1  0  0.32588  0.415917  0  0.875231  0
H  H11  1  0.77470761  0.63094864  0.11488559  1  0  0.325847  0.415822  0  0.875357  0
H  H12  1  0.54505992  0.26436669  0.05270188  1  0  0.300392  0.39613  0  0.942195  0
H  H13  1  0.45493108  0.73563807  0.94729283  1  0  0.300384  0.396087  0  0.942299  0
H  H14  1  0.36707201  0.31156481  0.05216959  1  0  0.305019  0.407669  0  0.919232  0
H  H15  1  0.63291885  0.68843769  0.94782777  1  0  0.305005  0.407624  0  0.919287  0
H  H16  1  0.09329304  0.24337539  0.69916201  1  0  0.12185  0.132644  0  1.014179  0
H  H17  1  0.90671021  0.75663672  0.30083052  1  0  0.121721  0.132501  0  1.014035  0
C  C18  1  0.86116870  0.00404644  0.85003482  1  0  0.257547  0.637238  0  4.097839  0
C  C19  1  0.13883245  0.99595211  0.14996987  1  0  0.257631  0.637402  0  4.098258  0
C  C20  1  0.03753384  0.01350625  0.70367168  1  0  0.016485  -0.054287  0  3.887529  0
C  C21  1  0.96247828  0.98649961  0.29632605  1  0  0.016483  -0.054218  0  3.887275  0
C  C22  1  0.14120644  0.15177065  0.64003591  1  0  -0.044654  -0.05814  0  3.85382  0
C  C23  1  0.85879535  0.84823913  0.35996088  1  0  -0.044609  -0.05815  0  3.853222  0
C  C24  1  0.30596765  0.17286947  0.50148208  1  0  0.019695  -0.040605  0  3.875621  0
C  C25  1  0.69402785  0.82712208  0.49852633  1  0  0.019743  -0.040461  0  3.875582  0
C  C26  1  0.35744281  0.05292584  0.42674572  1  0  0.120938  0.071406  0  3.970652  0
C  C27  1  0.64255691  0.94706936  0.57324853  1  0  0.120982  0.071361  0  3.970666  0
C  C28  1  0.10015643  0.89800085  0.62324294  1  0  0.125907  0.086113  0  3.946775  0
C  C29  1  0.89984236  0.10200208  0.37675328  1  0  0.125927  0.086188  0  3.946597  0
C  C30  1  0.00188970  0.74211514  0.68007246  1  0  0.229218  0.577622  0  4.189058  0
C  C31  1  0.99812043  0.25788045  0.31994841  1  0  0.229175  0.577376  0  4.189195  0
C  C32  1  0.52658755  0.06396239  0.27110110  1  0  0.231955  0.569275  0  4.175425  0
C  C33  1  0.47341511  0.93603854  0.72889185  1  0  0.231818  0.569021  0  4.175468  0
C  C34  1  0.41121871  0.32526061  0.43899173  1  0  0.243728  0.642396  0  4.173914  0
C  C35  1  0.58878402  0.67474145  0.56099990  1  0  0.243663  0.642437  0  4.174237  0
N  N36  1  0.25523092  0.92127995  0.48688803  1  0  -0.35665  -0.330776  0  3.557391  0
N  N37  1  0.74477305  0.07872209  0.51311694  1  0  -0.356638  -0.330766  0  3.557169  0
O  O38  1  0.74119679  0.07208586  0.83355373  1  0  -0.323934  -0.567198  0  2.256332  0
O  O39  1  0.25880458  0.92791608  0.16644486  1  0  -0.323943  -0.567235  0  2.2565  0
O  O40  1  0.85187175  0.93178828  0.98914728  1  0  -0.303024  -0.456419  0  2.354164  0
O  O41  1  0.14812413  0.06821107  0.01086361  1  0  -0.303123  -0.456586  0  2.354421  0
O  O42  1  0.86712738  0.70444876  0.81676489  1  0  -0.30482  -0.553851  0  2.190008  0
O  O43  1  0.13288463  0.29555699  0.18324993  1  0  -0.304785  -0.553817  0  2.190078  0
O  O44  1  0.06968078  0.65699435  0.57996363  1  0  -0.362793  -0.601269  0  2.263581  0
O  O45  1  0.93033181  0.34299801  0.42005906  1  0  -0.362796  -0.601164  0  2.26376  0
O  O46  1  0.56744305  0.93725892  0.23266603  1  0  -0.366128  -0.597679  0  2.399058  0
O  O47  1  0.43254626  0.06273904  0.76733182  1  0  -0.366128  -0.597591  0  2.399213  0
O  O48  1  0.61447727  0.18807823  0.18950220  1  0  -0.295537  -0.500591  0  2.150481  0
O  O49  1  0.38551609  0.81192004  0.81048120  1  0  -0.295426  -0.500432  0  2.150299  0
O  O50  1  0.55470081  0.34218112  0.44883101  1  0  -0.356395  -0.623255  0  2.301504  0
O  O51  1  0.44531784  0.65782186  0.55115087  1  0  -0.3564  -0.623331  0  2.301735  0
O  O52  1  0.33907210  0.42981239  0.38749340  1  0  -0.370159  -0.597223  0  2.249773  0
O  O53  1  0.66093191  0.57018864  0.61249687  1  0  -0.370108  -0.597228  0  2.249799  0
O  O54  1  0.87236884  0.39540215  0.75456628  1  0  -0.613465  -0.793132  0  2.053461  0
O  O55  1  0.12762709  0.60459724  0.24543821  1  0  -0.613432  -0.793147  0  2.053292  0
O  O56  1  0.31474160  0.37859001  0.77212748  1  0  -0.595254  -0.784054  0  2.034525  0
O  O57  1  0.68525482  0.62141729  0.22786239  1  0  -0.595235  -0.783892  0  2.034836  0
O  O58  1  0.49308629  0.30728021  0.97865864  1  0  -0.637438  -0.835947  0  2.020111  0
O  O59  1  0.50690194  0.69272216  0.02133767  1  0  -0.637372  -0.835836  0  2.020216  0
