# generated using pymatgen
data_CuH14C17N2O7
_symmetry_space_group_name_H-M   'P 1'
_cell_length_a   8.53403702
_cell_length_b   10.08206652
_cell_length_c   10.58225202
_cell_angle_alpha   62.25227310
_cell_angle_beta   87.62476764
_cell_angle_gamma   76.94475383
_symmetry_Int_Tables_number   1
_chemical_formula_structural   CuH14C17N2O7
_chemical_formula_sum   'Cu2 H28 C34 N4 O14'
_cell_volume   782.82701477
_cell_formula_units_Z   2
loop_
 _symmetry_equiv_pos_site_id
 _symmetry_equiv_pos_as_xyz
  1  'x, y, z'
loop_
 _atom_site_type_symbol
 _atom_site_label
 _atom_site_symmetry_multiplicity
 _atom_site_fract_x
 _atom_site_fract_y
 _atom_site_fract_z
 _atom_site_occupancy
 _atom_site_hle17_ddec_charge
 _atom_site_hle17_ddec_spin_density
 _atom_site_hle17_ddec_sum_bond_order
 _atom_site_hle17_magmom
 _atom_site_hse06_10hf_ddec_charge
 _atom_site_hse06_10hf_ddec_spin_density
 _atom_site_hse06_10hf_ddec_sum_bond_order
 _atom_site_hse06_10hf_magmom
 _atom_site_hse06_ddec_charge
 _atom_site_hse06_ddec_spin_density
 _atom_site_hse06_ddec_sum_bond_order
 _atom_site_hse06_magmom
 _atom_site_pbe_cm5_charge
 _atom_site_pbe_ddec_charge
 _atom_site_pbe_ddec_spin_density
 _atom_site_pbe_ddec_sum_bond_order
 _atom_site_pbe_magmom
Cu  Cu0  1  0.59966682  0.83415206  0.82330814  1  0.882089  0.745096  1.725422  0.527  0.85952  0.821593  2.101516  0.65  0.95382  0.897194  2.035618  0.74  0.739167  0.797231  0.762966  2.149229  0.587
Cu  Cu1  1  0.40033584  0.16585670  0.17668267  1  0.882024  -0.745088  1.725549  -0.527  0.859461  -0.821594  2.101577  -0.65  0.95373  -0.897199  2.035814  -0.74  0.739144  0.797313  -0.762967  2.149188  -0.587
H  H2  1  0.53378089  0.61683532  0.08090008  1  0.431409  0.000163  0.872147  0.0  0.401169  0.000535  0.936687  0.001  0.414422  0.000425  0.917478  0.001  0.290061  0.391722  0.000635  0.950297  0.001
H  H3  1  0.46622461  0.38316659  0.91908702  1  0.431488  -0.000163  0.872034  0.0  0.401222  -0.000535  0.936609  -0.001  0.414475  -0.000425  0.917398  -0.001  0.290058  0.391778  -0.000635  0.950215  -0.001
H  H4  1  0.50304944  0.77894662  0.08556589  1  0.421762  0.000472  0.887886  0.001  0.392011  0.000773  0.952016  0.002  0.405042  0.000588  0.933082  0.001  0.286605  0.382584  0.000938  0.965668  0.002
H  H5  1  0.49695373  0.22105522  0.91442982  1  0.421787  -0.000472  0.887856  -0.001  0.392039  -0.000772  0.951986  -0.002  0.405074  -0.000588  0.933047  -0.001  0.286617  0.382617  -0.000938  0.965632  -0.002
H  H6  1  0.40205500  0.93519982  0.56305433  1  0.10003  0.001268  0.969397  0.002  0.104348  0.000927  1.037933  0.002  0.106747  0.000676  1.035333  0.001  0.119864  0.10199  0.001089  1.040709  0.002
H  H7  1  0.59794874  0.06479961  0.43695280  1  0.100088  -0.001263  0.969423  -0.002  0.104411  -0.000927  1.037949  -0.002  0.106813  -0.000676  1.035346  -0.001  0.119897  0.102051  -0.001089  1.040724  -0.002
H  H8  1  0.11914109  0.06076438  0.46803839  1  0.104471  0.000602  0.969254  0.001  0.11301  0.000482  1.03258  0.001  0.115265  0.000337  1.033125  0.0  0.108415  0.111111  0.000582  1.032956  0.001
H  H9  1  0.88086492  0.93923051  0.53196309  1  0.104489  -0.000599  0.969186  -0.001  0.113044  -0.000482  1.032501  -0.001  0.1153  -0.000337  1.033044  0.0  0.108413  0.111143  -0.000582  1.032881  -0.001
H  H10  1  0.91922450  0.13142943  0.62259360  1  0.096105  0.000459  0.954642  0.001  0.109517  0.000111  1.011183  0.0  0.111543  3.8e-05  1.009698  0.0  0.107439  0.107941  0.000176  1.012267  0.0
H  H11  1  0.08077542  0.86857126  0.37740271  1  0.096093  -0.000457  0.954711  -0.001  0.109532  -0.000111  1.011206  0.0  0.111555  -3.8e-05  1.009722  0.0  0.107445  0.107955  -0.000176  1.01229  0.0
H  H12  1  0.02168235  0.07583603  0.86572804  1  0.097854  0.000598  0.960187  0.001  0.108549  0.000499  1.019489  0.001  0.110755  0.000332  1.020206  0.0  0.107568  0.1068  0.000631  1.019476  0.001
H  H13  1  0.97831233  0.92416693  0.13427312  1  0.097858  -0.0006  0.960161  -0.001  0.108536  -0.000498  1.019484  -0.001  0.110742  -0.000332  1.020201  0.0  0.107564  0.106787  -0.000631  1.019469  -0.001
H  H14  1  0.31126588  0.94837328  0.94637101  1  0.094511  0.001099  0.977267  0.002  0.101003  0.000793  1.043829  0.001  0.102905  0.000558  1.041838  0.001  0.120403  0.099333  0.000971  1.045427  0.002
H  H15  1  0.68872880  0.05162967  0.05363110  1  0.094477  -0.001094  0.977322  -0.002  0.100935  -0.000793  1.043916  -0.001  0.102837  -0.000558  1.041925  -0.001  0.120382  0.099266  -0.000971  1.045511  -0.002
H  H16  1  0.80098351  0.78392385  0.06281802  1  0.089443  0.001414  0.951654  0.002  0.096267  0.000977  1.017333  0.002  0.0976  0.000672  1.015584  0.001  0.118951  0.094961  0.00122  1.018958  0.002
H  H17  1  0.19901939  0.21607909  0.93718288  1  0.089444  -0.001413  0.951735  -0.002  0.096267  -0.000977  1.017409  -0.002  0.097599  -0.000671  1.015659  -0.001  0.118969  0.094961  -0.00122  1.019034  -0.002
H  H18  1  0.09291479  0.68041960  0.15085712  1  0.10883  0.000627  0.938189  0.001  0.119744  0.0005  0.993315  0.001  0.122509  0.000335  0.992758  0.0  0.109211  0.117535  0.000644  0.994243  0.001
H  H19  1  0.90708900  0.31958449  0.84914325  1  0.108829  -0.000628  0.938074  -0.001  0.11975  -0.0005  0.993199  -0.001  0.122514  -0.000335  0.992641  0.0  0.109188  0.117541  -0.000644  0.994127  -0.001
H  H20  1  0.28827181  0.58934392  0.00613096  1  0.114445  0.000525  0.964167  0.001  0.122079  9.8e-05  1.026475  0.0  0.124465  2.5e-05  1.024823  0.0  0.111341  0.120068  0.00017  1.02796  0.0
H  H21  1  0.71173170  0.41066133  0.99386702  1  0.114457  -0.000524  0.964221  -0.001  0.122098  -9.8e-05  1.026517  0.0  0.124483  -2.5e-05  1.024867  0.0  0.11135  0.120087  -0.00017  1.028001  0.0
H  H22  1  0.17896041  0.60196948  0.78345341  1  0.108752  0.000707  0.966769  0.001  0.115294  0.000541  1.032153  0.001  0.117692  0.000365  1.032095  0.0  0.105836  0.113453  0.000683  1.032331  0.001
H  H23  1  0.82103930  0.39803694  0.21654419  1  0.108748  -0.000703  0.966662  -0.001  0.115242  -0.000541  1.032129  -0.001  0.117646  -0.000365  1.032051  0.0  0.105809  0.113401  -0.000683  1.032305  -0.001
H  H24  1  0.88406428  0.70683400  0.71207895  1  0.091455  0.001298  0.961652  0.002  0.099279  0.000947  1.024106  0.002  0.101147  0.000675  1.022132  0.001  0.119211  0.097355  0.00114  1.026236  0.002
H  H25  1  0.11593516  0.29317352  0.28792384  1  0.091409  -0.001297  0.961633  -0.002  0.099237  -0.000947  1.024111  -0.002  0.101105  -0.000675  1.022137  -0.001  0.119206  0.097314  -0.00114  1.02624  -0.002
H  H26  1  0.67472885  0.71814059  0.44638914  1  0.135563  0.000197  0.91967  0.0  0.140361  0.0001  0.981001  0.0  0.144024  6.4e-05  0.979626  0.0  0.114144  0.137666  0.000124  0.982307  0.0
H  H27  1  0.32526487  0.28185665  0.55360983  1  0.135507  -0.000194  0.919714  0.0  0.140338  -0.000101  0.981036  0.0  0.144003  -6.4e-05  0.979658  0.0  0.114119  0.137643  -0.000124  0.982342  0.0
H  H28  1  0.28918757  0.71672360  0.55243650  1  0.122146  -0.000234  0.927879  0.0  0.128436  -0.000169  0.993202  0.0  0.132099  -0.000102  0.990913  0.0  0.113088  0.125715  -0.00021  0.995373  0.0
H  H29  1  0.71081374  0.28327133  0.44756134  1  0.122143  0.000232  0.927816  0.0  0.128451  0.000169  0.993135  0.0  0.132113  0.000103  0.990844  0.0  0.113067  0.125729  0.00021  0.995307  0.0
C  C30  1  0.31430009  0.96695707  0.62747461  1  0.12926  -0.008188  3.659214  -0.008  0.099169  -0.000652  3.914095  -0.001  0.109209  -0.001759  3.932067  -0.003  0.046538  0.092008  7.2e-05  3.904024  -0.001
C  C31  1  0.68570136  0.03304701  0.37252773  1  0.129249  0.008183  3.659342  0.008  0.099147  0.000651  3.91424  0.001  0.109188  0.001759  3.932208  0.003  0.04657  0.091989  -7.3e-05  3.904178  0.001
C  C32  1  0.15457495  0.03800560  0.57501484  1  -0.116641  0.011916  3.721711  0.012  -0.127102  0.004029  3.970208  0.005  -0.134959  0.003592  3.990482  0.004  -0.081739  -0.122167  0.004298  3.957831  0.005
C  C33  1  0.84542877  0.96199393  0.42498281  1  -0.116651  -0.011928  3.721725  -0.012  -0.127149  -0.004029  3.970259  -0.005  -0.13501  -0.003594  3.990543  -0.004  -0.081746  -0.122212  -0.004298  3.957878  -0.005
C  C34  1  0.04562084  0.07807867  0.66014101  1  0.003953  -0.010559  3.710436  -0.01  -0.015682  -0.002853  3.954057  -0.003  -0.010193  -0.003012  3.971295  -0.003  -0.063325  -0.019345  -0.00271  3.94272  -0.003
C  C35  1  0.95438110  0.92191853  0.33985959  1  0.003926  0.01056  3.710551  0.01  -0.015692  0.002852  3.954142  0.003  -0.010203  0.003013  3.971381  0.003  -0.063337  -0.019354  0.002709  3.942802  0.003
C  C36  1  0.10188304  0.04648922  0.79522227  1  -0.119022  0.011608  3.742778  0.012  -0.130222  0.003835  3.990696  0.005  -0.13853  0.003457  4.012902  0.004  -0.082505  -0.124908  0.004103  3.976181  0.005
C  C37  1  0.89811248  0.95351026  0.20478228  1  -0.119042  -0.011605  3.742728  -0.012  -0.130247  -0.003835  3.990629  -0.005  -0.138551  -0.003458  4.012834  -0.004  -0.082536  -0.124932  -0.004102  3.97611  -0.005
C  C38  1  0.26322476  0.97430316  0.84165173  1  0.118252  -0.007863  3.681432  -0.008  0.090094  -0.000602  3.932615  -0.001  0.099079  -0.00174  3.953163  -0.003  0.046901  0.08468  0.000222  3.918775  0.0
C  C39  1  0.73677198  0.02570097  0.15834602  1  0.118309  0.00786  3.681407  0.008  0.090191  0.000602  3.932564  0.001  0.099175  0.001742  3.953114  0.003  0.046953  0.084783  -0.000221  3.918728  0.0
C  C40  1  0.89044113  0.74620209  0.00297494  1  0.118677  -0.008208  3.694863  -0.008  0.089989  -0.000681  3.949999  -0.001  0.099467  -0.001889  3.970367  -0.003  0.043515  0.083972  0.000284  3.936742  0.0
C  C41  1  0.10956238  0.25380315  0.99702399  1  0.118661  0.008206  3.695113  0.008  0.089969  0.000681  3.950211  0.001  0.099451  0.001888  3.970575  0.003  0.043504  0.083955  -0.000283  3.936964  0.0
C  C42  1  0.05269555  0.68818548  0.05070194  1  -0.128076  0.01255  3.734879  0.013  -0.138437  0.004129  3.985444  0.005  -0.146951  0.003639  4.007171  0.004  -0.083504  -0.132891  0.004532  3.971332  0.005
C  C43  1  0.94730529  0.31181628  0.94930237  1  -0.127989  -0.012547  3.734826  -0.013  -0.138355  -0.004129  3.985382  -0.005  -0.146869  -0.003639  4.007111  -0.004  -0.083448  -0.13281  -0.004533  3.971269  -0.005
C  C44  1  0.16062109  0.63709733  0.97113664  1  0.012261  -0.011013  3.671169  -0.01  -0.008908  -0.00292  3.918663  -0.003  -0.003857  -0.003089  3.936753  -0.003  -0.062957  -0.012408  -0.002776  3.90681  -0.003
C  C45  1  0.83937684  0.36290678  0.02886297  1  0.012112  0.011015  3.671292  0.01  -0.009055  0.002919  3.918778  0.003  -0.004005  0.00309  3.93687  0.003  -0.063021  -0.012547  0.002776  3.906908  0.003
C  C46  1  0.10103317  0.64494008  0.84672369  1  -0.109547  0.012646  3.716941  0.013  -0.120457  0.004291  3.965681  0.005  -0.128729  0.003759  3.988557  0.005  -0.081476  -0.114795  0.004652  3.950213  0.005
C  C47  1  0.89896648  0.35506175  0.15327402  1  -0.109452  -0.012659  3.716783  -0.013  -0.120338  -0.004291  3.965569  -0.005  -0.128605  -0.003759  3.988448  -0.005  -0.081418  -0.114676  -0.004653  3.950097  -0.005
C  C48  1  0.93710701  0.70324839  0.80571531  1  0.107951  -0.007606  3.699779  -0.008  0.080504  -0.000296  3.953032  -0.001  0.089749  -0.001532  3.973259  -0.002  0.043582  0.074543  0.000563  3.940265  0.0
C  C49  1  0.06289243  0.29675913  0.19428748  1  0.108095  0.007605  3.699673  0.008  0.080595  0.000296  3.95293  0.001  0.089838  0.001531  3.973159  0.002  0.043566  0.074634  -0.000563  3.940173  0.0
C  C50  1  0.55771239  0.62243523  0.71611690  1  0.607653  -0.00198  3.894973  -0.003  0.553436  -0.000442  4.211387  -0.001  0.587548  -0.000502  4.205192  -0.001  0.208709  0.529914  -0.000246  4.213939  -0.001
C  C51  1  0.44228888  0.37755505  0.28388865  1  0.607735  0.001997  3.894868  0.003  0.553421  0.000443  4.211351  0.001  0.587541  0.000501  4.20514  0.001  0.208744  0.529897  0.000246  4.213914  0.001
C  C52  1  0.53901021  0.55920626  0.61138477  1  0.174336  0.003652  3.483463  0.004  0.178009  0.002136  3.72102  0.003  0.181317  0.001376  3.72884  0.002  0.089487  0.175776  0.003371  3.71616  0.004
C  C53  1  0.46098960  0.44078517  0.38862032  1  0.174338  -0.003664  3.483617  -0.004  0.178154  -0.002138  3.721022  -0.003  0.181459  -0.001378  3.72886  -0.002  0.089499  0.175916  -0.003371  3.716161  -0.004
C  C54  1  0.61631566  0.62533980  0.46461607  1  -0.238519  -0.001401  3.492693  -0.001  -0.260215  -0.000467  3.724612  -0.001  -0.265289  -0.000212  3.731566  0.0  -0.091439  -0.256528  -0.000486  3.720255  -0.001
C  C55  1  0.38367889  0.37465396  0.53538723  1  -0.238679  0.001396  3.492858  0.001  -0.260582  0.000469  3.724695  0.001  -0.265655  0.000212  3.731649  0.0  -0.091456  -0.256891  0.000486  3.720336  0.001
C  C56  1  0.71956108  0.50335172  0.43423966  1  0.503451  0.000272  3.638984  0.001  0.475378  -0.000314  3.927093  0.0  0.498553  -3.1e-05  3.924613  0.0  0.161082  0.458728  -0.000325  3.929403  0.0
C  C57  1  0.28041817  0.49663741  0.56577373  1  0.503525  -0.000266  3.63963  -0.001  0.475737  0.000315  3.927286  0.0  0.498903  3.2e-05  3.924813  0.0  0.161251  0.459088  0.000325  3.929596  0.0
C  C58  1  0.36286785  0.62442683  0.53381693  1  -0.251627  0.001145  3.526458  0.001  -0.276097  0.000268  3.763336  0.0  -0.280859  0.00011  3.770095  0.0  -0.096689  -0.272762  0.000295  3.759483  0.0
C  C59  1  0.63713162  0.37556117  0.46618778  1  -0.251488  -0.001119  3.526474  -0.001  -0.276004  -0.000264  3.763384  0.0  -0.280776  -0.000117  3.770166  0.0  -0.096621  -0.27267  -0.000295  3.759534  0.0
C  C60  1  0.55972149  0.31855103  0.61336711  1  0.170447  0.007089  3.494325  0.008  0.17266  0.003909  3.736139  0.005  0.175458  0.002511  3.744059  0.003  0.088327  0.170745  0.005401  3.730981  0.006
C  C61  1  0.44027631  0.68144387  0.38663558  1  0.170488  -0.007097  3.493962  -0.008  0.172493  -0.003909  3.736018  -0.005  0.175284  -0.002508  3.743941  -0.003  0.088347  0.17058  -0.005398  3.730855  -0.006
C  C62  1  0.60024645  0.14488428  0.71701522  1  0.598766  -0.00353  3.904806  -0.006  0.546402  -0.000418  4.222855  -0.002  0.580579  -0.000665  4.218006  -0.002  0.201698  0.523076  -6.4e-05  4.224907  -0.002
C  C63  1  0.39974989  0.85511180  0.28298512  1  0.59874  0.003531  3.904677  0.006  0.546423  0.000416  4.222726  0.002  0.580606  0.000663  4.217873  0.002  0.201586  0.523098  6.4e-05  4.224788  0.002
N  N64  1  0.36730600  0.93362299  0.75944260  1  -0.298231  0.088065  3.345542  0.107  -0.247948  0.054048  3.633844  0.071  -0.282852  0.043533  3.660653  0.06  -0.347217  -0.2267  0.059705  3.617877  0.075
N  N65  1  0.63269634  0.06638224  0.24055921  1  -0.29825  -0.088067  3.345608  -0.107  -0.247959  -0.054048  3.633873  -0.071  -0.282866  -0.043532  3.660706  -0.06  -0.347253  -0.226747  -0.059706  3.617931  -0.075
N  N66  1  0.83381039  0.75369715  0.88218709  1  -0.291787  0.093368  3.345595  0.113  -0.245175  0.056571  3.641046  0.074  -0.280052  0.04566  3.666722  0.063  -0.351946  -0.224149  0.062895  3.625876  0.079
N  N67  1  0.16618821  0.24631386  0.11781043  1  -0.29194  -0.093378  3.345844  -0.113  -0.245277  -0.056577  3.641262  -0.074  -0.28016  -0.045661  3.666966  -0.063  -0.351962  -0.224287  -0.062903  3.626119  -0.079
O  O68  1  0.62005252  0.73822146  0.67063798  1  -0.605918  0.030063  2.039343  0.04  -0.571804  0.018345  2.308453  0.027  -0.604908  0.012468  2.300187  0.02  -0.31099  -0.545213  0.025858  2.313089  0.036
O  O69  1  0.37994196  0.26176777  0.32935975  1  -0.605837  -0.030092  2.039157  -0.04  -0.571795  -0.018355  2.308348  -0.027  -0.604905  -0.012473  2.300095  -0.02  -0.311026  -0.545223  -0.02587  2.312986  -0.036
O  O70  1  0.50243517  0.55857048  0.83663400  1  -0.592706  -0.003653  2.005493  -0.004  -0.545839  -0.001078  2.242166  -0.001  -0.572245  -0.000769  2.233641  -0.001  -0.300534  -0.525757  -0.001256  2.246677  -0.001
O  O71  1  0.49756610  0.44141977  0.16337534  1  -0.592839  0.003649  2.005813  0.004  -0.545794  0.001078  2.242333  0.001  -0.572201  0.000771  2.233804  0.001  -0.300532  -0.52572  0.001256  2.246856  0.001
O  O72  1  0.64204150  0.05597233  0.66075850  1  -0.591582  0.059213  2.014591  0.077  -0.567041  0.035337  2.288797  0.051  -0.604567  0.024965  2.284558  0.038  -0.310425  -0.539509  0.044254  2.291996  0.061
O  O73  1  0.35794742  0.94403995  0.33922933  1  -0.591518  -0.059195  2.014391  -0.077  -0.567005  -0.035328  2.288639  -0.051  -0.604499  -0.024958  2.284348  -0.038  -0.310364  -0.5395  -0.044246  2.291849  -0.061
O  O74  1  0.57971867  0.10220417  0.84769465  1  -0.59173  -0.001472  1.997047  -0.001  -0.549718  -0.000206  2.234717  0.001  -0.576907  -0.000452  2.225378  0.0  -0.304515  -0.529527  0.000442  2.239728  0.001
O  O75  1  0.42028354  0.89779188  0.15230645  1  -0.591794  0.001474  1.997126  0.001  -0.549753  0.000207  2.23473  -0.001  -0.576943  0.000453  2.225393  0.0  -0.3045  -0.529574  -0.000439  2.239754  -0.001
O  O76  1  0.58433599  0.39595891  0.69073279  1  -0.323021  -0.00095  2.271993  -0.002  -0.268737  -0.000552  2.497119  -0.001  -0.283306  -0.000395  2.497215  -0.001  -0.18043  -0.258544  -0.000373  2.497058  -0.001
O  O77  1  0.41566236  0.60403369  0.30927089  1  -0.32309  0.000951  2.271961  0.002  -0.268774  0.000549  2.497086  0.001  -0.283342  0.000398  2.497184  0.001  -0.1804  -0.258571  0.000374  2.497018  0.001
O  O78  1  0.85134625  0.50996771  0.38333273  1  -0.444137  -0.002243  1.859305  -0.003  -0.409776  -0.001149  2.05565  -0.002  -0.424037  -0.000672  2.051517  -0.001  -0.257823  -0.399987  -0.000764  2.058861  -0.001
O  O79  1  0.14866735  0.49002491  0.61666383  1  -0.44395  0.002235  1.86032  0.003  -0.409722  0.00115  2.05655  0.002  -0.42398  0.00067  2.052421  0.001  -0.257788  -0.399924  0.000763  2.059757  0.001
O  O80  1  0.55915349  0.72095247  0.03498589  1  -0.841358  0.048864  1.985195  0.064  -0.813087  0.036345  2.218271  0.052  -0.842769  0.028577  2.177237  0.044  -0.593721  -0.793741  0.039811  2.247696  0.055
O  O81  1  0.44085263  0.27905167  0.96500681  1  -0.841468  -0.048852  1.985039  -0.064  -0.813181  -0.036339  2.218205  -0.052  -0.842853  -0.028571  2.177174  -0.044  -0.593748  -0.793867  -0.039803  2.247621  -0.055
