# generated using pymatgen
data_ZnH17C13S2N5
_symmetry_space_group_name_H-M   'P 1'
_cell_length_a   7.55887549
_cell_length_b   9.96193394
_cell_length_c   13.23189591
_cell_angle_alpha   71.21914093
_cell_angle_beta   86.37424477
_cell_angle_gamma   69.22809809
_symmetry_Int_Tables_number   1
_chemical_formula_structural   ZnH17C13S2N5
_chemical_formula_sum   'Zn2 H34 C26 S4 N10'
_cell_volume   880.54713333
_cell_formula_units_Z   2
loop_
 _symmetry_equiv_pos_site_id
 _symmetry_equiv_pos_as_xyz
  1  'x, y, z'
loop_
 _atom_site_type_symbol
 _atom_site_label
 _atom_site_symmetry_multiplicity
 _atom_site_fract_x
 _atom_site_fract_y
 _atom_site_fract_z
 _atom_site_occupancy
 _atom_site_pbe_bader_charge
 _atom_site_pbe_bader_spin_density
 _atom_site_pbe_cm5_charge
 _atom_site_pbe_ddec_charge
 _atom_site_pbe_ddec_spin_density
 _atom_site_pbe_ddec_sum_bond_order
 _atom_site_pbe_magmom
Zn  Zn0  1  0.59711249  0.23477191  0.38307517  1  1.072462  0  0.59315  0.587955  0  2.488845  0
Zn  Zn1  1  0.40288105  0.76522826  0.61692590  1  1.072476  0  0.593157  0.587915  0  2.488904  0
H  H2  1  0.29371873  0.29985553  0.26566901  1  0.447158  0  0.289806  0.274797  0  0.970768  0
H  H3  1  0.70627604  0.70015142  0.73433169  1  0.447232  0  0.289792  0.274738  0  0.970891  0
H  H4  1  0.27989936  0.20845091  0.38911871  1  0.424681  0  0.265205  0.253605  0  1.021259  0
H  H5  1  0.72009360  0.79155032  0.61087984  1  0.424711  0  0.265215  0.25359  0  1.02127  0
H  H6  1  0.69826211  0.43856753  0.23454142  1  0.395734  0  0.304548  0.294633  0  0.907313  0
H  H7  1  0.30172324  0.56143266  0.76545633  1  0.39584  0  0.304591  0.294726  0  0.907234  0
H  H8  1  0.61251767  0.50453524  0.33357519  1  0.44528  0  0.260332  0.24838  0  1.043778  0
H  H9  1  0.38747210  0.49546715  0.66642247  1  0.445503  0  0.260344  0.248423  0  1.043764  0
H  H10  1  0.91953757  0.94426665  0.38980822  1  0.109784  0  0.09949  0.078043  0  1.047363  0
H  H11  1  0.08046029  0.05573565  0.61019053  1  0.109757  0  0.099463  0.077977  0  1.047293  0
H  H12  1  0.05254683  0.77982082  0.27724823  1  0.083042  0  0.105486  0.114067  0  1.021566  0
H  H13  1  0.94745563  0.22018922  0.72274668  1  0.083005  0  0.105512  0.11405  0  1.021627  0
H  H14  1  0.63647214  0.11082054  0.02645422  1  0.149347  0  0.10595  0.126457  0  1.034641  0
H  H15  1  0.36353428  0.88918596  0.97353839  1  0.149366  0  0.105955  0.126448  0  1.034607  0
H  H16  1  0.52213963  0.26218326  0.14791912  1  0.062003  0  0.117234  0.082894  0  0.987413  0
H  H17  1  0.47785898  0.73782007  0.85207703  1  0.062024  0  0.117285  0.082985  0  0.987495  0
H  H18  1  0.06974887  0.75105894  0.09650051  1  0.059556  0  0.093373  0.135156  0  0.996803  0
H  H19  1  0.93025784  0.24894775  0.90349807  1  0.05961  0  0.093339  0.135154  0  0.996809  0
H  H20  1  0.91850275  0.89743478  0.98794508  1  0.06505  0  0.092625  0.138156  0  1.016332  0
H  H21  1  0.08150893  0.10256615  0.01205325  1  0.065102  0  0.092646  0.138144  0  1.016311  0
H  H22  1  0.83225319  0.76350456  0.07714275  1  0.100507  0  0.098952  0.14912  0  1.000238  0
H  H23  1  0.16776062  0.23649399  0.92285306  1  0.100442  0  0.098943  0.149089  0  1.00021  0
H  H24  1  0.23816556  0.53310297  0.31669469  1  0.044688  0  0.09693  0.070368  0  0.995688  0
H  H25  1  0.76182528  0.46689868  0.68331521  1  0.044692  0  0.096915  0.07034  0  0.995808  0
H  H26  1  0.18133216  0.42855014  0.44080432  1  0.058367  0  0.094881  0.078078  0  1.000258  0
H  H27  1  0.81865326  0.57144468  0.55920242  1  0.058559  0  0.094875  0.077938  0  1.000355  0
H  H28  1  0.89017143  0.59451722  0.31906984  1  0.036729  0  0.089441  0.091309  0  1.015801  0
H  H29  1  0.10981605  0.40548547  0.68093544  1  0.036897  0  0.089441  0.091296  0  1.015732  0
H  H30  1  0.98402898  0.50443624  0.22188413  1  0.038485  0  0.095944  0.099513  0  0.981498  0
H  H31  1  0.01596362  0.49557308  0.77811834  1  0.038773  0  0.095968  0.09952  0  0.981472  0
H  H32  1  0.97907136  0.25697293  0.35033220  1  0.086363  0  0.091204  0.062955  0  1.039523  0
H  H33  1  0.02091813  0.74303271  0.64966083  1  0.086225  0  0.091246  0.063003  0  1.03952  0
H  H34  1  0.88306922  0.34752981  0.44717565  1  0.030345  0  0.096303  0.074007  0  0.981244  0
H  H35  1  0.11692018  0.65246691  0.55282204  1  0.030312  0  0.096271  0.073948  0  0.981218  0
C  C36  1  0.85791678  0.97585228  0.30941646  1  0.43181  0  0.041776  0.101085  0  3.948965  0
C  C37  1  0.14207936  0.02415468  0.69058492  1  0.43192  0  0.041756  0.101109  0  3.949411  0
C  C38  1  0.93168983  0.88429136  0.24575868  1  0.014669  0  -0.088503  -0.197854  0  3.941184  0
C  C39  1  0.06830305  0.11570983  0.75423837  1  0.01473  0  -0.088398  -0.197684  0  3.941144  0
C  C40  1  0.85347584  0.92793843  0.14194088  1  -0.019838  0  0.019908  0.229009  0  3.941367  0
C  C41  1  0.14653897  0.07205933  0.85806567  1  -0.020506  0  0.019832  0.228862  0  3.941454  0
C  C42  1  0.70359730  0.06766033  0.10670777  1  -0.039066  0  -0.084368  -0.188005  0  3.909891  0
C  C43  1  0.29640947  0.93234495  0.89328286  1  -0.038541  0  -0.084384  -0.18799  0  3.910346  0
C  C44  1  0.63896791  0.15357699  0.17470640  1  0.460164  0  0.045042  0.094625  0  3.970249  0
C  C45  1  0.36103804  0.84642179  0.82529282  1  0.459403  0  0.044938  0.094436  0  3.970192  0
C  C46  1  0.92390138  0.82990839  0.07221153  1  -0.114285  0  -0.236351  -0.428618  0  3.929033  0
C  C47  1  0.07610300  0.17009369  0.92778388  1  -0.114076  0  -0.236311  -0.428518  0  3.929046  0
C  C48  1  0.18046681  0.44294124  0.35489358  1  0.246479  0  -0.077767  0.024308  0  3.888657  0
C  C49  1  0.81952394  0.55705691  0.64511348  1  0.246043  0  -0.077714  0.024555  0  3.888618  0
C  C50  1  0.98071051  0.48619964  0.30860274  1  -0.01844  0  -0.171808  -0.217471  0  3.936494  0
C  C51  1  0.01927869  0.51380184  0.69140125  1  -0.018727  0  -0.171874  -0.21759  0  3.936494  0
C  C52  1  0.89276142  0.36613696  0.36060095  1  0.24637  0  -0.082396  0.017549  0  3.899545  0
C  C53  1  0.10722749  0.63386432  0.63939706  1  0.246541  0  -0.082363  0.01769  0  3.899328  0
C  C54  1  0.62697132  0.14743391  0.62246466  1  -0.187166  0  0.00602  0.134685  0  4.133626  0
C  C55  1  0.37304948  0.85254900  0.37754172  1  -0.187388  0  0.006  0.13462  0  4.133759  0
C  C56  1  0.64838331  0.08124508  0.73561018  1  0.192027  0  -0.051  -0.167682  0  4.204188  0
C  C57  1  0.35164367  0.91874227  0.26439619  1  0.191837  0  -0.050954  -0.167497  0  4.204244  0
C  C58  1  0.57133316  0.17363282  0.80044726  1  0.827957  0  0.165687  0.264078  0  4.11913  0
C  C59  1  0.42869221  0.82635781  0.19955454  1  0.827875  0  0.16538  0.263538  0  4.1193  0
C  C60  1  0.75035116  0.92619145  0.78514745  1  0.782407  0  0.166472  0.264465  0  4.115773  0
C  C61  1  0.24967331  0.07378574  0.21485949  1  0.782299  0  0.166391  0.26442  0  4.115214  0
S  S62  1  0.73277679  0.03779117  0.54171755  1  -0.317788  0  -0.17477  -0.363153  0  2.621447  0
S  S63  1  0.26723059  0.96220421  0.45828249  1  -0.317768  0  -0.174748  -0.363153  0  2.621359  0
S  S64  1  0.50517027  0.33463675  0.56270827  1  -0.261952  0  -0.188535  -0.372912  0  2.471821  0
S  S65  1  0.49484152  0.66535197  0.43729784  1  -0.261802  0  -0.188541  -0.37287  0  2.472079  0
N  N66  1  0.71228250  0.10878434  0.27542420  1  -1.259087  0  -0.335574  -0.237288  0  3.546883  0
N  N67  1  0.28769513  0.89122703  0.72456496  1  -1.258594  0  -0.335533  -0.237173  0  3.546713  0
N  N68  1  0.31449066  0.29975946  0.34180548  1  -1.147582  0  -0.630035  -0.522404  0  3.394985  0
N  N69  1  0.68549988  0.70024200  0.65819844  1  -1.147582  0  -0.630056  -0.522331  0  3.39499  0
N  N70  1  0.69828974  0.40817759  0.31625847  1  -1.114735  0  -0.627186  -0.52868  0  3.409325  0
N  N71  1  0.30169732  0.59182482  0.68373858  1  -1.115127  0  -0.627247  -0.528858  0  3.409266  0
N  N72  1  0.50973233  0.25218171  0.85376440  1  -1.225855  0  -0.34349  -0.434593  0  2.79776  0
N  N73  1  0.49027474  0.74781690  0.14623026  1  -1.225723  0  -0.343199  -0.434147  0  2.797726  0
N  N74  1  0.83432240  0.79567458  0.82420252  1  -1.205618  0  -0.343985  -0.430675  0  2.782481  0
N  N75  1  0.16568123  0.20432105  0.17580297  1  -1.205394  0  -0.343922  -0.430668  0  2.781721  0
