# generated using pymatgen
data_LaH43C36(N2O5)2
_symmetry_space_group_name_H-M   'P 1'
_cell_length_a   8.94675935
_cell_length_b   16.94370302
_cell_length_c   31.48224837
_cell_angle_alpha   85.03151802
_cell_angle_beta   81.84569918
_cell_angle_gamma   74.69269563
_symmetry_Int_Tables_number   1
_chemical_formula_structural   LaH43C36(N2O5)2
_chemical_formula_sum   'La4 H172 C144 N16 O40'
_cell_volume   4550.54123456
_cell_formula_units_Z   4
loop_
 _symmetry_equiv_pos_site_id
 _symmetry_equiv_pos_as_xyz
  1  'x, y, z'
loop_
 _atom_site_type_symbol
 _atom_site_label
 _atom_site_symmetry_multiplicity
 _atom_site_fract_x
 _atom_site_fract_y
 _atom_site_fract_z
 _atom_site_occupancy
 _atom_site_pbe_bader_charge
 _atom_site_pbe_bader_spin_density
 _atom_site_pbe_cm5_charge
 _atom_site_pbe_ddec_charge
 _atom_site_pbe_ddec_spin_density
 _atom_site_pbe_ddec_sum_bond_order
 _atom_site_pbe_magmom
La  La0  1  0.35445195  0.12780603  0.88110976  1  2.248498  0  1.419205  1.855808  0  2.486595  0
La  La1  1  0.36328645  0.37217538  0.61887700  1  2.249063  0  1.419266  1.855517  0  2.486974  0
La  La2  1  0.64554870  0.87219287  0.11889087  1  2.248516  0  1.4192  1.855831  0  2.48666  0
La  La3  1  0.63671075  0.62782596  0.38112206  1  2.249076  0  1.41924  1.855625  0  2.486766  0
H  H4  1  0.62441371  0.82121021  0.43767114  1  0.65237  0  0.292809  0.358971  0  0.993802  0
H  H5  1  0.88271790  0.67854175  0.06232820  1  0.652977  0  0.29249  0.358645  0  0.993859  0
H  H6  1  0.37558522  0.17878992  0.56233109  1  0.652328  0  0.292793  0.358893  0  0.993915  0
H  H7  1  0.11727752  0.32145163  0.93767226  1  0.653012  0  0.292483  0.358627  0  0.993785  0
H  H8  1  0.08843358  0.93877181  0.67167835  1  0.454371  0  0.313718  0.262036  0  0.938959  0
H  H9  1  0.69895126  0.56121794  0.82831680  1  0.423029  0  0.313662  0.262063  0  0.938534  0
H  H10  1  0.91157122  0.06123015  0.32832037  1  0.454414  0  0.313697  0.262075  0  0.93895  0
H  H11  1  0.30104879  0.43878218  0.17168284  1  0.423001  0  0.31369  0.262122  0  0.938576  0
H  H12  1  0.70562385  0.79160835  0.61561169  1  0.42722  0  0.312943  0.259286  0  0.941573  0
H  H13  1  0.11324470  0.70828105  0.88445862  1  0.425755  0  0.313806  0.260467  0  0.940883  0
H  H14  1  0.29437199  0.20839116  0.38438941  1  0.427229  0  0.31295  0.259278  0  0.941589  0
H  H15  1  0.88676011  0.29172092  0.11554296  1  0.425802  0  0.313803  0.26044  0  0.940861  0
H  H16  1  0.74736129  0.64787544  0.66683614  1  0.036822  0  0.098356  0.065835  0  1.006327  0
H  H17  1  0.06227662  0.85202749  0.83328990  1  0.015964  0  0.098425  0.066336  0  1.006558  0
H  H18  1  0.25264103  0.35212468  0.33316499  1  0.036274  0  0.098344  0.06586  0  1.006243  0
H  H19  1  0.93772562  0.14797508  0.16670794  1  0.016014  0  0.098427  0.066295  0  1.006523  0
H  H20  1  0.57329114  0.71173434  0.69122135  1  0.046735  0  0.101603  0.076841  0  1.002448  0
H  H21  1  0.97638907  0.78826018  0.80886009  1  0.015096  0  0.101483  0.076659  0  1.004465  0
H  H22  1  0.42671296  0.28826211  0.30878179  1  0.046906  0  0.101658  0.076942  0  1.002403  0
H  H23  1  0.02360766  0.21173750  0.19114266  1  0.015077  0  0.101484  0.076691  0  1.004369  0
H  H24  1  0.97071067  0.93794236  0.76316988  1  0.02939  0  0.103358  0.077117  0  0.999161  0
H  H25  1  0.67191880  0.56220107  0.73681192  1  0.036511  0  0.103221  0.076953  0  0.998314  0
H  H26  1  0.02929111  0.06205654  0.23682943  1  0.029349  0  0.103365  0.077094  0  0.999141  0
H  H27  1  0.32808321  0.43779967  0.26318698  1  0.036479  0  0.103217  0.076985  0  0.998305  0
H  H28  1  0.14610874  0.86321691  0.74971324  1  0.046414  0  0.09664  0.066379  0  1.02184  0
H  H29  1  0.75907501  0.63693172  0.75029525  1  0.043014  0  0.097146  0.066696  0  1.021987  0
H  H30  1  0.85389725  0.13678260  0.25028428  1  0.046372  0  0.096658  0.066397  0  1.021801  0
H  H31  1  0.24092670  0.36306963  0.24970427  1  0.043063  0  0.097141  0.066679  0  1.021979  0
H  H32  1  0.59646510  0.99141208  0.72824309  1  0.074793  0  0.090843  0.131444  0  1.030359  0
H  H33  1  0.31627226  0.50871982  0.77160800  1  0.069606  0  0.091281  0.132683  0  1.030057  0
H  H34  1  0.40354089  0.00858743  0.27175665  1  0.074748  0  0.09083  0.131451  0  1.030328  0
H  H35  1  0.68372921  0.49127969  0.22839193  1  0.069562  0  0.091286  0.132684  0  1.030052  0
H  H36  1  0.77775370  0.00543656  0.73655466  1  0.024072  0  0.087279  0.118302  0  1.035291  0
H  H37  1  0.51992215  0.49466935  0.76340268  1  0.038619  0  0.087356  0.118789  0  1.034561  0
H  H38  1  0.22225229  0.99456295  0.26344350  1  0.024097  0  0.087294  0.11835  0  1.035265  0
H  H39  1  0.48007903  0.50533077  0.23659691  1  0.038674  0  0.087345  0.118781  0  1.034556  0
H  H40  1  0.67021322  0.95656438  0.77733464  1  0.058358  0  0.095462  0.140579  0  0.994796  0
H  H41  1  0.40450516  0.54356228  0.72256287  1  0.078895  0  0.095528  0.14088  0  0.994568  0
H  H42  1  0.32979503  0.04343513  0.22266501  1  0.058337  0  0.095479  0.140603  0  0.994745  0
H  H43  1  0.59549631  0.45643723  0.27743642  1  0.078914  0  0.095503  0.140816  0  0.994609  0
H  H44  1  0.46536943  0.82289832  0.70154351  1  0.03255  0  0.086533  0.117783  0  1.058469  0
H  H45  1  0.98999062  0.67722328  0.79831594  1  0.031829  0  0.086299  0.117074  0  1.058731  0
H  H46  1  0.53463385  0.17709752  0.29845906  1  0.032559  0  0.086502  0.117708  0  1.058499  0
H  H47  1  0.01001026  0.32277746  0.20168300  1  0.031792  0  0.0863  0.117056  0  1.058738  0
H  H48  1  0.49103826  0.92226632  0.68903250  1  0.049863  0  0.090855  0.130501  0  1.006729  0
H  H49  1  0.10244006  0.57783638  0.81082276  1  0.05935  0  0.090568  0.13035  0  1.006839  0
H  H50  1  0.50896246  0.07773013  0.31097046  1  0.049728  0  0.090815  0.130415  0  1.00672  0
H  H51  1  0.89755999  0.42216374  0.18917592  1  0.059398  0  0.090563  0.13033  0  1.006851  0
H  H52  1  0.47124395  0.88577899  0.74306509  1  0.044331  0  0.090111  0.127787  0  1.013884  0
H  H53  1  0.10029997  0.61438803  0.75679669  1  0.049529  0  0.09006  0.12771  0  1.013971  0
H  H54  1  0.52876182  0.11421869  0.25693825  1  0.037499  0  0.090119  0.127755  0  1.014016  0
H  H55  1  0.89969864  0.38561271  0.24320170  1  0.049604  0  0.090081  0.127761  0  1.013938  0
H  H56  1  0.02697473  0.60061795  0.67824910  1  0.05358  0  0.093144  0.131728  0  1.011901  0
H  H57  1  0.30623578  0.89937557  0.82180120  1  0.055231  0  0.093145  0.13185  0  1.01118  0
H  H58  1  0.97302931  0.39938095  0.32175234  1  0.05355  0  0.093132  0.131754  0  1.01189  0
H  H59  1  0.69376344  0.10062394  0.17819945  1  0.055216  0  0.093169  0.131887  0  1.01113  0
H  H60  1  0.14121056  0.65745893  0.64545302  1  0.045429  0  0.092907  0.134401  0  1.020762  0
H  H61  1  0.44445912  0.84244915  0.85461584  1  0.033801  0  0.092898  0.134925  0  1.021705  0
H  H62  1  0.85879318  0.34254058  0.35454682  1  0.045485  0  0.09289  0.134376  0  1.020746  0
H  H63  1  0.55554099  0.15754852  0.14538423  1  0.033815  0  0.092904  0.134891  0  1.021718  0
H  H64  1  0.96067210  0.65316253  0.63069849  1  0.029795  0  0.088922  0.122609  0  1.01972  0
H  H65  1  0.24482653  0.84683640  0.86933922  1  0.026237  0  0.088733  0.122039  0  1.020256  0
H  H66  1  0.03933087  0.34683392  0.36930152  1  0.029836  0  0.088913  0.122602  0  1.019766  0
H  H67  1  0.75517614  0.15316066  0.13066110  1  0.026221  0  0.088714  0.122013  0  1.020275  0
H  H68  1  0.25849791  0.78453200  0.71011439  1  0.026303  0  0.087656  0.117565  0  1.060911  0
H  H69  1  0.75332726  0.71535345  0.79004096  1  0.0256  0  0.08769  0.11813  0  1.060419  0
H  H70  1  0.74150582  0.21546751  0.28988481  1  0.021834  0  0.087623  0.117464  0  1.060855  0
H  H71  1  0.24667332  0.28464789  0.20995669  1  0.025705  0  0.087691  0.118168  0  1.060389  0
H  H72  1  0.24737442  0.75863036  0.65754027  1  0.040588  0  0.090414  0.128782  0  0.995386  0
H  H73  1  0.66354936  0.74131067  0.84256881  1  0.03882  0  0.090282  0.129027  0  0.996588  0
H  H74  1  0.75263217  0.24136792  0.34245855  1  0.040675  0  0.090418  0.128754  0  0.995383  0
H  H75  1  0.33645039  0.25869007  0.15742986  1  0.038788  0  0.090267  0.129049  0  0.996686  0
H  H76  1  0.24569108  0.68548222  0.70092045  1  0.054793  0  0.093111  0.131901  0  1.018518  0
H  H77  1  0.63249085  0.81444833  0.79917202  1  0.056178  0  0.09309  0.132644  0  1.017672  0
H  H78  1  0.75431295  0.31451667  0.29907845  1  0.054747  0  0.09309  0.131836  0  1.018539  0
H  H79  1  0.36750575  0.18555425  0.20082638  1  0.056231  0  0.093103  0.132622  0  1.017677  0
H  H80  1  0.15141507  0.99995348  0.77619986  1  0.076995  0  0.102004  0.10768  0  1.04878  0
H  H81  1  0.92784842  0.50037669  0.72377504  1  0.073982  0  0.102024  0.107858  0  1.048548  0
H  H82  1  0.84858445  0.00004541  0.22379954  1  0.076853  0  0.101987  0.107666  0  1.048853  0
H  H83  1  0.07215223  0.49962220  0.27622464  1  0.073993  0  0.102027  0.107886  0  1.048521  0
H  H84  1  0.39499251  0.17669551  0.71753408  1  0.111719  0  0.11087  0.125244  0  1.005014  0
H  H85  1  0.28922449  0.32337838  0.78244668  1  0.120284  0  0.111293  0.125763  0  1.006113  0
H  H86  1  0.60500012  0.82330830  0.28246950  1  0.111442  0  0.110885  0.125257  0  1.00502  0
H  H87  1  0.71077776  0.67662419  0.21755307  1  0.12037  0  0.111307  0.125786  0  1.006149  0
H  H88  1  0.21003889  0.04102121  0.63770447  1  0.082053  0  0.104539  0.114507  0  1.011186  0
H  H89  1  0.88889288  0.45906792  0.86227018  1  0.088753  0  0.104467  0.114676  0  1.010915  0
H  H90  1  0.78996329  0.95898382  0.36229580  1  0.08234  0  0.104542  0.114477  0  1.011078  0
H  H91  1  0.11110777  0.54093098  0.13772886  1  0.088745  0  0.104488  0.114682  0  1.010955  0
H  H92  1  0.44757426  0.60171815  0.51422778  1  0.127545  0  0.109569  0.118274  0  1.037506  0
H  H93  1  0.56361490  0.89826744  0.98562089  1  0.116536  0  0.10922  0.117871  0  1.036693  0
H  H94  1  0.55242586  0.39827952  0.48577324  1  0.127511  0  0.109595  0.118296  0  1.037457  0
H  H95  1  0.43638320  0.10173207  0.01438171  1  0.116567  0  0.109198  0.117812  0  1.036819  0
H  H96  1  0.64754624  0.79163080  0.54450166  1  0.083739  0  0.107012  0.119065  0  1.008004  0
H  H97  1  0.98369904  0.70824984  0.95556392  1  0.068918  0  0.107437  0.120103  0  1.006843  0
H  H98  1  0.35244622  0.20836871  0.45550212  1  0.083721  0  0.106997  0.119025  0  1.007988  0
H  H99  1  0.01630880  0.29175519  0.04443898  1  0.068595  0  0.107398  0.120027  0  1.006973  0
H  H100  1  0.51673317  0.62144719  0.64469506  1  0.106547  0  0.104897  0.113786  0  1.035102  0
H  H101  1  0.78340496  0.87833421  0.85522590  1  0.105967  0  0.104655  0.113739  0  1.034645  0
H  H102  1  0.48326731  0.37854742  0.35530546  1  0.106628  0  0.104917  0.113845  0  1.03507  0
H  H103  1  0.21659949  0.12167082  0.14477777  1  0.105848  0  0.104644  0.113691  0  1.034635  0
H  H104  1  0.61971944  0.35683331  0.82786674  1  0.032427  0  0.107966  0.123009  0  0.976625  0
H  H105  1  0.80479088  0.14302204  0.67199345  1  0.076653  0  0.107944  0.122198  0  0.977391  0
H  H106  1  0.38028889  0.64316375  0.17213461  1  0.032756  0  0.107985  0.123077  0  0.976551  0
H  H107  1  0.19520721  0.85697747  0.32800598  1  0.076646  0  0.107945  0.122197  0  0.977422  0
H  H108  1  0.72851445  0.34077795  0.87257270  1  0.042782  0  0.1048  0.117321  0  0.990496  0
H  H109  1  0.94219831  0.15919480  0.62732545  1  0.061442  0  0.104675  0.116894  0  0.99056  0
H  H110  1  0.27149838  0.65921912  0.12742815  1  0.042833  0  0.104804  0.117341  0  0.990493  0
H  H111  1  0.05780091  0.84080471  0.37267457  1  0.061444  0  0.104682  0.116922  0  0.990557  0
H  H112  1  0.56114304  0.30002611  0.87508147  1  0.114674  0  0.120883  0.136735  0  1.006192  0
H  H113  1  0.73654730  0.19986340  0.62477874  1  0.120562  0  0.120772  0.136587  0  1.005469  0
H  H114  1  0.43886641  0.69997096  0.12491984  1  0.114529  0  0.120869  0.136785  0  1.00613  0
H  H115  1  0.26345216  0.80013795  0.37522150  1  0.120582  0  0.120786  0.136638  0  1.005451  0
H  H116  1  0.99621187  0.24215505  0.82766781  1  0.099813  0  0.109876  0.120927  0  1.010855  0
H  H117  1  0.06605895  0.25780420  0.67236387  1  0.109105  0  0.110012  0.121449  0  1.009535  0
H  H118  1  0.00379705  0.75784078  0.17233167  1  0.099453  0  0.109838  0.120867  0  1.010946  0
H  H119  1  0.93394051  0.74219715  0.32763605  1  0.10906  0  0.110003  0.121433  0  1.009547  0
H  H120  1  0.87678389  0.30264450  0.79003121  1  0.053428  0  0.104559  0.115463  0  1.011081  0
H  H121  1  0.96938643  0.19732491  0.70995983  1  0.056853  0  0.104677  0.115066  0  1.01132  0
H  H122  1  0.12322080  0.69735073  0.20996911  1  0.053338  0  0.104568  0.115429  0  1.010989  0
H  H123  1  0.03061813  0.80267521  0.29003930  1  0.056846  0  0.1047  0.115077  0  1.011284  0
H  H124  1  0.94060802  0.19404611  0.78677117  1  0.058037  0  0.108362  0.119263  0  1.027186  0
H  H125  1  0.92123545  0.30593617  0.71320232  1  0.073359  0  0.108192  0.118981  0  1.027426  0
H  H126  1  0.05939352  0.80595095  0.21322887  1  0.058242  0  0.108364  0.119223  0  1.02718  0
H  H127  1  0.07876835  0.69406089  0.28679763  1  0.073148  0  0.108168  0.118976  0  1.027352  0
H  H128  1  0.78207914  0.03702459  0.84113103  1  0.108843  0  0.103967  0.161008  0  1.021799  0
H  H129  1  0.66074096  0.46290671  0.65867619  1  0.115767  0  0.104473  0.161898  0  1.022085  0
H  H130  1  0.21792549  0.96297308  0.15886822  1  0.108867  0  0.103982  0.161041  0  1.021784  0
H  H131  1  0.33926361  0.53709341  0.34132295  1  0.115756  0  0.10446  0.161863  0  1.022136  0
H  H132  1  0.95078041  0.07934771  0.83349685  1  0.125535  0  0.103491  0.165186  0  1.020207  0
H  H133  1  0.86410432  0.42050445  0.66634054  1  0.124365  0  0.103786  0.16585  0  1.019168  0
H  H134  1  0.04922083  0.92064996  0.16650286  1  0.12555  0  0.103483  0.165149  0  1.020293  0
H  H135  1  0.13589633  0.57949445  0.33365882  1  0.124361  0  0.103787  0.165832  0  1.019176  0
H  H136  1  0.82605186  0.09393425  0.79297621  1  0.062494  0  0.105539  0.156892  0  0.987033  0
H  H137  1  0.71335911  0.40611548  0.70687329  1  0.070773  0  0.105461  0.15725  0  0.988472  0
H  H138  1  0.17395420  0.90606281  0.20702301  1  0.062526  0  0.105546  0.156895  0  0.987008  0
H  H139  1  0.28664486  0.59388587  0.29312613  1  0.07074  0  0.105458  0.157242  0  0.98841  0
H  H140  1  0.96469499  0.97111523  0.90593306  1  0.061436  0  0.101879  0.152189  0  1.009796  0
H  H141  1  0.84192133  0.52884336  0.59404786  1  0.062452  0  0.102123  0.152071  0  1.009897  0
H  H142  1  0.03530529  0.02888673  0.09406457  1  0.061646  0  0.101889  0.152194  0  1.009753  0
H  H143  1  0.15807669  0.47115860  0.40595019  1  0.062468  0  0.102104  0.152031  0  1.00988  0
H  H144  1  0.03950821  0.95149235  0.95590212  1  0.060334  0  0.103346  0.153308  0  0.994528  0
H  H145  1  0.94694209  0.54835241  0.54405313  1  0.054329  0  0.10333  0.152993  0  0.994916  0
H  H146  1  0.96049297  0.04850778  0.04409620  1  0.060256  0  0.103308  0.153256  0  0.994502  0
H  H147  1  0.05305593  0.45164955  0.45594586  1  0.054404  0  0.103347  0.152993  0  0.994908  0
H  H148  1  0.16273407  0.97157813  0.90869354  1  0.075532  0  0.112117  0.162233  0  1.005585  0
H  H149  1  0.04326260  0.52825762  0.59124396  1  0.076177  0  0.111765  0.161939  0  1.005778  0
H  H150  1  0.83725991  0.02842751  0.09130450  1  0.075387  0  0.112124  0.162229  0  1.005689  0
H  H151  1  0.95673745  0.47174250  0.40875441  1  0.075617  0  0.111759  0.161905  0  1.005775  0
H  H152  1  0.82589085  0.21107504  0.99286709  1  0.031993  0  0.103089  0.11463  0  0.982691  0
H  H153  1  0.02897030  0.28880978  0.50715259  1  0.075193  0  0.103151  0.11424  0  0.983162  0
H  H154  1  0.17410372  0.78892937  0.00713003  1  0.031865  0  0.103055  0.114586  0  0.982705  0
H  H155  1  0.97102600  0.71119340  0.49284516  1  0.075367  0  0.103148  0.114273  0  0.983158  0
H  H156  1  0.68591806  0.22343333  0.95578989  1  0.095974  0  0.112673  0.12931  0  0.981254  0
H  H157  1  0.86437596  0.27657685  0.54428867  1  0.090669  0  0.112357  0.128942  0  0.980674  0
H  H158  1  0.31407545  0.77656863  0.04420866  1  0.096119  0  0.112649  0.129328  0  0.981231  0
H  H159  1  0.13561528  0.72342511  0.45570870  1  0.090481  0  0.112347  0.128908  0  0.980728  0
H  H160  1  0.88142952  0.23142139  0.93733363  1  0.095243  0  0.113241  0.131155  0  1.008558  0
H  H161  1  0.04966201  0.26843044  0.56267757  1  0.10642  0  0.113183  0.131102  0  1.009226  0
H  H162  1  0.11856000  0.76858180  0.06266375  1  0.095759  0  0.11323  0.13121  0  1.008534  0
H  H163  1  0.95033036  0.73157152  0.43732039  1  0.106471  0  0.113173  0.131096  0  1.009267  0
H  H164  1  0.63112687  0.09559966  0.95759603  1  0.094647  0  0.113234  0.123452  0  1.022026  0
H  H165  1  0.68397891  0.40447628  0.54239385  1  0.09044  0  0.11318  0.123417  0  1.021144  0
H  H166  1  0.36886949  0.90440107  0.04240214  1  0.094592  0  0.113167  0.123393  0  1.022154  0
H  H167  1  0.31601318  0.59552629  0.45760631  1  0.090488  0  0.113148  0.123353  0  1.021123  0
H  H168  1  0.72126720  0.06712885  0.00558983  1  0.050167  0  0.105087  0.126765  0  0.999442  0
H  H169  1  0.79374904  0.43286119  0.49440765  1  0.048735  0  0.105214  0.126459  0  1.000418  0
H  H170  1  0.27872916  0.93287188  0.99440771  1  0.05002  0  0.105077  0.126797  0  0.999557  0
H  H171  1  0.20624025  0.56714015  0.50559173  1  0.04868  0  0.10522  0.126499  0  1.000349  0
H  H172  1  0.78042317  0.00321171  0.96122695  1  0.073875  0  0.108043  0.124459  0  1.029374  0
H  H173  1  0.74476083  0.49677137  0.53876240  1  0.072079  0  0.107765  0.123936  0  1.030088  0
H  H174  1  0.21957627  0.99678964  0.03877107  1  0.073848  0  0.108051  0.124451  0  1.029375  0
H  H175  1  0.25523404  0.50323243  0.46123696  1  0.072108  0  0.107776  0.123958  0  1.030066  0
C  C176  1  0.68146422  0.71253091  0.66976336  1  0.305938  0  -0.062249  -0.044844  0  3.989606  0
C  C177  1  0.06399796  0.78737372  0.83031274  1  0.367936  0  -0.061948  -0.04573  0  3.993912  0
C  C178  1  0.31853560  0.28746738  0.33023797  1  0.306088  0  -0.062324  -0.045  0  3.989569  0
C  C179  1  0.93600263  0.21262763  0.16968841  1  0.368002  0  -0.062  -0.045818  0  3.993836  0
C  C180  1  0.77486819  0.76033179  0.68832284  1  0.077612  0  -0.023132  -0.052464  0  3.971266  0
C  C181  1  0.22371327  0.73967604  0.81169609  1  -0.086874  0  -0.023291  -0.052801  0  3.972411  0
C  C182  1  0.22513787  0.23966527  0.31167734  1  0.078116  0  -0.023079  -0.052386  0  3.971133  0
C  C183  1  0.77628679  0.26032408  0.18830418  1  -0.086898  0  -0.023287  -0.052791  0  3.972502  0
C  C184  1  0.69741500  0.83466749  0.70756601  1  -0.105149  0  -0.015916  0.063046  0  3.949012  0
C  C185  1  0.23981252  0.66541920  0.79236857  1  -0.009795  0  -0.015654  0.063384  0  3.946481  0
C  C186  1  0.30259046  0.16533079  0.29243445  1  -0.10524  0  -0.015948  0.062987  0  3.949038  0
C  C187  1  0.76018896  0.33458031  0.20763041  1  -0.00975  0  -0.015696  0.063238  0  3.946759  0
C  C188  1  0.78547126  0.88092221  0.72325213  1  0.062733  0  -0.017212  0.054999  0  3.956252  0
C  C189  1  0.38978840  0.61918562  0.77667628  1  0.010581  0  -0.017371  0.05453  0  3.954033  0
C  C190  1  0.21453300  0.11907852  0.27674636  1  0.062735  0  -0.017196  0.055057  0  3.956343  0
C  C191  1  0.61021420  0.38081389  0.22332233  1  0.010573  0  -0.017361  0.054613  0  3.954134  0
C  C192  1  0.94913684  0.85097901  0.72012128  1  -0.098005  0  -0.022558  -0.047824  0  3.961811  0
C  C193  1  0.52034393  0.64910476  0.77987088  1  -0.0336  0  -0.023391  -0.049199  0  3.961477  0
C  C194  1  0.05086606  0.14901989  0.27987767  1  -0.098011  0  -0.022555  -0.04793  0  3.961965  0
C  C195  1  0.47965725  0.35089536  0.22012776  1  -0.033302  0  -0.023358  -0.049199  0  3.96146  0
C  C196  1  0.02731509  0.77869734  0.69895604  1  -0.027558  0  -0.01888  0.056222  0  3.948802  0
C  C197  1  0.50511732  0.72134052  0.80106991  1  -0.016912  0  -0.018371  0.057708  0  3.946177  0
C  C198  1  0.97268865  0.22130217  0.30104348  1  -0.027365  0  -0.018815  0.056257  0  3.948814  0
C  C199  1  0.49488243  0.27866021  0.19892907  1  -0.016936  0  -0.018435  0.057607  0  3.946289  0
C  C200  1  0.93914046  0.73324211  0.68255892  1  -0.058587  0  -0.020981  0.048218  0  3.962655  0
C  C201  1  0.35512252  0.76677102  0.81747543  1  -0.035297  0  -0.021132  0.048452  0  3.961803  0
C  C202  1  0.06086334  0.26675495  0.31744039  1  -0.059095  0  -0.020956  0.048331  0  3.962557  0
C  C203  1  0.64487753  0.23322910  0.18252452  1  -0.035262  0  -0.021112  0.048518  0  3.961556  0
C  C204  1  0.04149463  0.90204991  0.73650849  1  0.322054  0  -0.062758  -0.046367  0  3.994149  0
C  C205  1  0.68014571  0.59807702  0.76349247  1  0.311005  0  -0.062576  -0.045771  0  3.99348  0
C  C206  1  0.95850851  0.09795083  0.26349099  1  0.322143  0  -0.062728  -0.046241  0  3.994028  0
C  C207  1  0.31985713  0.40192433  0.23650764  1  0.310703  0  -0.062578  -0.045773  0  3.993495  0
C  C208  1  0.70406986  0.96221773  0.74233537  1  -0.116432  0  -0.242975  -0.407196  0  3.959116  0
C  C209  1  0.40886127  0.53789980  0.75757440  1  -0.125021  0  -0.243696  -0.409452  0  3.958968  0
C  C210  1  0.29593215  0.03778301  0.25766479  1  -0.116413  0  -0.242984  -0.407283  0  3.959091  0
C  C211  1  0.59114080  0.46209849  0.24242524  1  -0.124967  0  -0.24365  -0.409373  0  3.958984  0
C  C212  1  0.52287795  0.86728627  0.71052336  1  -0.080761  0  -0.245215  -0.405127  0  3.969719  0
C  C213  1  0.10085974  0.63283671  0.78935298  1  -0.087016  0  -0.2445  -0.403607  0  3.967747  0
C  C214  1  0.47712360  0.13271079  0.28947890  1  -0.073869  0  -0.245167  -0.404957  0  3.96979  0
C  C215  1  0.89914001  0.36716403  0.21064601  1  -0.087185  0  -0.244493  -0.403572  0  3.967771  0
C  C216  1  0.02067891  0.65767430  0.65812335  1  -0.074221  0  -0.242369  -0.404901  0  3.959379  0
C  C217  1  0.33679670  0.84230884  0.84193090  1  -0.061066  0  -0.242157  -0.405089  0  3.959941  0
C  C218  1  0.97932715  0.34232276  0.34187618  1  -0.074209  0  -0.242384  -0.405007  0  3.959484  0
C  C219  1  0.66320567  0.15768883  0.15806876  1  -0.061059  0  -0.242161  -0.405053  0  3.959783  0
C  C220  1  0.20323056  0.75075065  0.69174497  1  -0.066738  0  -0.244989  -0.410561  0  3.97203  0
C  C221  1  0.64588911  0.74920622  0.80835311  1  -0.070189  0  -0.245113  -0.412532  0  3.97231  0
C  C222  1  0.79677573  0.24924825  0.30825384  1  -0.062388  0  -0.24496  -0.410319  0  3.971871  0
C  C223  1  0.35411260  0.25079513  0.19164513  1  -0.070341  0  -0.245102  -0.412543  0  3.972459  0
C  C224  1  0.16726226  0.01255532  0.70634476  1  0.388137  0  0.093873  0.233829  0  4.133865  0
C  C225  1  0.88633410  0.48756868  0.79363162  1  0.401182  0  0.094248  0.235059  0  4.134217  0
C  C226  1  0.83274117  0.98744481  0.29365506  1  0.388162  0  0.093843  0.233852  0  4.133812  0
C  C227  1  0.11366624  0.51243083  0.20636740  1  0.401187  0  0.094316  0.23517  0  4.134095  0
C  C228  1  0.19372913  0.03063401  0.74696012  1  -0.070919  0  -0.10096  -0.224576  0  3.945722  0
C  C229  1  0.97149829  0.46959430  0.75301462  1  -0.052788  0  -0.101719  -0.225759  0  3.944352  0
C  C230  1  0.80627377  0.96936489  0.25303978  1  -0.070738  0  -0.100914  -0.224564  0  3.945769  0
C  C231  1  0.02850206  0.53040521  0.24698504  1  -0.052995  0  -0.101755  -0.225842  0  3.944384  0
C  C232  1  0.27837054  0.08785883  0.75072459  1  -0.00407  0  -0.018207  -0.011859  0  4.010814  0
C  C233  1  0.11706639  0.41231641  0.74926445  1  -0.017729  0  -0.018192  -0.011787  0  4.008474  0
C  C234  1  0.72162417  0.91214068  0.24927720  1  -0.004143  0  -0.018318  -0.011999  0  4.010997  0
C  C235  1  0.88293569  0.58768188  0.25073551  1  -0.017624  0  -0.018188  -0.011737  0  4.008563  0
C  C236  1  0.33361369  0.13032534  0.71440854  1  -0.056512  0  -0.090434  -0.14818  0  3.946834  0
C  C237  1  0.17837871  0.36976487  0.78557894  1  -0.023042  0  -0.090462  -0.148625  0  3.947573  0
C  C238  1  0.66638262  0.86967784  0.28559333  1  -0.056087  0  -0.090513  -0.148336  0  3.946924  0
C  C239  1  0.82162330  0.63023586  0.21442090  1  -0.022803  0  -0.090435  -0.148656  0  3.947571  0
C  C240  1  0.30604843  0.11294099  0.67388771  1  0.033616  0  -0.023445  -0.037484  0  4.045926  0
C  C241  1  0.09292868  0.38712090  0.82609976  1  -0.018193  0  -0.023834  -0.037421  0  4.046317  0
C  C242  1  0.69395526  0.88706098  0.32611551  1  0.033183  0  -0.02335  -0.03725  0  4.04567  0
C  C243  1  0.90706917  0.61287677  0.17389977  1  -0.018207  0  -0.023894  -0.037427  0  4.046351  0
C  C244  1  0.22703055  0.05377530  0.66981846  1  -0.058723  0  -0.096701  -0.219483  0  3.972753  0
C  C245  1  0.95072861  0.44628881  0.83016287  1  -0.066358  0  -0.097382  -0.221489  0  3.974002  0
C  C246  1  0.77296463  0.94622789  0.33018282  1  -0.058761  0  -0.096732  -0.219506  0  3.972547  0
C  C247  1  0.04927286  0.55371070  0.16983611  1  -0.066445  0  -0.097393  -0.221535  0  3.97404  0
C  C248  1  0.30888093  0.10207744  0.79464528  1  1.536695  0  0.192141  0.566324  0  4.212277  0
C  C249  1  0.20567153  0.39806180  0.70534899  1  1.558611  0  0.193096  0.567722  0  4.208994  0
C  C250  1  0.69112144  0.89792023  0.20535533  1  1.536803  0  0.192247  0.566513  0  4.212208  0
C  C251  1  0.79432882  0.60193771  0.29465035  1  1.558641  0  0.193118  0.567769  0  4.209013  0
C  C252  1  0.40845180  0.53463932  0.59573658  1  1.538887  0  0.186324  0.550464  0  4.247854  0
C  C253  1  0.53913686  0.96524751  0.90409369  1  1.543376  0  0.187632  0.554035  0  4.246651  0
C  C254  1  0.59154546  0.46535957  0.40426418  1  1.538846  0  0.186345  0.550421  0  4.248022  0
C  C255  1  0.46085452  0.03474955  0.09590804  1  1.543123  0  0.187654  0.553995  0  4.24684  0
C  C256  1  0.47378375  0.60646392  0.58106771  1  -0.073111  0  -0.022822  -0.020023  0  4.034327  0
C  C257  1  0.66161594  0.89341954  0.91880946  1  -0.107675  0  -0.023494  -0.022123  0  4.035376  0
C  C258  1  0.52621322  0.39353559  0.41893399  1  -0.073114  0  -0.022776  -0.019928  0  4.034378  0
C  C259  1  0.33838239  0.10658182  0.08119337  1  -0.107446  0  -0.023569  -0.022273  0  4.035482  0
C  C260  1  0.48463793  0.63328921  0.53780665  1  0.026326  0  -0.092604  -0.146828  0  3.95564  0
C  C261  1  0.65588653  0.86665493  0.96208470  1  0.060825  0  -0.092829  -0.146442  0  3.955645  0
C  C262  1  0.51535874  0.36671091  0.46219503  1  0.026679  0  -0.092673  -0.146919  0  3.95549  0
C  C263  1  0.34411739  0.13334888  0.03791715  1  0.060645  0  -0.092776  -0.146301  0  3.955814  0
C  C264  1  0.54715572  0.70052187  0.52515332  1  -0.048796  0  -0.023156  -0.036869  0  4.037061  0
C  C265  1  0.77281139  0.79938214  0.97480799  1  -0.069715  0  -0.023143  -0.035424  0  4.037271  0
C  C266  1  0.45283726  0.29947887  0.47484880  1  -0.048595  0  -0.023209  -0.03692  0  4.037099  0
C  C267  1  0.22719568  0.20061982  0.02519381  1  -0.069453  0  -0.02322  -0.035541  0  4.037238  0
C  C268  1  0.59950840  0.73941947  0.55522666  1  -0.025811  0  -0.094838  -0.20553  0  3.941482  0
C  C269  1  0.89424817  0.76045787  0.94478809  1  -0.016001  0  -0.095126  -0.207994  0  3.942581  0
C  C270  1  0.40048489  0.26058066  0.44477643  1  -0.026564  0  -0.094825  -0.205488  0  3.941502  0
C  C271  1  0.10575991  0.23954900  0.05521503  1  -0.016078  0  -0.095092  -0.207772  0  3.942531  0
C  C272  1  0.59193629  0.71155283  0.59874202  1  0.438154  0  0.092419  0.232166  0  4.133153  0
C  C273  1  0.90248632  0.78826690  0.90126395  1  0.403536  0  0.093379  0.234332  0  4.131653  0
C  C274  1  0.40806752  0.28844423  0.40126015  1  0.438344  0  0.09244  0.232212  0  4.133165  0
C  C275  1  0.09751528  0.21173935  0.09873883  1  0.403698  0  0.093259  0.23389  0  4.13214  0
C  C276  1  0.52751263  0.64460934  0.61135783  1  -0.125911  0  -0.099026  -0.218344  0  3.944088  0
C  C277  1  0.78385877  0.85520946  0.88857295  1  -0.048858  0  -0.099009  -0.219119  0  3.944589  0
C  C278  1  0.47248749  0.35538834  0.38864415  1  -0.12584  0  -0.099125  -0.218539  0  3.944359  0
C  C279  1  0.21614741  0.14479434  0.11143008  1  -0.048803  0  -0.098873  -0.218812  0  3.944462  0
C  C280  1  0.56008451  0.73033896  0.47907490  1  1.54794  0  0.242392  0.614369  0  4.125278  0
C  C281  1  0.76913112  0.76956530  0.02089708  1  1.563816  0  0.241656  0.611502  0  4.129153  0
C  C282  1  0.43991216  0.26966117  0.52092646  1  1.54792  0  0.242368  0.614368  0  4.125365  0
C  C283  1  0.23086276  0.23043360  0.97910509  1  1.563889  0  0.241816  0.611627  0  4.129217  0
C  C284  1  0.35090645  0.16145692  0.63432399  1  1.566555  0  0.227676  0.60555  0  4.188504  0
C  C285  1  0.14669811  0.33867130  0.86568838  1  1.569857  0  0.228296  0.607442  0  4.185763  0
C  C286  1  0.64909010  0.83854811  0.36567874  1  1.56648  0  0.227695  0.605545  0  4.188529  0
C  C287  1  0.85330901  0.66132821  0.13431037  1  1.569632  0  0.228211  0.607346  0  4.185817  0
C  C288  1  0.99804019  0.07849234  0.93217668  1  1.390103  0  0.254786  0.530647  0  4.029862  0
C  C289  1  0.00855657  0.42136385  0.56781436  1  1.379386  0  0.25498  0.531584  0  4.032761  0
C  C290  1  0.00195753  0.92151024  0.06782072  1  1.390071  0  0.25491  0.530943  0  4.029772  0
C  C291  1  0.99144062  0.57863749  0.43218375  1  1.379072  0  0.255006  0.531668  0  4.032646  0
C  C292  1  0.72512340  0.16522635  0.84785573  1  1.350725  0  0.26214  0.546548  0  4.012935  0
C  C293  1  0.73837750  0.33467874  0.65205033  1  1.344941  0  0.262715  0.547367  0  4.01361  0
C  C294  1  0.27487724  0.83477254  0.15214363  1  1.350713  0  0.262198  0.546668  0  4.013005  0
C  C295  1  0.26161976  0.66532016  0.34794980  1  1.344864  0  0.262624  0.547253  0  4.013936  0
C  C296  1  0.66116191  0.31318027  0.85422364  1  0.290204  0  -0.126545  -0.264534  0  3.897135  0
C  C297  1  0.82883863  0.18673584  0.64564987  1  0.208464  0  -0.126167  -0.263161  0  3.895019  0
C  C298  1  0.33884867  0.68681679  0.14577699  1  0.289913  0  -0.126538  -0.264654  0  3.896918  0
C  C299  1  0.17116255  0.81326428  0.35434973  1  0.208481  0  -0.126217  -0.263282  0  3.895051  0
C  C300  1  0.90116857  0.24398915  0.80873796  1  0.25106  0  -0.129374  -0.265568  0  3.891504  0
C  C301  1  0.95386647  0.25597413  0.69124427  1  0.235332  0  -0.12954  -0.266556  0  3.889289  0
C  C302  1  0.09883665  0.75600729  0.19126164  1  0.251347  0  -0.129341  -0.265412  0  3.891478  0
C  C303  1  0.04613335  0.74402415  0.30875547  1  0.2358  0  -0.129537  -0.26655  0  3.889195  0
C  C304  1  0.82842903  0.08892490  0.82795384  1  -0.151587  0  -0.23588  -0.523253  0  3.885246  0
C  C305  1  0.74573037  0.41100784  0.67189427  1  -0.167135  0  -0.237089  -0.526231  0  3.887014  0
C  C306  1  0.17157417  0.91107339  0.17204544  1  -0.151607  0  -0.23591  -0.523291  0  3.885346  0
C  C307  1  0.25427200  0.58898983  0.32810539  1  -0.167101  0  -0.237032  -0.526113  0  3.887004  0
C  C308  1  0.04375327  0.98773694  0.92528607  1  -0.071016  0  -0.230593  -0.509706  0  3.899807  0
C  C309  1  0.95687502  0.51214400  0.57467983  1  -0.068918  0  -0.230367  -0.508876  0  3.899781  0
C  C310  1  0.95624505  0.01226441  0.07471263  1  -0.071071  0  -0.23059  -0.509701  0  3.899796  0
C  C311  1  0.04312247  0.48785674  0.42531893  1  -0.068426  0  -0.230336  -0.50877  0  3.899699  0
C  C312  1  0.80968840  0.19986977  0.96008878  1  0.263235  0  -0.130068  -0.265758  0  3.894623  0
C  C313  1  0.96903254  0.30002730  0.53994875  1  0.214197  0  -0.129776  -0.264273  0  3.895416  0
C  C314  1  0.19030397  0.80013219  0.03990886  1  0.26286  0  -0.129981  -0.265715  0  3.894618  0
C  C315  1  0.03095953  0.69997527  0.46004856  1  0.214128  0  -0.129777  -0.264278  0  3.895444  0
C  C316  1  0.74198811  0.06680384  0.97030546  1  0.253979  0  -0.132172  -0.279063  0  3.88428  0
C  C317  1  0.77886832  0.43318170  0.52969471  1  0.266429  0  -0.132185  -0.278285  0  3.887345  0
C  C318  1  0.25800735  0.93319873  0.02969107  1  0.254194  0  -0.132107  -0.278977  0  3.884426  0
C  C319  1  0.22112294  0.56682026  0.47030552  1  0.266478  0  -0.132182  -0.278283  0  3.8873  0
N  N320  1  0.08260698  0.95759256  0.70169561  1  -1.235026  0  -0.446276  -0.343634  0  3.571563  0
N  N321  1  0.74204764  0.54250629  0.79828578  1  -1.212389  0  -0.445802  -0.343426  0  3.572289  0
N  N322  1  0.91739533  0.04240756  0.29830362  1  -1.235118  0  -0.446292  -0.343745  0  3.571596  0
N  N323  1  0.25795300  0.45749260  0.20171326  1  -1.212372  0  -0.445835  -0.343515  0  3.572341  0
N  N324  1  0.64527844  0.75015642  0.62783641  1  -1.178769  0  -0.443655  -0.337619  0  3.561933  0
N  N325  1  0.02358932  0.74964697  0.87220860  1  -1.191202  0  -0.444478  -0.33833  0  3.562271  0
N  N326  1  0.35471966  0.24984309  0.37216556  1  -1.178697  0  -0.443637  -0.337608  0  3.561826  0
N  N327  1  0.97641596  0.25035868  0.12779406  1  -1.191475  0  -0.444355  -0.33801  0  3.562384  0
N  N328  1  0.75973618  0.23730231  0.83654469  1  -1.181663  0  -0.272717  -0.022395  0  3.64204  0
N  N329  1  0.83371083  0.26260787  0.66337577  1  -1.178287  0  -0.272801  -0.020764  0  3.637858  0
N  N330  1  0.24026560  0.76269659  0.16345589  1  -1.181642  0  -0.272756  -0.022457  0  3.642097  0
N  N331  1  0.16628560  0.73739042  0.33662442  1  -1.1785  0  -0.272754  -0.020679  0  3.637848  0
N  N332  1  0.85638829  0.11231178  0.95299446  1  -1.219713  0  -0.276717  -0.025927  0  3.658416  0
N  N333  1  0.92136067  0.38759140  0.54703049  1  -1.21729  0  -0.276564  -0.027036  0  3.662509  0
N  N334  1  0.14360776  0.88768957  0.04700274  1  -1.219846  0  -0.276695  -0.02611  0  3.65872  0
N  N335  1  0.07863343  0.61240933  0.45296905  1  -1.217244  0  -0.276543  -0.027013  0  3.662402  0
O  O336  1  0.22237650  0.07958050  0.82734068  1  -1.205426  0  -0.395887  -0.631193  0  2.189485  0
O  O337  1  0.12933805  0.42055913  0.67264315  1  -1.20025  0  -0.395779  -0.630936  0  2.18755  0
O  O338  1  0.77761845  0.92042085  0.17266038  1  -1.205699  0  -0.395953  -0.631232  0  2.189454  0
O  O339  1  0.87066147  0.57943977  0.32735752  1  -1.200257  0  -0.395808  -0.631019  0  2.187547  0
O  O340  1  0.41747296  0.13530650  0.79888277  1  -1.167204  0  -0.366081  -0.57793  0  2.118504  0
O  O341  1  0.35171736  0.36481408  0.70111465  1  -1.187007  0  -0.367126  -0.579239  0  2.117914  0
O  O342  1  0.58252799  0.86469178  0.20111883  1  -1.166953  0  -0.366113  -0.57803  0  2.11854  0
O  O343  1  0.64828044  0.63518604  0.29888540  1  -1.18705  0  -0.367118  -0.579248  0  2.117899  0
O  O344  1  0.40376073  0.51036684  0.63541293  1  -1.187159  0  -0.371745  -0.606507  0  2.190465  0
O  O345  1  0.55003118  0.98961561  0.86444006  1  -1.185521  0  -0.371522  -0.607316  0  2.190561  0
O  O346  1  0.59623660  0.48962960  0.36458795  1  -1.187083  0  -0.371731  -0.606495  0  2.190461  0
O  O347  1  0.44996002  0.01037716  0.13556092  1  -1.185404  0  -0.371544  -0.607339  0  2.190644  0
O  O348  1  0.36302013  0.49764152  0.56807647  1  -1.191531  0  -0.3798  -0.608635  0  2.160085  0
O  O349  1  0.42885805  0.00212718  0.93173378  1  -1.195987  0  -0.38069  -0.610689  0  2.159888  0
O  O350  1  0.63697113  0.50236044  0.43192376  1  -1.191484  0  -0.379799  -0.608617  0  2.160206  0
O  O351  1  0.57113809  0.99787172  0.06826830  1  -1.195827  0  -0.380668  -0.610611  0  2.15998  0
O  O352  1  0.51872602  0.69451062  0.45120794  1  -1.199378  0  -0.360989  -0.604895  0  2.266499  0
O  O353  1  0.66417326  0.80552699  0.04873183  1  -1.205853  0  -0.36009  -0.603272  0  2.264804  0
O  O354  1  0.48127409  0.30548705  0.54879086  1  -1.199422  0  -0.360923  -0.604855  0  2.266652  0
O  O355  1  0.33582341  0.19447314  0.95127048  1  -1.205766  0  -0.360149  -0.603338  0  2.264917  0
O  O356  1  0.61606119  0.79428319  0.47131158  1  -1.17852  0  -0.314553  -0.491255  0  2.306932  0
O  O357  1  0.88095434  0.70546569  0.02868463  1  -1.184697  0  -0.314306  -0.49027  0  2.310588  0
O  O358  1  0.38393578  0.20571633  0.52868949  1  -1.178479  0  -0.314571  -0.491206  0  2.306931  0
O  O359  1  0.11903228  0.29452953  0.97131515  1  -1.184806  0  -0.314343  -0.490273  0  2.310472  0
O  O360  1  0.37964449  0.22946765  0.63924552  1  -1.217384  0  -0.403749  -0.64167  0  2.30656  0
O  O361  1  0.24802094  0.27053212  0.86081782  1  -1.223556  0  -0.403669  -0.642622  0  2.306079  0
O  O362  1  0.62033589  0.77054044  0.36075645  1  -1.217189  0  -0.403656  -0.641681  0  2.306482  0
O  O363  1  0.75199295  0.72946739  0.13917843  1  -1.223462  0  -0.40368  -0.642626  0  2.306053  0
O  O364  1  0.09118877  0.12216985  0.91851409  1  -1.202126  0  -0.365941  -0.584207  0  2.256557  0
O  O365  1  0.13167477  0.37764062  0.58150393  1  -1.197988  0  -0.366229  -0.585435  0  2.260941  0
O  O366  1  0.90880550  0.87783517  0.08148333  1  -1.202012  0  -0.366076  -0.584394  0  2.256618  0
O  O367  1  0.86832152  0.62236257  0.41849349  1  -1.197786  0  -0.366271  -0.585534  0  2.26095  0
O  O368  1  0.60756470  0.16159181  0.87482027  1  -1.198906  0  -0.378297  -0.591037  0  2.271246  0
O  O369  1  0.64403416  0.33831793  0.62510008  1  -1.194695  0  -0.377955  -0.591461  0  2.272576  0
O  O370  1  0.39243713  0.83840464  0.12517883  1  -1.198943  0  -0.378329  -0.591111  0  2.271196  0
O  O371  1  0.35595971  0.66168097  0.37490083  1  -1.194586  0  -0.377922  -0.591448  0  2.272669  0
O  O372  1  0.35213559  0.13274265  0.59810994  1  -1.167773  0  -0.316633  -0.525737  0  2.210281  0
O  O373  1  0.08331336  0.36753436  0.90188801  1  -1.169064  0  -0.316624  -0.526205  0  2.208976  0
O  O374  1  0.64786441  0.86725993  0.40189276  1  -1.167874  0  -0.316669  -0.525785  0  2.210253  0
O  O375  1  0.91669103  0.63246147  0.09811102  1  -1.169141  0  -0.316529  -0.526114  0  2.209117  0
