# generated using pymatgen
data_SrH6C7O4
_symmetry_space_group_name_H-M   'P 1'
_cell_length_a   5.06529180
_cell_length_b   6.97015567
_cell_length_c   22.74586099
_cell_angle_alpha   89.99909845
_cell_angle_beta   90.00035705
_cell_angle_gamma   109.61121707
_symmetry_Int_Tables_number   1
_chemical_formula_structural   SrH6C7O4
_chemical_formula_sum   'Sr4 H24 C28 O16'
_cell_volume   756.47822476
_cell_formula_units_Z   4
loop_
 _symmetry_equiv_pos_site_id
 _symmetry_equiv_pos_as_xyz
  1  'x, y, z'
loop_
 _atom_site_type_symbol
 _atom_site_label
 _atom_site_symmetry_multiplicity
 _atom_site_fract_x
 _atom_site_fract_y
 _atom_site_fract_z
 _atom_site_occupancy
 _atom_site_hle17_bader_spin_density
 _atom_site_hle17_ddec_charge
 _atom_site_hle17_ddec_spin_density
 _atom_site_hle17_ddec_sum_bond_order
 _atom_site_hle17_magmom
 _atom_site_hse06_10hf_bader_spin_density
 _atom_site_hse06_10hf_ddec_charge
 _atom_site_hse06_10hf_ddec_spin_density
 _atom_site_hse06_10hf_ddec_sum_bond_order
 _atom_site_hse06_10hf_magmom
 _atom_site_hse06_bader_spin_density
 _atom_site_hse06_ddec_charge
 _atom_site_hse06_ddec_spin_density
 _atom_site_hse06_ddec_sum_bond_order
 _atom_site_hse06_magmom
 _atom_site_pbe_bader_spin_density
 _atom_site_pbe_cm5_charge
 _atom_site_pbe_ddec_charge
 _atom_site_pbe_ddec_spin_density
 _atom_site_pbe_ddec_sum_bond_order
 _atom_site_pbe_magmom
Sr  Sr0  1  0.79398204  0.20318802  0.97528080  1  0  1.609064  0  1.146327  0  0  1.469932  0  1.505033  0  0  1.508202  0  1.462462  0  0  0.993056  1.44166  0  1.535318  0
Sr  Sr1  1  0.70601971  0.29681284  0.47528405  1  0  1.609167  0  1.146165  0  0  1.469953  0  1.504993  0  0  1.508231  0  1.46243  0  0  0.993072  1.441747  0  1.535189  0
Sr  Sr2  1  0.20602081  0.79680905  0.02471745  1  0  1.609106  0  1.146314  0  0  1.469955  0  1.505045  0  0  1.508226  0  1.462475  0  0  0.993067  1.441693  0  1.535319  0
Sr  Sr3  1  0.29397665  0.70318727  0.52471815  1  0  1.609125  0  1.146271  0  0  1.469957  0  1.505032  0  0  1.508229  0  1.462465  0  0  0.993068  1.441722  0  1.535273  0
H  H4  1  0.13975159  0.91255489  0.81637676  1  0  0.099449  0  0.982479  0  0  0.109313  0  1.048005  0  0  0.112837  0  1.046657  0  0  0.100016  0.10679  0  1.049142  0
H  H5  1  0.36024401  0.58744960  0.31637420  1  0  0.099496  0  0.982398  0  0  0.109354  0  1.047944  0  0  0.112881  0  1.046595  0  0  0.100022  0.106835  0  1.049079  0
H  H6  1  0.86024082  0.08744523  0.18362456  1  0  0.099483  0  0.982501  0  0  0.109359  0  1.048005  0  0  0.112881  0  1.046661  0  0  0.100043  0.106839  0  1.049133  0
H  H7  1  0.63975827  0.41255051  0.68362756  1  0  0.099448  0  0.982484  0  0  0.109327  0  1.047998  0  0  0.112848  0  1.046667  0  0  0.100032  0.106806  0  1.049129  0
H  H8  1  0.15017969  0.66093550  0.73966407  1  0  0.085172  0  0.948646  0  0  0.09844  0  1.006056  0  0  0.100716  0  1.004985  0  0  0.101387  0.096762  0  1.006869  0
H  H9  1  0.34980046  0.83907438  0.23966293  1  0  0.085202  0  0.94856  0  0  0.098445  0  1.005989  0  0  0.100721  0  1.004923  0  0  0.101385  0.096771  0  1.006794  0
H  H10  1  0.84981357  0.33907071  0.26033593  1  0  0.085215  0  0.94859  0  0  0.09847  0  1.006015  0  0  0.100748  0  1.004943  0  0  0.101409  0.096795  0  1.006829  0
H  H11  1  0.65019660  0.16092726  0.76033971  1  0  0.085159  0  0.948576  0  0  0.098427  0  1.00599  0  0  0.100703  0  1.004922  0  0  0.101406  0.096751  0  1.006802  0
H  H12  1  0.41632791  0.42369635  0.75715680  1  0  0.092751  0  0.982905  0  0  0.104454  0  1.043334  0  0  0.106735  0  1.044048  0  0  0.097867  0.102816  0  1.04302  0
H  H13  1  0.08366649  0.07630981  0.25715743  1  0  0.092846  0  0.983116  0  0  0.104488  0  1.043582  0  0  0.106766  0  1.044306  0  0  0.097913  0.102852  0  1.043263  0
H  H14  1  0.58366535  0.57630986  0.24283924  1  0  0.092771  0  0.982961  0  0  0.104447  0  1.043409  0  0  0.106725  0  1.044129  0  0  0.097893  0.10281  0  1.043095  0
H  H15  1  0.91632720  0.92368878  0.74284477  1  0  0.09284  0  0.983106  0  0  0.104478  0  1.043586  0  0  0.106758  0  1.044306  0  0  0.097889  0.102839  0  1.043272  0
H  H16  1  0.68419522  0.45071429  0.85064250  1  0  0.093161  0  0.956849  0  0  0.10466  0  1.01541  0  0  0.107965  0  1.012675  0  0  0.110541  0.10225  0  1.017418  0
H  H17  1  0.81580551  0.04930046  0.35064446  1  0  0.09313  0  0.956855  0  0  0.104606  0  1.015418  0  0  0.107912  0  1.012682  0  0  0.110505  0.102196  0  1.017427  0
H  H18  1  0.31581045  0.54928887  0.14935222  1  0  0.093154  0  0.956711  0  0  0.104624  0  1.015329  0  0  0.107931  0  1.012591  0  0  0.110517  0.102214  0  1.01734  0
H  H19  1  0.18418818  0.95069813  0.64935774  1  0  0.093157  0  0.956856  0  0  0.104646  0  1.015411  0  0  0.107952  0  1.012675  0  0  0.110516  0.102235  0  1.017423  0
H  H20  1  0.17187013  0.28863194  0.86098860  1  0  0.395143  0  0.90482  0  0  0.371648  0  0.965115  0  0  0.379064  0  0.954597  0  0  0.293199  0.366395  0  0.97257  0
H  H21  1  0.32813266  0.21136899  0.36099023  1  0  0.395138  0  0.904834  0  0  0.371638  0  0.965134  0  0  0.379054  0  0.954616  0  0  0.293186  0.366385  0  0.97259  0
H  H22  1  0.82813822  0.71137274  0.13901141  1  0  0.395125  0  0.904808  0  0  0.371627  0  0.965136  0  0  0.379043  0  0.954617  0  0  0.293182  0.366374  0  0.972591  0
H  H23  1  0.67186624  0.78862807  0.63901153  1  0  0.395134  0  0.904846  0  0  0.371637  0  0.965134  0  0  0.379053  0  0.954616  0  0  0.293198  0.36638  0  0.972596  0
H  H24  1  0.18785153  0.09279584  0.89526828  1  0  0.419533  0  0.893236  0  0  0.386318  0  0.961737  0  0  0.398468  0  0.944168  0  0  0.293126  0.377724  0  0.974131  0
H  H25  1  0.31215466  0.40720184  0.39526719  1  0  0.419558  0  0.893202  0  0  0.386341  0  0.961706  0  0  0.398492  0  0.944134  0  0  0.29317  0.377748  0  0.9741  0
H  H26  1  0.81215272  0.90720427  0.10473172  1  0  0.419571  0  0.893185  0  0  0.386366  0  0.96167  0  0  0.398516  0  0.9441  0  0  0.293165  0.377771  0  0.974066  0
H  H27  1  0.68784762  0.59279827  0.60473369  1  0  0.419577  0  0.89318  0  0  0.386363  0  0.961679  0  0  0.398514  0  0.944106  0  0  0.293166  0.377767  0  0.974076  0
C  C28  1  0.55225741  0.68739027  0.88761121  1  0  -0.235482  0  3.722915  0  0  -0.218471  0  3.966505  0  0  -0.234708  0  3.988398  0  0  -0.032315  -0.207905  0  3.951769  0
C  C29  1  0.94774428  0.81261936  0.38761032  1  0  -0.235562  0  3.723271  0  0  -0.218488  0  3.966774  0  0  -0.234724  0  3.98867  0  0  -0.032309  -0.207925  0  3.952039  0
C  C30  1  0.44775291  0.31261441  0.11238660  1  0  -0.235589  0  3.72304  0  0  -0.218306  0  3.966246  0  0  -0.234539  0  3.988145  0  0  -0.032275  -0.207743  0  3.951505  0
C  C31  1  0.05224800  0.18737618  0.61239232  1  0  -0.235497  0  3.723148  0  0  -0.218537  0  3.966742  0  0  -0.234772  0  3.988632  0  0  -0.032293  -0.207973  0  3.951998  0
C  C32  1  0.39739818  0.82337961  0.87821126  1  0  0.386935  0  3.835557  0  0  0.369251  0  4.092462  0  0  0.388073  0  4.106195  0  0  0.103673  0.356661  0  4.082687  0
C  C33  1  0.10259772  0.67662177  0.37821187  1  0  0.386999  0  3.835489  0  0  0.369301  0  4.092369  0  0  0.388123  0  4.106102  0  0  0.103654  0.356717  0  4.082596  0
C  C34  1  0.60261270  0.17662202  0.12178830  1  0  0.386922  0  3.835567  0  0  0.369195  0  4.092396  0  0  0.388012  0  4.106138  0  0  0.103672  0.356607  0  4.082615  0
C  C35  1  0.89740189  0.32337682  0.62178989  1  0  0.386945  0  3.835389  0  0  0.369342  0  4.092201  0  0  0.388167  0  4.105924  0  0  0.103637  0.356763  0  4.082406  0
C  C36  1  0.25818062  0.80977502  0.82331242  1  0  -0.210801  0  3.719088  0  0  -0.229086  0  3.973143  0  0  -0.239436  0  3.993758  0  0  -0.107785  -0.222392  0  3.959264  0
C  C37  1  0.24180021  0.69023979  0.32331008  1  0  -0.210906  0  3.719585  0  0  -0.229191  0  3.973619  0  0  -0.239547  0  3.994241  0  0  -0.107811  -0.222506  0  3.959745  0
C  C38  1  0.74182250  0.19023118  0.17668671  1  0  -0.210836  0  3.719217  0  0  -0.229147  0  3.973286  0  0  -0.239497  0  3.993901  0  0  -0.107811  -0.222461  0  3.959413  0
C  C39  1  0.75818883  0.30975729  0.67669169  1  0  -0.21088  0  3.719426  0  0  -0.229207  0  3.973484  0  0  -0.239566  0  3.994104  0  0  -0.107854  -0.222514  0  3.959599  0
C  C40  1  0.26370388  0.66921866  0.78087295  1  0  -0.014532  0  3.782057  0  0  -0.030246  0  4.033323  0  0  -0.025863  0  4.053158  0  0  -0.083617  -0.032698  0  4.019488  0
C  C41  1  0.23627901  0.83078610  0.28087388  1  0  -0.014524  0  3.782696  0  0  -0.030214  0  4.033945  0  0  -0.02583  0  4.053784  0  0  -0.083609  -0.032661  0  4.0201  0
C  C42  1  0.73629995  0.33078907  0.21912486  1  0  -0.014533  0  3.782066  0  0  -0.030243  0  4.03333  0  0  -0.025858  0  4.053164  0  0  -0.083613  -0.032694  0  4.019503  0
C  C43  1  0.76371199  0.16921097  0.71912744  1  0  -0.01442  0  3.782494  0  0  -0.030128  0  4.033738  0  0  -0.025743  0  4.053574  0  0  -0.083599  -0.03258  0  4.019901  0
C  C44  1  0.41368397  0.53495671  0.79045798  1  0  -0.143537  0  3.818492  0  0  -0.156624  0  4.069079  0  0  -0.164607  0  4.091722  0  0  -0.113983  -0.151467  0  4.053649  0
C  C45  1  0.08631376  0.96505822  0.29045322  1  0  -0.143634  0  3.818542  0  0  -0.15668  0  4.069123  0  0  -0.164663  0  4.091764  0  0  -0.114009  -0.151522  0  4.053685  0
C  C46  1  0.58631859  0.46505254  0.20953851  1  0  -0.143616  0  3.818641  0  0  -0.156681  0  4.069256  0  0  -0.164665  0  4.091901  0  0  -0.114053  -0.151535  0  4.053837  0
C  C47  1  0.91367921  0.03493885  0.70954854  1  0  -0.143679  0  3.818249  0  0  -0.15672  0  4.068835  0  0  -0.164704  0  4.091478  0  0  -0.114009  -0.151562  0  4.053405  0
C  C48  1  0.55827508  0.54807831  0.84291462  1  0  -0.068046  0  3.824546  0  0  -0.087184  0  4.070005  0  0  -0.082096  0  4.088465  0  0  -0.084156  -0.090154  0  4.057272  0
C  C49  1  0.94172216  0.95192443  0.34291921  1  0  -0.068014  0  3.824695  0  0  -0.087116  0  4.070116  0  0  -0.082026  0  4.088574  0  0  -0.084151  -0.090086  0  4.057382  0
C  C50  1  0.44173523  0.45192637  0.15708186  1  0  -0.068001  0  3.824513  0  0  -0.087198  0  4.0699  0  0  -0.082117  0  4.088367  0  0  -0.08417  -0.090171  0  4.057177  0
C  C51  1  0.05827406  0.04807111  0.65708211  1  0  -0.068039  0  3.824483  0  0  -0.087138  0  4.069919  0  0  -0.082046  0  4.088371  0  0  -0.084154  -0.090114  0  4.057193  0
C  C52  1  0.70850296  0.68595797  0.94216102  1  0  0.701216  0  3.887748  0  0  0.652467  0  4.177324  0  0  0.68912  0  4.166272  0  0  0.222692  0.627565  0  4.184103  0
C  C53  1  0.79150012  0.81404282  0.44216343  1  0  0.701271  0  3.88783  0  0  0.65249  0  4.177412  0  0  0.689145  0  4.166354  0  0  0.222708  0.627588  0  4.184192  0
C  C54  1  0.29150651  0.31404061  0.05783546  1  0  0.701254  0  3.887685  0  0  0.652438  0  4.177232  0  0  0.689091  0  4.166185  0  0  0.222721  0.62755  0  4.183992  0
C  C55  1  0.20849751  0.18595577  0.55783877  1  0  0.701308  0  3.887763  0  0  0.652584  0  4.1773  0  0  0.689238  0  4.166236  0  0  0.222727  0.627687  0  4.184075  0
O  O56  1  0.83466067  0.55570217  0.94873449  1  0  -0.767891  0  1.993486  0  0  -0.702626  0  2.244471  0  0  -0.729362  0  2.232495  0  0  -0.419879  -0.683764  0  2.252193  0
O  O57  1  0.66535245  0.94430286  0.44873697  1  0  -0.767942  0  1.993519  0  0  -0.702665  0  2.244521  0  0  -0.7294  0  2.232536  0  0  -0.419887  -0.683816  0  2.25225  0
O  O58  1  0.16534556  0.44429794  0.05126244  1  0  -0.76791  0  1.99343  0  0  -0.702645  0  2.244444  0  0  -0.729385  0  2.232467  0  0  -0.419893  -0.68376  0  2.252098  0
O  O59  1  0.33464842  0.05569421  0.55126523  1  0  -0.767966  0  1.993453  0  0  -0.702696  0  2.244427  0  0  -0.72943  0  2.232447  0  0  -0.41988  -0.683857  0  2.25217  0
O  O60  1  0.72381005  0.81669495  0.98353572  1  0  -0.800006  0  2.033989  0  0  -0.728344  0  2.280203  0  0  -0.754515  0  2.268655  0  0  -0.41974  -0.709874  0  2.28766  0
O  O61  1  0.77618731  0.68330377  0.48353522  1  0  -0.800047  0  2.034176  0  0  -0.728383  0  2.280434  0  0  -0.754534  0  2.268846  0  0  -0.41975  -0.709916  0  2.287884  0
O  O62  1  0.27619675  0.18330212  0.01646209  1  0  -0.800023  0  2.03399  0  0  -0.728426  0  2.280344  0  0  -0.754571  0  2.268737  0  0  -0.419766  -0.709962  0  2.287792  0
O  O63  1  0.22380835  0.31669483  0.51646654  1  0  -0.800052  0  2.034144  0  0  -0.728393  0  2.280365  0  0  -0.754587  0  2.268878  0  0  -0.419761  -0.709937  0  2.28782  0
O  O64  1  0.37430205  0.95632682  0.91793288  1  0  -0.764829  0  2.064116  0  0  -0.6878  0  2.294371  0  0  -0.71575  0  2.289009  0  0  -0.413125  -0.667673  0  2.297266  0
O  O65  1  0.12569545  0.54367561  0.41793284  1  0  -0.764836  0  2.064087  0  0  -0.687794  0  2.294335  0  0  -0.715741  0  2.288973  0  0  -0.41311  -0.667677  0  2.297234  0
O  O66  1  0.62569812  0.04366873  0.08206713  1  0  -0.764765  0  2.063962  0  0  -0.687764  0  2.294227  0  0  -0.715713  0  2.288868  0  0  -0.413128  -0.66765  0  2.297151  0
O  O67  1  0.87431021  0.45632755  0.58206980  1  0  -0.764838  0  2.064133  0  0  -0.687842  0  2.294372  0  0  -0.715785  0  2.289002  0  0  -0.41313  -0.667742  0  2.297299  0
O  O68  1  0.05992877  0.17326762  0.88487930  1  0  -0.877303  0  1.8157  0  0  -0.82607  0  1.992762  0  0  -0.844822  0  1.96321  0  0  -0.640944  -0.812673  0  2.013485  0
O  O69  1  0.44006609  0.32672754  0.38488053  1  0  -0.877326  0  1.815706  0  0  -0.826087  0  1.992756  0  0  -0.844839  0  1.963209  0  0  -0.640967  -0.812697  0  2.013476  0
O  O70  1  0.94007351  0.82673250  0.11511939  1  0  -0.877338  0  1.815686  0  0  -0.826105  0  1.992763  0  0  -0.844851  0  1.963201  0  0  -0.640966  -0.812709  0  2.013488  0
O  O71  1  0.55993154  0.67327105  0.61512123  1  0  -0.877325  0  1.815677  0  0  -0.826096  0  1.992744  0  0  -0.844848  0  1.963194  0  0  -0.640975  -0.812695  0  2.01347  0
