# generated using pymatgen
data_Zn2H24C46SN4O15
_symmetry_space_group_name_H-M   'P 1'
_cell_length_a   9.72192202
_cell_length_b   11.15277795
_cell_length_c   28.04897311
_cell_angle_alpha   90.71329752
_cell_angle_beta   90.57823830
_cell_angle_gamma   89.45115874
_symmetry_Int_Tables_number   1
_chemical_formula_structural   Zn2H24C46SN4O15
_chemical_formula_sum   'Zn2 H24 C46 S1 N4 O15'
_cell_volume   3040.72377841
_cell_formula_units_Z   1
loop_
 _symmetry_equiv_pos_site_id
 _symmetry_equiv_pos_as_xyz
  1  'x, y, z'
loop_
 _atom_site_type_symbol
 _atom_site_label
 _atom_site_symmetry_multiplicity
 _atom_site_fract_x
 _atom_site_fract_y
 _atom_site_fract_z
 _atom_site_occupancy
 _atom_site_pbe_bader_charge
 _atom_site_pbe_bader_spin_density
 _atom_site_pbe_cm5_charge
 _atom_site_pbe_ddec_charge
 _atom_site_pbe_ddec_spin_density
 _atom_site_pbe_ddec_sum_bond_order
 _atom_site_pbe_magmom
Zn  Zn0  1  0.63707411  0.50181269  0.50177746  1  1.287921  0  0.662475  0.84473  0  2.451672  0
Zn  Zn1  1  0.35412763  0.51739669  0.50021857  1  1.281208  0  0.667008  0.848704  0  2.442979  0
H  H2  1  0.71630385  0.51624638  0.35147648  1  0.101005  0  0.105724  0.108642  0  0.998341  0
H  H3  1  0.27979938  0.50268433  0.25761022  1  0.065457  0  0.109725  0.116105  0  0.97952  0
H  H4  1  0.50796285  0.20045641  0.12341134  1  0.119066  0  0.116667  0.12258  0  0.978683  0
H  H5  1  0.48250636  0.19271345  0.96594253  1  0.058746  0  0.104793  0.10217  0  1.011442  0
H  H6  1  0.26036529  0.48556660  0.65457227  1  0.096827  0  0.105249  0.106329  0  0.997729  0
H  H7  1  0.47779622  0.19388120  0.87765206  1  0.120714  0  0.117113  0.123077  0  0.97894  0
H  H8  1  0.27152603  0.48312938  0.74408112  1  0.079815  0  0.108775  0.114543  0  0.980309  0
H  H9  1  0.50537573  0.19405854  0.03515378  1  0.065981  0  0.104636  0.102672  0  1.008989  0
H  H10  1  0.56707910  0.09261790  0.47974113  1  0.09295  0  0.121749  0.141895  0  0.96748  0
H  H11  1  0.30872410  0.89439901  0.52388345  1  0.097459  0  0.109594  0.10993  0  0.997961  0
H  H12  1  0.72171579  0.51101272  0.26198395  1  0.098015  0  0.109478  0.115783  0  0.978922  0
H  H13  1  0.62391440  0.91403848  0.52054674  1  0.120513  0  0.108859  0.125173  0  0.987693  0
H  H14  1  0.88364018  0.33036281  0.52947069  1  0.168139  0  0.149829  0.126297  0  0.929397  0
H  H15  1  0.89322203  0.58286981  0.50217030  1  0.432701  0  0.316932  0.283266  0  0.914338  0
H  H16  1  0.13462891  0.39058218  0.55443814  1  0.177874  0  0.144415  0.121263  0  0.962098  0
H  H17  1  0.08907044  0.53263462  0.46845688  1  0.434568  0  0.319334  0.285538  0  0.90952  0
H  H18  1  0.50167116  0.80231866  0.12325095  1  0.103509  0  0.116749  0.122788  0  0.978711  0
H  H19  1  0.70063105  0.49811005  0.64944239  1  0.103777  0  0.104615  0.107319  0  1.00098  0
H  H20  1  0.71289442  0.49753185  0.73897382  1  0.070769  0  0.109016  0.11473  0  0.98079  0
H  H21  1  0.53058735  0.79340613  0.87776837  1  0.12608  0  0.116862  0.123178  0  0.978707  0
H  H22  1  0.52947939  0.79993103  0.96604772  1  0.073735  0  0.104552  0.10199  0  1.010385  0
H  H23  1  0.50503898  0.80299678  0.03498595  1  0.05099  0  0.104562  0.102353  0  1.010423  0
H  H24  1  0.27531177  0.50868833  0.34708630  1  0.095026  0  0.105081  0.106903  0  0.999049  0
H  H25  1  0.16043359  0.98867912  0.58954731  1  0.635216  0  0.355348  0.40319  0  0.835249  0
C  C26  1  0.51619454  0.74283775  0.51047962  1  1.539488  0  0.20827  0.639216  0  4.179715  0
C  C27  1  0.62436707  0.51037879  0.28091415  1  -0.016551  0  -0.081036  -0.149547  0  3.972145  0
C  C28  1  0.50098732  0.50646714  0.25521018  1  0.318624  0  0.092746  0.204333  0  4.014595  0
C  C29  1  0.50540172  0.50070995  0.10257646  1  0.005707  0  0.003772  0.037156  0  3.999435  0
C  C30  1  0.50426054  0.61145997  0.12783985  1  0.013127  0  -0.011179  -0.071106  0  4.001316  0
C  C31  1  0.50368142  0.71832112  0.10294786  1  -0.064457  0  -0.068273  -0.06811  0  3.976129  0
C  C32  1  0.50595778  0.39165171  0.12794637  1  0.019573  0  -0.011297  -0.071621  0  3.996912  0
C  C33  1  0.49555271  0.51295119  0.35444874  1  0.019921  0  -0.014541  -0.03068  0  3.951365  0
C  C34  1  0.47999153  0.49250344  0.64700224  1  -0.023651  0  -0.011176  -0.020853  0  3.939035  0
C  C35  1  0.51169405  0.60838752  0.97447290  1  -0.007808  0  0.004533  0.040518  0  3.975737  0
C  C36  1  0.49894205  0.38488734  0.97445473  1  -0.028855  0  0.004042  0.037416  0  3.97788  0
C  C37  1  0.49216502  0.51518234  0.40790566  1  1.515481  0  0.21708  0.596769  0  4.163061  0
C  C38  1  0.50484078  0.49587893  0.94958893  1  -0.007488  0  0.004465  0.001861  0  3.915392  0
C  C39  1  0.52172339  0.71337937  0.94789643  1  -0.062503  0  -0.082778  -0.122538  0  3.975885  0
C  C40  1  0.52264524  0.71113587  0.89811173  1  0.066616  0  -0.068713  -0.069118  0  3.976666  0
C  C41  1  0.51275716  0.60309088  0.87325151  1  -0.110547  0  -0.010408  -0.069722  0  4.002676  0
C  C42  1  0.50380434  0.49434285  0.89853978  1  -0.105232  0  0.004215  0.035928  0  4.002671  0
C  C43  1  0.49387716  0.38404750  0.87320682  1  -0.106572  0  -0.010123  -0.069689  0  3.999786  0
C  C44  1  0.49034686  0.38021292  0.82042517  1  1.381538  0  0.239342  0.435435  0  4.115861  0
C  C45  1  0.51151606  0.60393409  0.82049372  1  1.377292  0  0.240092  0.437371  0  4.112842  0
C  C46  1  0.61426974  0.49439894  0.72019279  1  -0.043023  0  -0.082352  -0.149997  0  3.976563  0
C  C47  1  0.60756766  0.49500175  0.67063450  1  0.023145  0  -0.078516  -0.074723  0  3.965139  0
C  C48  1  0.50179721  0.27317510  0.50034996  1  1.590163  0  0.210972  0.633975  0  4.206126  0
C  C49  1  0.35878097  0.48814870  0.67343698  1  -0.066304  0  -0.074964  -0.064875  0  3.959066  0
C  C50  1  0.36495117  0.48684487  0.72301499  1  0.0323  0  -0.082019  -0.151877  0  3.970174  0
C  C51  1  0.49266648  0.49064088  0.74599928  1  0.29219  0  0.09209  0.203687  0  4.015485  0
C  C52  1  0.50775526  0.61015738  0.02661967  1  0.012219  0  0.004312  0.040641  0  3.976249  0
C  C53  1  0.50559689  0.49906250  0.05152120  1  0.007703  0  0.004242  -0.001196  0  3.914993  0
C  C54  1  0.50343453  0.38637294  0.02663831  1  0.061336  0  0.004611  0.042664  0  3.973615  0
C  C55  1  0.50572749  0.71731656  0.05317408  1  0.022009  0  -0.083361  -0.123542  0  3.978033  0
C  C56  1  0.50668344  0.28318005  0.10308267  1  -0.082781  0  -0.068683  -0.067084  0  3.974221  0
C  C57  1  0.48897975  0.27820203  0.94782467  1  -0.040703  0  -0.082969  -0.122016  0  3.978487  0
C  C58  1  0.48610151  0.27743771  0.89803352  1  0.065669  0  -0.068497  -0.068385  0  3.976124  0
C  C59  1  0.47431726  0.49664274  0.59372897  1  1.587354  0  0.217604  0.600557  0  4.16052  0
C  C60  1  0.50504578  0.28096551  0.05328393  1  -0.007585  0  -0.082884  -0.124703  0  3.975392  0
C  C61  1  0.40547177  0.07188319  0.52694950  1  -0.229466  0  -0.004001  -0.048065  0  3.942428  0
C  C62  1  0.49268501  0.14021610  0.50216236  1  0.09726  0  -0.061671  -0.184677  0  3.813654  0
C  C63  1  0.40680847  0.94142880  0.52343350  1  -0.008924  0  -0.077042  -0.052456  0  4.020609  0
C  C64  1  0.52174312  0.87457706  0.51842712  1  -0.02892  0  -0.087455  -0.211682  0  3.875069  0
C  C65  1  0.92770127  0.41750858  0.52092775  1  0.687898  0  0.133254  0.184263  0  3.817765  0
C  C66  1  0.07818421  0.43438820  0.52537875  1  0.714043  0  0.128712  0.190076  0  3.82164  0
C  C67  1  0.50238158  0.61567534  0.18058548  1  1.321279  0  0.239149  0.435546  0  4.114972  0
C  C68  1  0.50572849  0.39100147  0.18073644  1  1.30944  0  0.239695  0.435773  0  4.115082  0
C  C69  1  0.37491700  0.50578151  0.27846519  1  0.014808  0  -0.082302  -0.151482  0  3.971335  0
C  C70  1  0.37243823  0.50918390  0.32807629  1  -0.013364  0  -0.076569  -0.07114  0  3.965604  0
C  C71  1  0.62143368  0.51344393  0.33053626  1  -0.017006  0  -0.077109  -0.072482  0  3.965347  0
S  S72  1  0.27533420  0.13780733  0.56470551  1  3.023567  0  0.544332  1.157881  0  5.941909  0
N  N73  1  0.50354522  0.50413921  0.20368483  1  -1.217212  0  -0.231016  -0.22727  0  3.594134  0
N  N74  1  0.49858462  0.49153372  0.79746987  1  -1.194617  0  -0.231679  -0.227962  0  3.597655  0
N  N75  1  0.84647122  0.50205976  0.50793001  1  -1.174949  0  -0.433503  -0.379078  0  3.270748  0
N  N76  1  0.14550268  0.49877155  0.49647797  1  -1.194887  0  -0.437411  -0.384562  0  3.255051  0
O  O77  1  0.63166056  0.68759789  0.50918847  1  -1.158045  0  -0.32991  -0.561229  0  2.247336  0
O  O78  1  0.52030295  0.69649932  0.79738680  1  -1.099021  0  -0.281136  -0.4381  0  2.057605  0
O  O79  1  0.50708614  0.29818823  0.20395967  1  -1.103705  0  -0.282034  -0.437962  0  2.058496  0
O  O80  1  0.48070238  0.28629019  0.79726472  1  -1.095536  0  -0.279298  -0.434715  0  2.058128  0
O  O81  1  0.39786382  0.69556508  0.50537165  1  -1.159877  0  -0.32426  -0.557255  0  2.299692  0
O  O82  1  0.60759562  0.51298642  0.42998505  1  -1.165729  0  -0.32101  -0.554045  0  2.319608  0
O  O83  1  0.37451573  0.51830654  0.42751416  1  -1.165911  0  -0.321994  -0.551835  0  2.3066  0
O  O84  1  0.62306432  0.31443980  0.49769530  1  -1.150065  0  -0.318435  -0.54569  0  2.238709  0
O  O85  1  0.38981293  0.33231110  0.49986897  1  -1.153665  0  -0.30671  -0.54798  0  2.337857  0
O  O86  1  0.58901092  0.48754697  0.57217635  1  -1.169755  0  -0.321041  -0.563576  0  2.346492  0
O  O87  1  0.35724196  0.51032997  0.57366218  1  -1.154329  0  -0.319384  -0.553877  0  2.321081  0
O  O88  1  0.49977836  0.71008756  0.20370270  1  -1.105474  0  -0.282008  -0.438064  0  2.05802  0
O  O89  1  0.33375149  0.22977795  0.59437766  1  -1.272792  0  -0.287639  -0.488717  0  2.155518  0
O  O90  1  0.14993059  0.15783709  0.53751349  1  -1.293976  0  -0.328759  -0.568894  0  2.108366  0
O  O91  1  0.24579795  0.02713737  0.60001216  1  -1.176528  0  -0.35953  -0.528038  0  2.125247  0
