# generated using pymatgen
data_Al4H16C47(SO16)2
_symmetry_space_group_name_H-M   'P 1'
_cell_length_a   6.67525263
_cell_length_b   20.60023596
_cell_length_c   22.77036541
_cell_angle_alpha   93.09967662
_cell_angle_beta   91.25442387
_cell_angle_gamma   90.17439506
_symmetry_Int_Tables_number   1
_chemical_formula_structural   Al4H16C47(SO16)2
_chemical_formula_sum   'Al4 H16 C47 S2 O32'
_cell_volume   3125.83509642
_cell_formula_units_Z   1
loop_
 _symmetry_equiv_pos_site_id
 _symmetry_equiv_pos_as_xyz
  1  'x, y, z'
loop_
 _atom_site_type_symbol
 _atom_site_label
 _atom_site_symmetry_multiplicity
 _atom_site_fract_x
 _atom_site_fract_y
 _atom_site_fract_z
 _atom_site_occupancy
 _atom_site_pbe_bader_charge
 _atom_site_pbe_bader_spin_density
 _atom_site_pbe_cm5_charge
 _atom_site_pbe_ddec_charge
 _atom_site_pbe_ddec_spin_density
 _atom_site_pbe_ddec_sum_bond_order
 _atom_site_pbe_magmom
Al  Al0  1  0.87083182  0.49051872  0.49075350  1  2.492596  0  0.406069  1.642757  0  2.582626  0
Al  Al1  1  0.37205926  0.49037790  0.49073554  1  2.502194  0  0.406258  1.640589  0  2.585464  0
Al  Al2  1  0.34699921  0.02121293  0.01764061  1  2.501692  0  0.404478  1.644724  0  2.581966  0
Al  Al3  1  0.84689980  0.02175352  0.01777816  1  2.501918  0  0.405206  1.645463  0  2.580866  0
H  H4  1  0.36627904  0.16990447  0.76712772  1  0.157352  0  0.128291  0.145318  0  0.968305  0
H  H5  1  0.28843760  0.71015851  0.28787684  1  0.082861  0  0.111297  0.112729  0  0.997519  0
H  H6  1  0.28618519  0.79801043  0.21627906  1  0.089568  0  0.109441  0.10946  0  1.001353  0
H  H7  1  0.93178430  0.79949906  0.21943531  1  0.082511  0  0.109417  0.109512  0  1.001512  0
H  H8  1  0.93384593  0.71169153  0.29105345  1  0.082475  0  0.111693  0.113226  0  0.99712  0
H  H9  1  0.35744228  0.67090005  0.74038460  1  0.130072  0  0.122145  0.137501  0  0.974179  0
H  H10  1  0.33773454  0.75492574  0.82323060  1  0.100941  0  0.115953  0.123912  0  0.982008  0
H  H11  1  0.12549178  0.88474677  0.83587215  1  0.624252  0  0.355817  0.397466  0  0.831076  0
H  H12  1  0.09459765  0.84590684  0.68325732  1  0.650829  0  0.342393  0.41001  0  0.850387  0
H  H13  1  0.51701443  0.23860189  0.59454554  1  0.634737  0  0.356237  0.396263  0  0.827596  0
H  H14  1  0.95855859  0.42735401  0.69833312  1  0.63752  0  0.33009  0.378284  0  0.894052  0
H  H15  1  0.72591507  0.30470910  0.91263566  1  0.618534  0  0.355331  0.393864  0  0.830509  0
H  H16  1  0.62244344  0.41142967  0.51364433  1  0.63311  0  0.35761  0.439505  0  0.842261  0
H  H17  1  0.12392115  0.57174483  0.51429023  1  0.638112  0  0.362364  0.446793  0  0.829969  0
H  H18  1  0.59599225  0.10281231  0.00120560  1  0.637514  0  0.361585  0.443026  0  0.835109  0
H  H19  1  0.09638097  0.94031652  0.03455316  1  0.630581  0  0.358738  0.439082  0  0.8417  0
C  C20  1  0.61740498  0.56637598  0.41435011  1  1.722628  0  0.280674  0.717656  0  4.161389  0
C  C21  1  0.62673093  0.57148892  0.57240833  1  1.684869  0  0.279946  0.717939  0  4.157249  0
C  C22  1  0.12614168  0.41476223  0.56947215  1  1.692537  0  0.276519  0.710904  0  4.171584  0
C  C23  1  0.11544306  0.41066381  0.40967617  1  1.697212  0  0.279338  0.699604  0  4.184299  0
C  C24  1  0.11158435  0.36347732  0.36060314  1  0.233731  0  0.004592  -0.131682  0  3.818971  0
C  C25  1  0.11056713  0.32222349  0.31967492  1  -0.278292  0  -0.005759  0.029365  0  4.251028  0
C  C26  1  0.11007596  0.27691061  0.27508422  1  -0.089443  0  0.003154  0.000457  0  4.183621  0
C  C27  1  0.11051668  0.23492360  0.23432825  1  -0.040143  0  0.001291  -0.002646  0  4.186874  0
C  C28  1  0.10990912  0.18963026  0.18975099  1  -0.149565  0  -0.006367  0.029269  0  4.25513  0
C  C29  1  0.10845201  0.14842293  0.14877766  1  0.116144  0  0.002033  -0.131834  0  3.824131  0
C  C30  1  0.25584413  0.24255955  0.71132961  1  0.044356  0  0.010419  -0.046642  0  3.871026  0
C  C31  1  0.10962670  0.29131301  0.70310285  1  0.117355  0  0.027144  0.118854  0  4.02222  0
C  C32  1  0.95378585  0.29900943  0.74463320  1  -0.102458  0  0.004345  -0.146534  0  3.863987  0
C  C33  1  0.94496540  0.26080819  0.79317321  1  0.023104  0  0.025087  -0.02668  0  3.852605  0
C  C34  1  0.09505252  0.21327221  0.80120633  1  0.121123  0  0.024212  0.122113  0  4.033978  0
C  C35  1  0.24822150  0.20520882  0.76035366  1  0.049354  0  -0.040809  -0.07833  0  3.844737  0
C  C36  1  0.12095027  0.33409553  0.65677924  1  -0.451963  0  -0.012035  -0.016917  0  4.083803  0
C  C37  1  0.09162145  0.17362798  0.84997297  1  -0.352734  0  -0.00643  -0.004482  0  4.052248  0
C  C38  1  0.09071457  0.13864233  0.89134694  1  0.139914  0  -0.022746  -0.174058  0  3.90822  0
C  C39  1  0.12686569  0.37326763  0.61861668  1  0.210185  0  -0.018457  -0.16294  0  3.878021  0
C  C40  1  0.42698528  0.77869327  0.23283691  1  -0.015535  0  -0.072251  -0.110193  0  3.945601  0
C  C41  1  0.60882190  0.80417763  0.21322066  1  0.115766  0  0.007075  0.127856  0  4.104309  0
C  C42  1  0.79194635  0.77951022  0.23458024  1  -0.050799  0  -0.072027  -0.109616  0  3.946564  0
C  C43  1  0.79310627  0.73081264  0.27425059  1  -0.067261  0  -0.071285  -0.11137  0  3.939843  0
C  C44  1  0.61127727  0.70520720  0.29379644  1  0.160389  0  0.011988  0.138539  0  4.091333  0
C  C45  1  0.42818906  0.72995189  0.27247376  1  -0.055807  0  -0.070869  -0.110677  0  3.937913  0
C  C46  1  0.60723195  0.85353874  0.17244701  1  -0.364796  0  -0.01624  -0.022647  0  4.084578  0
C  C47  1  0.61277274  0.65583256  0.33459830  1  -0.428262  0  -0.017755  -0.03447  0  4.078786  0
C  C48  1  0.61448139  0.61376704  0.37016808  1  0.147649  0  -0.026861  -0.175138  0  3.935794  0
C  C49  1  0.60508981  0.89582633  0.13704798  1  0.091247  0  -0.037881  -0.199809  0  3.9576  0
C  C50  1  0.46547271  0.75340598  0.79423621  1  0.015525  0  -0.066331  -0.097555  0  3.933157  0
C  C51  1  0.61719409  0.80058637  0.80327021  1  0.103007  0  0.012587  0.117796  0  4.063325  0
C  C52  1  0.78374761  0.80029264  0.76527302  1  -0.002189  0  0.00403  -0.070769  0  3.895596  0
C  C53  1  0.79148759  0.75393668  0.71822176  1  -0.096424  0  0.002103  -0.146943  0  3.864402  0
C  C54  1  0.63697128  0.70651395  0.70939632  1  0.127207  0  0.021992  0.135914  0  4.06117  0
C  C55  1  0.47630024  0.70675789  0.74843913  1  0.013531  0  -0.058443  -0.079769  0  3.898111  0
C  C56  1  0.60048860  0.84947415  0.84891784  1  -0.490221  0  -0.026048  -0.042902  0  4.106482  0
C  C57  1  0.63742958  0.65928980  0.66207266  1  -0.424904  0  -0.013941  -0.023936  0  4.067756  0
C  C58  1  0.63058350  0.61803042  0.62181841  1  0.212384  0  -0.012893  -0.141624  0  3.880544  0
C  C59  1  0.58962407  0.89216358  0.88782264  1  0.218963  0  -0.03013  -0.175115  0  3.930292  0
C  C60  1  0.59079139  0.94030472  0.93623158  1  1.699461  0  0.272068  0.709434  0  4.179566  0
C  C61  1  0.60168660  0.94361757  0.09345924  1  1.678654  0  0.277887  0.723938  0  4.153204  0
C  C62  1  0.10380635  0.10181394  0.09927577  1  1.695395  0  0.274081  0.695986  0  4.190488  0
C  C63  1  0.09284488  0.09636754  0.93955706  1  1.675747  0  0.280776  0.719813  0  4.156889  0
C  C64  1  0.93529462  0.85394234  0.77720783  1  1.534753  0  0.240548  0.588525  0  4.147506  0
C  C65  1  0.42638508  0.22798927  0.67101487  1  1.535108  0  0.234657  0.579423  0  4.129506  0
C  C66  1  0.78265880  0.26466716  0.83849507  1  1.608445  0  0.23711  0.584948  0  4.162676  0
S  S67  1  0.98461350  0.74875564  0.66398544  1  3.104137  0  0.54273  1.152986  0  6.033384  0
S  S68  1  0.76200821  0.35847672  0.73278560  1  3.111393  0  0.544633  1.156011  0  5.997497  0
O  O69  1  0.45398091  0.55248289  0.55359811  1  -1.235081  0  -0.22776  -0.59018  0  2.285561  0
O  O70  1  0.78901433  0.54711634  0.43137442  1  -1.227518  0  -0.223469  -0.574962  0  2.284078  0
O  O71  1  0.94680846  0.42790693  0.43007235  1  -1.223325  0  -0.219573  -0.565577  0  2.288777  0
O  O72  1  0.79605138  0.55447206  0.55201020  1  -1.227391  0  -0.227103  -0.587701  0  2.280032  0
O  O73  1  0.95353179  0.43190040  0.55123575  1  -1.225119  0  -0.227543  -0.585832  0  2.286638  0
O  O74  1  0.44844212  0.54891607  0.43309349  1  -1.236639  0  -0.223061  -0.57522  0  2.287517  0
O  O75  1  0.62131144  0.45087408  0.49220142  1  -1.432386  0  -0.446046  -0.99353  0  2.18597  0
O  O76  1  0.29555551  0.42924461  0.54924931  1  -1.226096  0  -0.223941  -0.575214  0  2.276901  0
O  O77  1  0.28776484  0.42970563  0.42842238  1  -1.220072  0  -0.218793  -0.564194  0  2.288896  0
O  O78  1  0.12206801  0.52905606  0.49401560  1  -1.43428  0  -0.445383  -0.997513  0  2.18495  0
O  O79  1  0.77068456  0.96190402  0.07504656  1  -1.242021  0  -0.227411  -0.58752  0  2.285073  0
O  O80  1  0.42073586  0.95734913  0.95595351  1  -1.231824  0  -0.232306  -0.586383  0  2.284729  0
O  O81  1  0.26439576  0.07827125  0.95784577  1  -1.239591  0  -0.224839  -0.582054  0  2.28489  0
O  O82  1  0.42981391  0.96275384  0.07618013  1  -1.239942  0  -0.227477  -0.586583  0  2.281055  0
O  O83  1  0.27279603  0.08458003  0.07890818  1  -1.225747  0  -0.225735  -0.576353  0  2.287602  0
O  O84  1  0.76317151  0.95965754  0.95470473  1  -1.230885  0  -0.226682  -0.574346  0  2.279752  0
O  O85  1  0.59703725  0.06030345  0.01753150  1  -1.435552  0  -0.444976  -0.994986  0  2.192102  0
O  O86  1  0.93060897  0.08348273  0.08040456  1  -1.224068  0  -0.225053  -0.575067  0  2.285639  0
O  O87  1  0.92381421  0.08097165  0.95981032  1  -1.233839  0  -0.225495  -0.583502  0  2.282114  0
O  O88  1  0.09621941  0.98234262  0.01731437  1  -1.429947  0  -0.446841  -0.997616  0  2.198802  0
O  O89  1  0.95757385  0.89970676  0.74579105  1  -1.121157  0  -0.285638  -0.488559  0  2.068866  0
O  O90  1  0.03848050  0.84655271  0.82786543  1  -1.098972  0  -0.310331  -0.460239  0  2.250274  0
O  O91  1  0.08426856  0.68759446  0.66839474  1  -1.283278  0  -0.292387  -0.505227  0  2.149815  0
O  O92  1  0.89622641  0.76807223  0.60962171  1  -1.273905  0  -0.305034  -0.511815  0  2.090335  0
O  O93  1  0.14800771  0.80160865  0.68714731  1  -1.219906  0  -0.350572  -0.530009  0  2.207575  0
O  O94  1  0.57916840  0.20067582  0.68659781  1  -1.124297  0  -0.286896  -0.482979  0  2.086011  0
O  O95  1  0.39179617  0.24613295  0.61549806  1  -1.11744  0  -0.322287  -0.464886  0  2.253125  0
O  O96  1  0.67832084  0.34685594  0.67444696  1  -1.289026  0  -0.30171  -0.533662  0  2.191051  0
O  O97  1  0.63617097  0.36270357  0.78301033  1  -1.293213  0  -0.296337  -0.49924  0  2.152505  0
O  O98  1  0.88670303  0.42527482  0.73564995  1  -1.202263  0  -0.353165  -0.506284  0  2.142983  0
O  O99  1  0.63311319  0.23073969  0.83587026  1  -1.118898  0  -0.266546  -0.46268  0  2.119055  0
O  O100  1  0.83537088  0.30576552  0.88462658  1  -1.106172  0  -0.327486  -0.471621  0  2.207074  0
