# generated using pymatgen
data_AlH3C27(OF2)6
_symmetry_space_group_name_H-M   'P 1'
_cell_length_a   4.05902608
_cell_length_b   16.08650022
_cell_length_c   16.09116237
_cell_angle_alpha   119.84116884
_cell_angle_beta   88.78367243
_cell_angle_gamma   88.79855740
_symmetry_Int_Tables_number   1
_chemical_formula_structural   AlH3C27(OF2)6
_chemical_formula_sum   'Al1 H3 C27 O6 F12'
_cell_volume   910.56135015
_cell_formula_units_Z   1
loop_
 _symmetry_equiv_pos_site_id
 _symmetry_equiv_pos_as_xyz
  1  'x, y, z'
loop_
 _atom_site_type_symbol
 _atom_site_label
 _atom_site_symmetry_multiplicity
 _atom_site_fract_x
 _atom_site_fract_y
 _atom_site_fract_z
 _atom_site_occupancy
 _atom_site_pbe_bader_charge
 _atom_site_pbe_bader_spin_density
 _atom_site_pbe_cm5_charge
 _atom_site_pbe_ddec_charge
 _atom_site_pbe_ddec_spin_density
 _atom_site_pbe_ddec_sum_bond_order
 _atom_site_pbe_magmom
Al  Al0  1  0.00018285  0.49994734  0.50006565  1  2.510804  0  0.439217  1.60939  0  2.560676  0
H  H1  1  0.49987280  0.92276798  0.07710796  1  0.115221  0  0.103082  0.117611  0  1.023398  0
H  H2  1  0.42571078  0.65782295  0.07969634  1  0.094183  0  0.103739  0.11782  0  1.013014  0
H  H3  1  0.57384727  0.92012286  0.34193045  1  0.096618  0  0.103739  0.117738  0  1.012997  0
C  C4  1  0.48397966  0.57228987  0.64671617  1  1.727665  0  0.290491  0.713056  0  4.0365  0
C  C5  1  0.50011634  0.57304275  0.42697923  1  1.579358  0  0.283717  0.704408  0  4.03392  0
C  C6  1  0.51635166  0.35325962  0.42761715  1  1.726821  0  0.290994  0.713288  0  4.036405  0
C  C7  1  0.47547209  0.78380495  0.06596207  1  -0.031945  0  -0.008357  0.107235  0  3.997957  0
C  C8  1  0.49983246  0.88377919  0.11606228  1  0.1577  0  -0.079813  -0.159721  0  3.888159  0
C  C9  1  0.52422324  0.93390026  0.21600847  1  -0.02907  0  -0.008682  0.106274  0  3.997754  0
C  C10  1  0.53565069  0.88260457  0.26534502  1  -0.072371  0  -0.080738  -0.159641  0  3.900069  0
C  C11  1  0.49972202  0.78318402  0.21660624  1  0.07023  0  -0.01172  0.09963  0  4.013231  0
C  C12  1  0.46388244  0.73444627  0.11722762  1  -0.071194  0  -0.081223  -0.160837  0  3.899996  0
C  C13  1  0.68314695  0.19283335  0.28391732  1  0.401431  0  0.091863  0.15892  0  4.109048  0
C  C14  1  0.68909753  0.09294887  0.23387741  1  0.612997  0  0.088802  0.126387  0  4.075192  0
C  C15  1  0.52968035  0.03984356  0.26956043  1  0.112341  0  -0.018696  -0.115527  0  4.050282  0
C  C16  1  0.36538846  0.09422298  0.35950770  1  0.511777  0  0.088887  0.125221  0  4.071965  0
C  C17  1  0.36485669  0.19401752  0.41058241  1  0.575941  0  0.092706  0.160709  0  4.107541  0
C  C18  1  0.52323311  0.24516386  0.37354368  1  0.063397  0  -0.022394  -0.221101  0  4.014543  0
C  C19  1  0.31095888  0.76597574  0.90698007  1  0.616785  0  0.089265  0.126642  0  4.075327  0
C  C20  1  0.31704021  0.71596881  0.80711989  1  0.399568  0  0.091748  0.158781  0  4.108124  0
C  C21  1  0.47692367  0.62631594  0.75478991  1  0.064785  0  -0.022473  -0.221237  0  4.013832  0
C  C22  1  0.63520301  0.58926136  0.80592413  1  0.563571  0  0.092282  0.159695  0  4.108367  0
C  C23  1  0.63456767  0.64030856  0.90568300  1  0.520281  0  0.089313  0.125972  0  4.072083  0
C  C24  1  0.47028549  0.73027071  0.96005911  1  0.108593  0  -0.018819  -0.115818  0  4.051284  0
C  C25  1  0.66475477  0.64073473  0.23414076  1  0.488571  0  0.088478  0.118547  0  4.078242  0
C  C26  1  0.66691331  0.59049802  0.28393539  1  0.546794  0  0.099153  0.173346  0  4.082601  0
C  C27  1  0.50013002  0.62662461  0.37338024  1  0.19523  0  -0.024589  -0.231692  0  3.976241  0
C  C28  1  0.33306231  0.71602903  0.40940906  1  0.547855  0  0.098718  0.172553  0  4.083338  0
C  C29  1  0.33485764  0.76575741  0.35910031  1  0.485749  0  0.088195  0.118626  0  4.078228  0
C  C30  1  0.49972613  0.73014024  0.26967683  1  0.152703  0  -0.011442  -0.0973  0  4.046747  0
O  O31  1  0.27836483  0.39446416  0.41091792  1  -1.242452  0  -0.223172  -0.579919  0  2.353598  0
O  O32  1  0.25363517  0.51537721  0.60661303  1  -1.239336  0  -0.222497  -0.577768  0  2.347108  0
O  O33  1  0.25828797  0.58939072  0.48536492  1  -1.242705  0  -0.232234  -0.596449  0  2.382075  0
O  O34  1  0.74670191  0.39333453  0.48451693  1  -1.240511  0  -0.222616  -0.577737  0  2.347298  0
O  O35  1  0.74216860  0.51477047  0.41072050  1  -1.242101  0  -0.232516  -0.596971  0  2.383087  0
O  O36  1  0.72202895  0.58903805  0.60556519  1  -1.242879  0  -0.222789  -0.57963  0  2.353728  0
F  F37  1  0.20322357  0.24138588  0.49682133  1  -0.61062  0  -0.081652  -0.091663  0  1.359048  0
F  F38  1  0.83858014  0.23933142  0.24477687  1  -0.610686  0  -0.082106  -0.092618  0  1.356666  0
F  F39  1  0.18998048  0.05045894  0.39860983  1  -0.624889  0  -0.08178  -0.101352  0  1.398089  0
F  F40  1  0.86208284  0.04755673  0.14894419  1  -0.619758  0  -0.08026  -0.098781  0  1.395763  0
F  F41  1  0.16156819  0.75513310  0.76065599  1  -0.61007  0  -0.082017  -0.092423  0  1.356444  0
F  F42  1  0.13789463  0.85092767  0.95235449  1  -0.619266  0  -0.080501  -0.098937  0  1.39567  0
F  F43  1  0.79678690  0.50299055  0.75853841  1  -0.611367  0  -0.081735  -0.091559  0  1.359491  0
F  F44  1  0.80986014  0.60118481  0.94941080  1  -0.624458  0  -0.081905  -0.101348  0  1.398619  0
F  F45  1  0.83876368  0.60118155  0.14948950  1  -0.622114  0  -0.081204  -0.099184  0  1.399033  0
F  F46  1  0.83244014  0.50515088  0.24225023  1  -0.608798  0  -0.077947  -0.086957  0  1.383464  0
F  F47  1  0.16074365  0.85040003  0.39854944  1  -0.622799  0  -0.080792  -0.098875  0  1.399064  0
F  F48  1  0.16774186  0.75781724  0.49478373  1  -0.607585  0  -0.077722  -0.086802  0  1.383651  0
