# generated using pymatgen
data_AgH8C9(NO)2
_symmetry_space_group_name_H-M   'P 1'
_cell_length_a   5.77108041
_cell_length_b   8.05772689
_cell_length_c   18.48392735
_cell_angle_alpha   90.48371089
_cell_angle_beta   89.99957405
_cell_angle_gamma   89.99993705
_symmetry_Int_Tables_number   1
_chemical_formula_structural   AgH8C9(NO)2
_chemical_formula_sum   'Ag4 H32 C36 N8 O8'
_cell_volume   859.50507296
_cell_formula_units_Z   4
loop_
 _symmetry_equiv_pos_site_id
 _symmetry_equiv_pos_as_xyz
  1  'x, y, z'
loop_
 _atom_site_type_symbol
 _atom_site_label
 _atom_site_symmetry_multiplicity
 _atom_site_fract_x
 _atom_site_fract_y
 _atom_site_fract_z
 _atom_site_occupancy
 _atom_site_hle17_bader_spin_density
 _atom_site_hle17_ddec_charge
 _atom_site_hle17_ddec_spin_density
 _atom_site_hle17_ddec_sum_bond_order
 _atom_site_hle17_magmom
 _atom_site_hse06_10hf_bader_spin_density
 _atom_site_hse06_10hf_ddec_charge
 _atom_site_hse06_10hf_ddec_spin_density
 _atom_site_hse06_10hf_ddec_sum_bond_order
 _atom_site_hse06_10hf_magmom
 _atom_site_hse06_bader_spin_density
 _atom_site_hse06_ddec_charge
 _atom_site_hse06_ddec_spin_density
 _atom_site_hse06_ddec_sum_bond_order
 _atom_site_hse06_magmom
 _atom_site_pbe_bader_spin_density
 _atom_site_pbe_cm5_charge
 _atom_site_pbe_ddec_charge
 _atom_site_pbe_ddec_spin_density
 _atom_site_pbe_ddec_sum_bond_order
 _atom_site_pbe_magmom
Ag  Ag0  1  0.71499366  0.03491098  0.93187431  1  0  0.551356  0  1.417398  0  0  0.414391  0  1.852639  0  0  0.446392  0  1.808188  0  0  0.459393  0.392716  0  1.8825  0
Ag  Ag1  1  0.78502136  0.53490972  0.43188073  1  0  0.551366  0  1.41734  0  0  0.414415  0  1.852632  0  0  0.44642  0  1.808186  0  0  0.459425  0.392737  0  1.882485  0
Ag  Ag2  1  0.28505536  0.96511169  0.06812691  1  0  0.55131  0  1.417516  0  0  0.414429  0  1.852684  0  0  0.446432  0  1.808235  0  0  0.45938  0.39275  0  1.882541  0
Ag  Ag3  1  0.21497740  0.46509052  0.56812297  1  0  0.55139  0  1.41743  0  0  0.414444  0  1.85272  0  0  0.44644  0  1.808284  0  0  0.459428  0.392772  0  1.882571  0
H  H4  1  0.66394583  0.14658539  0.80650116  1  0  0.313671  0  0.935536  0  0  0.293245  0  1.011519  0  0  0.301517  0  1.003381  0  0  0.287335  0.287457  0  1.01702  0
H  H5  1  0.83604281  0.64655710  0.30649635  1  0  0.313962  0  0.935532  0  0  0.293433  0  1.011668  0  0  0.30171  0  1.003528  0  0  0.287459  0.28765  0  1.017153  0
H  H6  1  0.33604774  0.85342463  0.19350697  1  0  0.313645  0  0.935816  0  0  0.293183  0  1.011851  0  0  0.301458  0  1.003705  0  0  0.287281  0.287396  0  1.017336  0
H  H7  1  0.16392823  0.35342218  0.69350334  1  0  0.313958  0  0.935298  0  0  0.293459  0  1.01143  0  0  0.301737  0  1.003267  0  0  0.287425  0.287674  0  1.016915  0
H  H8  1  0.78635031  0.16179303  0.71883803  1  0  0.348566  0  0.915827  0  0  0.329954  0  0.976739  0  0  0.338062  0  0.970322  0  0  0.29806  0.324158  0  0.981383  0
H  H9  1  0.71363524  0.66176702  0.21884651  1  0  0.34849  0  0.915678  0  0  0.329863  0  0.976615  0  0  0.33797  0  0.970199  0  0  0.298089  0.324072  0  0.981245  0
H  H10  1  0.21362074  0.83821482  0.28116088  1  0  0.348597  0  0.915864  0  0  0.330048  0  0.976685  0  0  0.338155  0  0.970265  0  0  0.298125  0.324248  0  0.98134  0
H  H11  1  0.28634620  0.33821446  0.78116132  1  0  0.34853  0  0.915715  0  0  0.329917  0  0.976633  0  0  0.338025  0  0.970218  0  0  0.298051  0.324124  0  0.981271  0
H  H12  1  0.13929849  0.03347276  0.68658939  1  0  0.113265  0  0.976218  0  0  0.124585  0  1.035396  0  0  0.127432  0  1.035174  0  0  0.105528  0.122545  0  1.035738  0
H  H13  1  0.36067740  0.53346724  0.18660640  1  0  0.113396  0  0.976159  0  0  0.124671  0  1.035405  0  0  0.127523  0  1.035174  0  0  0.105558  0.122615  0  1.035767  0
H  H14  1  0.86064483  0.96651324  0.31339576  1  0  0.113262  0  0.976171  0  0  0.124602  0  1.035369  0  0  0.127452  0  1.035138  0  0  0.105571  0.122523  0  1.035758  0
H  H15  1  0.63930923  0.46652542  0.81340100  1  0  0.113283  0  0.976184  0  0  0.124564  0  1.03545  0  0  0.12741  0  1.03523  0  0  0.105539  0.122526  0  1.035791  0
H  H16  1  0.47396705  0.85536551  0.72441942  1  0  0.087589  0  0.964166  0  0  0.099573  0  1.024184  0  0  0.100607  0  1.025089  0  0  0.100833  0.098751  0  1.023512  0
H  H17  1  0.02601511  0.35534780  0.22443979  1  0  0.087673  0  0.963938  0  0  0.09972  0  1.023867  0  0  0.100756  0  1.024768  0  0  0.100903  0.098928  0  1.023156  0
H  H18  1  0.52599186  0.14462573  0.27555767  1  0  0.087714  0  0.964087  0  0  0.099735  0  1.02403  0  0  0.100773  0  1.024929  0  0  0.100946  0.098942  0  1.023321  0
H  H19  1  0.97397152  0.64463259  0.77556370  1  0  0.08765  0  0.963928  0  0  0.099653  0  1.023915  0  0  0.100688  0  1.024817  0  0  0.100884  0.098854  0  1.023219  0
H  H20  1  0.48256179  0.74750989  0.85251957  1  0  0.097021  0  0.988452  0  0  0.105348  0  1.05609  0  0  0.108194  0  1.055604  0  0  0.096608  0.103436  0  1.056427  0
H  H21  1  0.01747788  0.24748859  0.35253667  1  0  0.097048  0  0.988695  0  0  0.105379  0  1.056274  0  0  0.108222  0  1.055787  0  0  0.096644  0.103462  0  1.056621  0
H  H22  1  0.51748203  0.25250351  0.14746262  1  0  0.097121  0  0.988676  0  0  0.105482  0  1.056213  0  0  0.108326  0  1.055724  0  0  0.096635  0.103564  0  1.056557  0
H  H23  1  0.98253648  0.75249193  0.64746303  1  0  0.097206  0  0.988525  0  0  0.105543  0  1.056093  0  0  0.10839  0  1.055603  0  0  0.096695  0.103628  0  1.056435  0
H  H24  1  0.15810339  0.82165865  0.93497948  1  0  0.06594  0  0.970401  0  0  0.074676  0  1.043438  0  0  0.077029  0  1.040076  0  0  0.103124  0.072708  0  1.046215  0
H  H25  1  0.34193957  0.32163179  0.43499416  1  0  0.065942  0  0.970108  0  0  0.074589  0  1.04326  0  0  0.076994  0  1.039849  0  0  0.103138  0.072622  0  1.046036  0
H  H26  1  0.84196815  0.17837422  0.06501427  1  0  0.065836  0  0.970516  0  0  0.074606  0  1.04355  0  0  0.076923  0  1.040224  0  0  0.103088  0.07268  0  1.046288  0
H  H27  1  0.65806267  0.67834364  0.56500928  1  0  0.065933  0  0.970446  0  0  0.074744  0  1.043371  0  0  0.077062  0  1.040043  0  0  0.103134  0.07278  0  1.046142  0
H  H28  1  0.94658714  0.38347189  0.87602674  1  0  0.094959  0  0.967186  0  0  0.102142  0  1.036834  0  0  0.106052  0  1.033753  0  0  0.099965  0.099346  0  1.039162  0
H  H29  1  0.55341735  0.88347485  0.37603265  1  0  0.094919  0  0.967131  0  0  0.102104  0  1.03679  0  0  0.106014  0  1.033708  0  0  0.099945  0.099309  0  1.039113  0
H  H30  1  0.05341163  0.61651985  0.12397145  1  0  0.094891  0  0.967231  0  0  0.102068  0  1.036894  0  0  0.105977  0  1.033814  0  0  0.099925  0.099271  0  1.039217  0
H  H31  1  0.44657449  0.11654148  0.62397229  1  0  0.094878  0  0.967242  0  0  0.102078  0  1.036861  0  0  0.105986  0  1.033782  0  0  0.09991  0.099281  0  1.039188  0
H  H32  1  0.34771410  0.42080840  0.07091964  1  0  0.095799  0  0.958177  0  0  0.106925  0  1.019974  0  0  0.109907  0  1.018712  0  0  0.101847  0.104656  0  1.02132  0
H  H33  1  0.15227871  0.92082592  0.57092382  1  0  0.095828  0  0.958345  0  0  0.106969  0  1.020104  0  0  0.10995  0  1.018842  0  0  0.101895  0.104705  0  1.021444  0
H  H34  1  0.65229333  0.57918573  0.92908128  1  0  0.09569  0  0.958199  0  0  0.106897  0  1.019913  0  0  0.109879  0  1.018652  0  0  0.101836  0.104629  0  1.021263  0
H  H35  1  0.84771833  0.07918897  0.42908706  1  0  0.095815  0  0.958153  0  0  0.106937  0  1.019963  0  0  0.109919  0  1.0187  0  0  0.101839  0.104672  0  1.021301  0
C  C36  1  0.97366961  0.02283017  0.79075259  1  0  0.489703  0  3.820132  0  0  0.463976  0  4.064761  0  0  0.484914  0  4.079394  0  0  0.225472  0.450192  0  4.054247  0
C  C37  1  0.52636610  0.52283035  0.29076881  1  0  0.489615  0  3.820163  0  0  0.463636  0  4.06519  0  0  0.484637  0  4.079738  0  0  0.225349  0.449844  0  4.054679  0
C  C38  1  0.02632743  0.97716802  0.20923864  1  0  0.489849  0  3.820045  0  0  0.463929  0  4.064988  0  0  0.484929  0  4.079539  0  0  0.225457  0.450139  0  4.054471  0
C  C39  1  0.47365519  0.47716976  0.70923867  1  0  0.489699  0  3.820055  0  0  0.463918  0  4.064817  0  0  0.484919  0  4.079369  0  0  0.225519  0.450127  0  4.054311  0
C  C40  1  0.15263539  0.98353182  0.74093696  1  0  -0.235868  0  3.685777  0  0  -0.244177  0  3.926405  0  0  -0.255513  0  3.945312  0  0  -0.101145  -0.236662  0  3.913495  0
C  C41  1  0.34735687  0.48350627  0.24094947  1  0  -0.235886  0  3.685222  0  0  -0.244031  0  3.925809  0  0  -0.255387  0  3.944702  0  0  -0.101104  -0.236504  0  3.912915  0
C  C42  1  0.84735125  0.01646654  0.25904940  1  0  -0.235776  0  3.685476  0  0  -0.244046  0  3.926073  0  0  -0.2554  0  3.944965  0  0  -0.101107  -0.236502  0  3.913194  0
C  C43  1  0.65264882  0.51647274  0.75905779  1  0  -0.23569  0  3.685506  0  0  -0.243943  0  3.926094  0  0  -0.255296  0  3.944985  0  0  -0.101091  -0.236432  0  3.913192  0
C  C44  1  0.33550207  0.88562926  0.76237507  1  0  0.018261  0  3.759238  0  0  -0.000225  0  4.004611  0  0  0.007704  0  4.021652  0  0  -0.076445  -0.004668  0  3.992215  0
C  C45  1  0.16448614  0.38560474  0.26240424  1  0  0.017791  0  3.760127  0  0  -0.00079  0  4.005571  0  0  0.007141  0  4.022607  0  0  -0.076691  -0.005256  0  3.993163  0
C  C46  1  0.66446898  0.11437544  0.23760757  1  0  0.017974  0  3.759362  0  0  -0.000543  0  4.004762  0  0  0.007388  0  4.021792  0  0  -0.076618  -0.005012  0  3.992359  0
C  C47  1  0.83549703  0.61437041  0.73760677  1  0  0.01804  0  3.759771  0  0  -0.000467  0  4.005122  0  0  0.007462  0  4.022163  0  0  -0.076582  -0.00493  0  3.992727  0
C  C48  1  0.34204070  0.82551069  0.83359375  1  0  -0.187253  0  3.803337  0  0  -0.201422  0  4.064125  0  0  -0.211154  0  4.084525  0  0  -0.118863  -0.195888  0  4.050563  0
C  C49  1  0.15795270  0.32549273  0.33361327  1  0  -0.18703  0  3.804177  0  0  -0.201183  0  4.064882  0  0  -0.210913  0  4.08529  0  0  -0.118865  -0.195657  0  4.05134  0
C  C50  1  0.65796673  0.17449909  0.16638570  1  0  -0.18749  0  3.803891  0  0  -0.201684  0  4.064692  0  0  -0.211412  0  4.085072  0  0  -0.119006  -0.196158  0  4.051165  0
C  C51  1  0.84203567  0.67449002  0.66639349  1  0  -0.187433  0  3.803624  0  0  -0.201607  0  4.064402  0  0  -0.211338  0  4.084788  0  0  -0.118962  -0.196077  0  4.050852  0
C  C52  1  0.16161295  0.86649416  0.87952895  1  0  0.134357  0  3.770193  0  0  0.101639  0  4.019867  0  0  0.111977  0  4.038437  0  0  0.030121  0.094957  0  4.007623  0
C  C53  1  0.33841578  0.36647880  0.37953455  1  0  0.134409  0  3.769837  0  0  0.101841  0  4.019524  0  0  0.112131  0  4.038082  0  0  0.030219  0.095159  0  4.007278  0
C  C54  1  0.83842914  0.13352267  0.12046193  1  0  0.134656  0  3.770133  0  0  0.101936  0  4.019825  0  0  0.112299  0  4.038407  0  0  0.030291  0.095218  0  4.007565  0
C  C55  1  0.66158126  0.63351052  0.62046200  1  0  0.134376  0  3.769836  0  0  0.101689  0  4.019501  0  0  0.112054  0  4.038083  0  0  0.030178  0.095008  0  4.007248  0
C  C56  1  0.34231821  0.27404686  0.93933571  1  0  0.631597  0  3.927428  0  0  0.58026  0  4.214876  0  0  0.613961  0  4.209923  0  0  0.197793  0.557211  0  4.217797  0
C  C57  1  0.15768822  0.77404333  0.43934347  1  0  0.631576  0  3.927652  0  0  0.580221  0  4.215077  0  0  0.613915  0  4.210127  0  0  0.19784  0.557171  0  4.217995  0
C  C58  1  0.65768922  0.72597098  0.06066168  1  0  0.631624  0  3.92746  0  0  0.580248  0  4.214949  0  0  0.61395  0  4.209997  0  0  0.197796  0.557196  0  4.217866  0
C  C59  1  0.84231574  0.22596043  0.56066621  1  0  0.631508  0  3.927796  0  0  0.580243  0  4.215163  0  0  0.613942  0  4.21021  0  0  0.197739  0.557192  0  4.218088  0
C  C60  1  0.16470296  0.39025809  0.97052260  1  0  -0.060446  0  3.756297  0  0  -0.037092  0  3.987245  0  0  -0.043103  0  4.008973  0  0  -0.017607  -0.032941  0  3.972741  0
C  C61  1  0.33529935  0.89025048  0.47052991  1  0  -0.060346  0  3.756483  0  0  -0.036892  0  3.987257  0  0  -0.042898  0  4.008984  0  0  -0.017626  -0.032738  0  3.972752  0
C  C62  1  0.83531661  0.60974482  0.02947572  1  0  -0.06046  0  3.756157  0  0  -0.037021  0  3.987024  0  0  -0.04303  0  4.008753  0  0  -0.017624  -0.032868  0  3.972517  0
C  C63  1  0.66469941  0.10975054  0.52948678  1  0  -0.0603  0  3.756027  0  0  -0.037054  0  3.987077  0  0  -0.043065  0  4.008805  0  0  -0.017515  -0.032902  0  3.972578  0
C  C64  1  0.19374331  0.45568367  0.04051500  1  0  -0.067108  0  3.720808  0  0  -0.089454  0  3.967217  0  0  -0.090833  0  3.988499  0  0  -0.086078  -0.088498  0  3.953196  0
C  C65  1  0.30625199  0.95568716  0.54052085  1  0  -0.067178  0  3.720771  0  0  -0.08955  0  3.967133  0  0  -0.09093  0  3.988415  0  0  -0.08612  -0.088596  0  3.953121  0
C  C66  1  0.80627625  0.54431685  0.95948058  1  0  -0.066933  0  3.720824  0  0  -0.089319  0  3.967129  0  0  -0.0907  0  3.988414  0  0  -0.086067  -0.088365  0  3.953116  0
C  C67  1  0.69373465  0.04431912  0.45948778  1  0  -0.0672  0  3.720524  0  0  -0.089524  0  3.966976  0  0  -0.090896  0  3.988247  0  0  -0.08616  -0.088568  0  3.952956  0
C  C68  1  0.96921486  0.43550443  0.93017241  1  0  -0.087303  0  3.747083  0  0  -0.10842  0  4.000658  0  0  -0.109012  0  4.019087  0  0  -0.088772  -0.108185  0  3.988403  0
C  C69  1  0.53077798  0.93550726  0.43018324  1  0  -0.087225  0  3.747019  0  0  -0.108356  0  4.000532  0  0  -0.108949  0  4.018959  0  0  -0.088699  -0.108119  0  3.988269  0
C  C70  1  0.03080124  0.56449234  0.06982421  1  0  -0.087122  0  3.746823  0  0  -0.108246  0  4.000322  0  0  -0.108838  0  4.01875  0  0  -0.088675  -0.108005  0  3.988055  0
C  C71  1  0.46918786  0.06450501  0.56983140  1  0  -0.087165  0  3.74654  0  0  -0.108242  0  4.000114  0  0  -0.108836  0  4.018544  0  0  -0.088694  -0.108006  0  3.987862  0
N  N72  1  0.98080299  0.96260630  0.85941956  1  0  -0.441331  0  3.328673  0  0  -0.348262  0  3.609067  0  0  -0.375108  0  3.625364  0  0  -0.375218  -0.330581  0  3.597339  0
N  N73  1  0.51920716  0.46258274  0.35943014  1  0  -0.44141  0  3.329144  0  0  -0.348417  0  3.609747  0  0  -0.375287  0  3.626043  0  0  -0.37521  -0.330735  0  3.598023  0
N  N74  1  0.01922004  0.03740656  0.14057831  1  0  -0.441407  0  3.328686  0  0  -0.348374  0  3.609269  0  0  -0.375238  0  3.625533  0  0  -0.375219  -0.330695  0  3.597563  0
N  N75  1  0.48078468  0.53739759  0.64057497  1  0  -0.441432  0  3.328938  0  0  -0.348475  0  3.609514  0  0  -0.37534  0  3.625777  0  0  -0.375342  -0.330792  0  3.597789  0
N  N76  1  0.79516257  0.12055816  0.77111175  1  0  -0.687357  0  3.132709  0  0  -0.644742  0  3.363107  0  0  -0.667738  0  3.360422  0  0  -0.583289  -0.628869  0  3.364348  0
N  N77  1  0.70485982  0.62055071  0.27112206  1  0  -0.687413  0  3.132691  0  0  -0.644572  0  3.3631  0  0  -0.667595  0  3.360387  0  0  -0.583368  -0.628698  0  3.364342  0
N  N78  1  0.20483273  0.87943227  0.22888860  1  0  -0.687432  0  3.132757  0  0  -0.644788  0  3.363138  0  0  -0.667799  0  3.360405  0  0  -0.583333  -0.628905  0  3.364385  0
N  N79  1  0.29514068  0.37944953  0.72888163  1  0  -0.687608  0  3.132321  0  0  -0.644904  0  3.362754  0  0  -0.667921  0  3.360041  0  0  -0.583372  -0.629023  0  3.363996  0
O  O80  1  0.45725277  0.18765293  0.98591682  1  0  -0.646976  0  2.164616  0  0  -0.553715  0  2.445123  0  0  -0.587302  0  2.434125  0  0  -0.34427  -0.53013  0  2.451763  0
O  O81  1  0.04276461  0.68765349  0.48592110  1  0  -0.646899  0  2.164803  0  0  -0.553651  0  2.445316  0  0  -0.587229  0  2.434312  0  0  -0.344291  -0.530079  0  2.451963  0
O  O82  1  0.54277719  0.81237359  0.01408065  1  0  -0.646945  0  2.164791  0  0  -0.553728  0  2.445346  0  0  -0.587308  0  2.434344  0  0  -0.344242  -0.530151  0  2.45199  0
O  O83  1  0.95722549  0.31235548  0.51408160  1  0  -0.646923  0  2.164659  0  0  -0.553645  0  2.445096  0  0  -0.58723  0  2.434104  0  0  -0.344226  -0.530069  0  2.45174  0
O  O84  1  0.37371521  0.26604876  0.87199063  1  0  -0.62849  0  1.98956  0  0  -0.569294  0  2.21919  0  0  -0.594074  0  2.211596  0  0  -0.314391  -0.551797  0  2.223715  0
O  O85  1  0.12627550  0.76605152  0.37199799  1  0  -0.628595  0  1.989379  0  0  -0.569369  0  2.218975  0  0  -0.594171  0  2.21143  0  0  -0.314465  -0.551862  0  2.223483  0
O  O86  1  0.62628876  0.73395526  0.12801148  1  0  -0.628575  0  1.989422  0  0  -0.569334  0  2.219031  0  0  -0.594134  0  2.211476  0  0  -0.314438  -0.55183  0  2.223539  0
O  O87  1  0.87371981  0.23395968  0.62801177  1  0  -0.628528  0  1.989651  0  0  -0.56935  0  2.219271  0  0  -0.594129  0  2.211667  0  0  -0.314419  -0.551848  0  2.22379  0
