# generated using pymatgen
data_Co2H23C34(NO2)5
_symmetry_space_group_name_H-M   'P 1'
_cell_length_a   13.62299743
_cell_length_b   14.95481224
_cell_length_c   19.32067381
_cell_angle_alpha   77.56889533
_cell_angle_beta   69.40546724
_cell_angle_gamma   62.88349986
_symmetry_Int_Tables_number   1
_chemical_formula_structural   Co2H23C34(NO2)5
_chemical_formula_sum   'Co8 H92 C136 N20 O40'
_cell_volume   3272.49280243
_cell_formula_units_Z   4
loop_
 _symmetry_equiv_pos_site_id
 _symmetry_equiv_pos_as_xyz
  1  'x, y, z'
loop_
 _atom_site_type_symbol
 _atom_site_label
 _atom_site_symmetry_multiplicity
 _atom_site_fract_x
 _atom_site_fract_y
 _atom_site_fract_z
 _atom_site_occupancy
 _atom_site_pbe_bader_charge
 _atom_site_pbe_bader_spin_density
 _atom_site_pbe_cm5_charge
 _atom_site_pbe_ddec_charge
 _atom_site_pbe_ddec_spin_density
 _atom_site_pbe_ddec_sum_bond_order
 _atom_site_pbe_magmom
Co  Co0  1  0.02722927  0.08553037  0.50644176  1  1.356682  1.719282  0.730719  1.078476  1.92478  2.857647  1.697
Co  Co1  1  0.77046578  0.15209542  0.56381951  1  1.283762  2.630129  0.721815  0.985742  2.887317  2.57226  2.572
Co  Co2  1  0.61000713  0.41637032  0.99434923  1  1.399575  2.766864  0.718595  1.087152  3.115862  2.548251  2.746
Co  Co3  1  0.47843450  0.35058065  0.94347686  1  1.282699  2.618594  0.71596  0.972185  2.888714  2.601553  2.564
Co  Co4  1  0.97916677  0.91659300  0.49394082  1  1.403353  2.767204  0.718433  1.086218  3.114819  2.548964  2.747
Co  Co5  1  0.22737234  0.85089576  0.44330953  1  1.278766  2.617275  0.715295  0.971352  2.888617  2.602794  2.563
Co  Co6  1  0.38095261  0.58576525  0.00593298  1  1.357404  1.718949  0.729339  1.077159  1.923499  2.854449  1.696
Co  Co7  1  0.51343995  0.65241095  0.06356850  1  1.287723  2.630684  0.721858  0.986584  2.891304  2.569727  2.573
H  H8  1  0.68176788  0.18438372  0.43499534  1  0.152448  0.002199  0.131695  0.112725  0.00099  0.985613  0.002
H  H9  1  0.51724009  0.17355492  0.41564859  1  0.096704  0.000709  0.108714  0.115665  0.000268  1.036737  0.0
H  H10  1  0.38375893  0.13932956  0.65442297  1  0.083058  0.000669  0.112078  0.116218  0.00024  1.005741  0.0
H  H11  1  0.55161054  0.15264109  0.66341588  1  0.115463  0.002247  0.129681  0.102729  0.000824  0.979632  0.002
H  H12  1  0.22715102  0.17259895  0.63743480  1  0.044265  -6.2e-05  0.11132  0.11346  -4.9e-05  1.003572  0.0
H  H13  1  0.07395731  0.13918013  0.62170301  1  0.170632  3.5e-05  0.128807  0.113796  -0.000149  1.003669  0.0
H  H14  1  0.26176805  0.06001370  0.40635446  1  0.137328  0.00013  0.126763  0.103029  -0.000122  1.018642  0.0
H  H15  1  0.42245022  0.08933852  0.41171647  1  0.110433  7.8e-05  0.108861  0.118068  5.5e-05  1.031231  0.0
H  H16  1  0.19577055  0.20307679  0.31092049  1  0.088446  0.000375  0.100823  0.099429  0.000191  1.030995  0.0
H  H17  1  0.26485549  0.31554298  0.20912551  1  0.086539  9.7e-05  0.10236  0.107066  2.1e-05  1.014619  0.0
H  H18  1  0.12405147  0.45594439  0.15081022  1  0.052439  -2.2e-05  0.093394  0.08495  -9.6e-05  1.039372  0.0
H  H19  1  0.91883075  0.48096135  0.19112737  1  0.062578  0.000288  0.095593  0.101523  0.000125  1.076227  0.0
H  H20  1  0.45907744  0.36988615  0.40245262  1  0.136244  0.000108  0.102527  0.117234  8e-06  1.06434  0.0
H  H21  1  0.28338318  0.34056430  0.43160028  1  0.026993  1.2e-05  0.093949  0.089504  -2.2e-05  1.021101  0.0
H  H22  1  0.16691008  0.40567713  0.34177892  1  0.090038  0.000144  0.096131  0.095756  4.6e-05  1.046269  0.0
H  H23  1  0.22419647  0.50665251  0.22775644  1  0.091795  0.000153  0.101457  0.102597  -2e-05  1.025641  0.0
H  H24  1  0.02461079  0.35845110  0.47676283  1  0.083887  2.3e-05  0.107099  0.113253  -0.000111  0.995915  0.0
H  H25  1  0.02762009  0.52178713  0.41359194  1  0.10342  0.000139  0.09834  0.097878  5.2e-05  1.037569  0.0
H  H26  1  0.85172018  0.65528330  0.38348050  1  0.035098  4.5e-05  0.09335  0.08429  -7e-06  1.026722  0.0
H  H27  1  0.67188600  0.62824450  0.42072733  1  0.134941  -2.1e-05  0.099038  0.112607  -6.4e-05  1.063712  0.0
H  H28  1  0.81424464  0.31835485  0.34328515  1  0.548628  2e-05  0.300733  0.273929  7.7e-05  1.035082  0.0
H  H29  1  0.56242921  0.50554153  0.23144587  1  0.508384  0.000364  0.308459  0.27641  0.00021  0.999352  0.0
H  H30  1  0.64951384  0.39978180  0.52735098  1  0.528831  0.000313  0.311697  0.284118  3.6e-05  1.002916  0.0
H  H31  1  0.30287441  0.30440439  0.06580262  1  0.156117  0.00252  0.129671  0.110744  0.001213  0.99614  0.002
H  H32  1  0.10803579  0.31641136  0.08387973  1  0.112537  0.000864  0.109668  0.117207  0.000333  1.032049  0.0
H  H33  1  0.17640721  0.36307744  0.84527466  1  0.080621  0.000797  0.111586  0.115128  0.000316  1.010072  0.0
H  H34  1  0.36772132  0.34691732  0.83750342  1  0.144565  0.002119  0.129058  0.103272  0.000675  0.977657  0.002
H  H35  1  0.03609565  0.33182507  0.86039723  1  0.056262  0.00069  0.109747  0.111781  0.000292  1.005054  0.0
H  H36  1  0.83159950  0.37255706  0.87549115  1  0.135883  0.001346  0.12415  0.103895  0.000388  1.002756  0.001
H  H37  1  0.72991111  0.44107970  0.09301300  1  0.158037  0.0016  0.123132  0.096492  0.000446  1.017902  0.001
H  H38  1  0.92753255  0.40442900  0.08851487  1  0.101471  0.00076  0.107982  0.1168  0.000314  1.032424  0.0
H  H39  1  0.70282563  0.30370148  0.18467874  1  0.101843  0.00039  0.102137  0.10173  0.000188  1.028546  0.0
H  H40  1  0.78676120  0.19215249  0.28521678  1  0.087227  4.9e-05  0.103501  0.108306  -2e-06  1.011671  0.0
H  H41  1  0.73268875  0.04941604  0.34407785  1  0.03939  -1.3e-05  0.094973  0.085481  -8.1e-05  1.039106  0.0
H  H42  1  0.59271751  0.02162656  0.30610631  1  0.100327  0.000247  0.096336  0.103132  0.000112  1.070998  0.0
H  H43  1  0.23159596  0.12127660  0.09890941  1  0.123514  0.000133  0.103009  0.116959  1.7e-05  1.063707  0.0
H  H44  1  0.05743017  0.14731782  0.06925660  1  0.05717  1.4e-05  0.094687  0.090377  -8e-06  1.018655  0.0
H  H45  1  0.91364249  0.08705312  0.16136377  1  0.077367  0.00016  0.096028  0.095393  5.6e-05  1.047925  0.0
H  H46  1  0.95257827  0.99592015  0.27898302  1  0.086678  0.000177  0.10133  0.100684  2.6e-05  1.029496  0.0
H  H47  1  0.86009954  0.13873282  0.02199347  1  0.084642  0.000304  0.10713  0.115187  9.1e-05  0.994464  0.0
H  H48  1  0.96230829  0.97553541  0.08605316  1  0.078125  0.000147  0.098338  0.098005  5.7e-05  1.034462  0.0
H  H49  1  0.88749312  0.84355030  0.11768690  1  0.053046  2e-05  0.092634  0.082837  -1.1e-05  1.027805  0.0
H  H50  1  0.71786876  0.87098612  0.08017159  1  0.121282  6.3e-05  0.099057  0.112955  -2.5e-05  1.062964  0.0
H  H51  1  0.47144690  0.18068551  0.15563547  1  0.559225  1.8e-05  0.302745  0.273989  6.1e-05  1.029659  0.0
H  H52  1  0.29589447  0.99596595  0.27284684  1  0.529446  0.000294  0.310387  0.277208  0.000187  0.993189  0.0
H  H53  1  0.57414186  0.10011912  0.97328564  1  0.528118  0.000372  0.311773  0.285307  0.000126  0.999279  0.0
H  H54  1  0.32758747  0.80398566  0.56524232  1  0.155596  0.002538  0.129474  0.109036  0.001228  0.995889  0.002
H  H55  1  0.49257926  0.81560768  0.58331882  1  0.10727  0.000853  0.109725  0.116933  0.00033  1.031334  0.0
H  H56  1  0.61557739  0.86224086  0.34466980  1  0.086837  0.000798  0.111359  0.114577  0.000318  1.008276  0.0
H  H57  1  0.44788482  0.84646725  0.33697109  1  0.113793  0.002141  0.129184  0.102901  0.000674  0.977208  0.002
H  H58  1  0.77227780  0.83101256  0.35986755  1  0.040938  0.000689  0.10992  0.111601  0.000292  1.00454  0.0
H  H59  1  0.92045732  0.87235946  0.37503482  1  0.13146  0.00135  0.124464  0.104237  0.000389  1.002092  0.001
H  H60  1  0.73579309  0.94146139  0.59239016  1  0.122579  0.001649  0.123157  0.097204  0.000459  1.016872  0.001
H  H61  1  0.57982861  0.90418746  0.58784358  1  0.112633  0.000749  0.108327  0.117131  0.000313  1.032448  0.0
H  H62  1  0.80853036  0.80392724  0.68414636  1  0.095484  0.000387  0.102999  0.102775  0.000187  1.029176  0.0
H  H63  1  0.73562761  0.69241948  0.78455896  1  0.098352  4.8e-05  0.103239  0.10761  -2e-06  1.013042  0.0
H  H64  1  0.87355568  0.54940741  0.84339053  1  0.053958  -1.4e-05  0.094642  0.085259  -8e-05  1.03947  0.0
H  H65  1  0.07933450  0.52133828  0.80562540  1  0.11267  0.000246  0.096836  0.103387  0.000112  1.071649  0.0
H  H66  1  0.54787788  0.62088526  0.59899959  1  0.121732  0.000132  0.103786  0.118008  1.6e-05  1.064034  0.0
H  H67  1  0.72579517  0.64658911  0.56947577  1  0.070216  1.4e-05  0.09513  0.090986  -8e-06  1.018927  0.0
H  H68  1  0.83795729  0.58584405  0.66165994  1  0.084017  0.000158  0.095645  0.093664  5.6e-05  1.047643  0.0
H  H69  1  0.77245811  0.49481711  0.77918343  1  0.091574  0.000172  0.101395  0.101072  2.4e-05  1.029091  0.0
H  H70  1  0.97907707  0.63913606  0.52135891  1  0.09614  0.000307  0.106783  0.114143  9.1e-05  0.994144  0.0
H  H71  1  0.97605444  0.47608773  0.58560305  1  0.086677  0.000146  0.098159  0.096987  5.8e-05  1.035942  0.0
H  H72  1  0.15075334  0.34457900  0.61817940  1  0.016858  2.3e-05  0.092795  0.082814  -1e-05  1.027877  0.0
H  H73  1  0.33056856  0.37169215  0.58055011  1  0.129282  6.3e-05  0.09934  0.113125  -2.4e-05  1.062361  0.0
H  H74  1  0.19173241  0.68074816  0.65554597  1  0.55264  1.9e-05  0.302885  0.275029  6.1e-05  1.030218  0.0
H  H75  1  0.43504211  0.49547713  0.77276627  1  0.524747  0.000286  0.310113  0.278044  0.000191  0.993678  0.0
H  H76  1  0.35213453  0.60038946  0.47318833  1  0.54277  0.000362  0.311706  0.28583  0.000129  0.998533  0.0
H  H77  1  0.69864556  0.68421331  0.93454727  1  0.155196  0.002199  0.130776  0.110245  0.000987  0.988724  0.002
H  H78  1  0.89343760  0.67314216  0.91512533  1  0.122595  0.000713  0.108373  0.115118  0.000269  1.037761  0.0
H  H79  1  0.82322632  0.63852100  0.15388796  1  0.095631  0.000664  0.11238  0.116465  0.00024  1.006198  0.0
H  H80  1  0.63276670  0.65260190  0.16293696  1  0.136936  0.002226  0.129582  0.104055  0.000826  0.978687  0.002
H  H81  1  0.96348094  0.67115682  0.13712517  1  0.107842  -7.1e-05  0.111104  0.113108  -5.2e-05  1.005162  0.0
H  H82  1  0.16561672  0.63819572  0.12145510  1  0.142716  3.8e-05  0.128411  0.113  -0.000142  1.004609  0.0
H  H83  1  0.27176303  0.56103307  0.90558005  1  0.146256  9.6e-05  0.126637  0.102402  -0.000149  1.018728  0.0
H  H84  1  0.07653845  0.58994587  0.91088891  1  0.104067  7.9e-05  0.109192  0.118684  5.6e-05  1.031474  0.0
H  H85  1  0.29104189  0.70349656  0.80970905  1  0.108964  0.000368  0.101175  0.099824  0.000193  1.030885  0.0
H  H86  1  0.21197663  0.81589619  0.70758690  1  0.084512  9.8e-05  0.102303  0.106345  2.2e-05  1.015165  0.0
H  H87  1  0.27095888  0.95614027  0.64955969  1  0.061688  -2.2e-05  0.093815  0.08499  -9.6e-05  1.038959  0.0
H  H88  1  0.41067536  0.98083202  0.69037270  1  0.08436  0.000284  0.09607  0.102408  0.000124  1.075149  0.0
H  H89  1  0.76992987  0.86924837  0.90258044  1  0.140495  0.000112  0.102601  0.117555  1e-05  1.063877  0.0
H  H90  1  0.94617678  0.83946177  0.93156770  1  0.069885  8e-06  0.093556  0.088596  -2.3e-05  1.022304  0.0
H  H91  1  0.08735795  0.90423291  0.84165204  1  0.095975  0.000145  0.09664  0.096777  4.6e-05  1.045032  0.0
H  H92  1  0.04273100  0.00538954  0.72766211  1  0.094665  0.000156  0.101547  0.102364  -2e-05  1.024549  0.0
H  H93  1  0.13996866  0.85922853  0.97628396  1  0.088024  2.2e-05  0.10666  0.113138  -0.000109  0.995694  0.0
H  H94  1  0.03669354  0.02260985  0.91314298  1  0.082493  0.00014  0.09832  0.097947  5.1e-05  1.035824  0.0
H  H95  1  0.10921154  0.15602562  0.88313711  1  0.034653  4.5e-05  0.093409  0.083965  -6e-06  1.027046  0.0
H  H96  1  0.27902139  0.12872945  0.92045640  1  0.116642  -2.3e-05  0.099517  0.113875  -6.5e-05  1.063665  0.0
H  H97  1  0.52458005  0.81841038  0.84313194  1  0.557666  1.7e-05  0.301107  0.274348  7.5e-05  1.03508  0.0
H  H98  1  0.70167611  0.00485485  0.73146025  1  0.510275  0.000377  0.308548  0.276279  0.000205  0.998978  0.0
H  H99  1  0.42311026  0.90002725  0.02720439  1  0.527648  0.000307  0.311754  0.284145  3.3e-05  1.003319  0.0
C  C100  1  0.61396399  0.17322067  0.48186183  1  0.477665  0.004436  0.061825  0.115521  0.002755  3.892235  0.004
C  C101  1  0.52116072  0.16694489  0.47190369  1  -0.00847  0.001609  -0.075925  -0.163018  0.000162  3.908389  0.002
C  C102  1  0.43532890  0.15193557  0.53349681  1  0.000354  0.000733  0.014933  0.100076  -6.9e-05  3.961807  0.001
C  C103  1  0.44563739  0.15072332  0.60350364  1  -0.040514  0.001114  -0.07537  -0.160002  -0.000233  3.920924  0.002
C  C104  1  0.54033652  0.15785993  0.60948692  1  0.513167  0.004167  0.061992  0.124821  0.002716  3.921386  0.003
C  C105  1  0.34079633  0.13497629  0.52574747  1  0.004508  -0.006187  0.011974  0.095638  -0.007036  3.968302  -0.004
C  C106  1  0.23989364  0.14770330  0.58475731  1  0.038981  0.001813  -0.079823  -0.174089  0.00049  3.964819  0.001
C  C107  1  0.15331709  0.12928123  0.57712195  1  0.394459  -0.003973  0.05367  0.090062  -0.00445  3.914448  -0.002
C  C108  1  0.25792143  0.08460503  0.45667382  1  0.49696  -0.003932  0.058464  0.100854  -0.004637  3.888486  -0.002
C  C109  1  0.34757222  0.10263113  0.46039415  1  -0.050249  0.000509  -0.076884  -0.162515  -0.000191  3.904648  0.001
C  C110  1  0.98749820  0.20425296  0.36754301  1  1.578891  0.000913  0.206676  0.574128  0.000419  4.181721  -0.001
C  C111  1  0.02286923  0.27469287  0.30567108  1  -0.079169  0.010876  -0.019737  -0.129689  0.005925  3.908505  0.008
C  C112  1  0.13718057  0.26332801  0.28271209  1  0.025536  0.000489  -0.087584  -0.080642  0.000108  3.997575  0.0
C  C113  1  0.17509662  0.32648915  0.22677079  1  -0.036805  0.000228  -0.097289  -0.097408  6.8e-05  4.013047  0.0
C  C114  1  0.09599157  0.40524095  0.19414936  1  -0.154814  3.9e-05  -0.094258  -0.06878  -0.000102  4.047082  0.0
C  C115  1  0.98106681  0.41979119  0.21611984  1  0.059112  0.000667  -0.10757  -0.201863  0.000374  3.988978  0.0
C  C116  1  0.94321464  0.35486511  0.27163952  1  0.368993  0.001376  0.105726  0.239315  0.000487  3.972041  0.001
C  C117  1  0.74117884  0.42729177  0.26777130  1  1.438494  -4.9e-05  0.237497  0.385806  -7.1e-05  4.123956  0.0
C  C118  1  0.62905950  0.41662197  0.31446792  1  1.404864  5.8e-05  0.240523  0.380682  3.3e-05  4.119575  0.0
C  C119  1  0.44091571  0.45467058  0.29927862  1  0.363794  0.001574  0.110758  0.245135  0.000779  3.947706  0.001
C  C120  1  0.40653734  0.39968956  0.36482268  1  -0.051884  0.000247  -0.101406  -0.186161  9.3e-05  3.957138  0.0
C  C121  1  0.30836677  0.38300704  0.38032350  1  0.013225  0.000896  -0.092316  -0.057414  0.00047  4.031796  0.001
C  C122  1  0.24208182  0.42063865  0.33113465  1  -0.034659  0.000541  -0.101806  -0.107942  0.000262  4.044866  0.0
C  C123  1  0.27408364  0.47685747  0.26722888  1  -0.074409  0.001585  -0.086747  -0.077653  0.000754  3.995836  0.001
C  C124  1  0.37208300  0.49591575  0.24980740  1  0.003676  0.00991  -0.021065  -0.132762  0.00546  3.904021  0.008
C  C125  1  0.39685229  0.55632260  0.17835193  1  1.539317  0.005328  0.219609  0.607869  0.00427  4.136606  0.003
C  C126  1  0.85422423  0.30137147  0.52172686  1  1.53668  0.007101  0.227468  0.602592  0.005589  4.122729  0.006
C  C127  1  0.84699896  0.40269000  0.48762629  1  -0.028948  0.005503  -0.018796  -0.139646  0.002813  3.914976  0.004
C  C128  1  0.94752528  0.41923978  0.46521033  1  -0.023606  0.002223  -0.080029  -0.068976  0.001134  3.982824  0.001
C  C129  1  0.94952092  0.50968583  0.42904330  1  -0.028363  0.000296  -0.100637  -0.109818  7.7e-05  4.03819  0.0
C  C130  1  0.85036892  0.58458893  0.41255853  1  -0.028801  0.001914  -0.090725  -0.059053  0.001003  4.044521  0.001
C  C131  1  0.74949174  0.57064021  0.43331381  1  -0.063923  -0.000298  -0.101307  -0.190657  -0.000384  3.957759  0.0
C  C132  1  0.74590724  0.48044968  0.47209818  1  0.371785  0.001521  0.116314  0.254863  0.000745  3.969021  0.001
C  C133  1  0.54495446  0.52282476  0.47956610  1  1.442899  7.3e-05  0.242996  0.394246  5.1e-05  4.126271  0.0
C  C134  1  0.27030666  0.31810299  0.01871916  1  0.482461  0.003706  0.060536  0.112558  0.002423  3.900142  0.003
C  C135  1  0.16141432  0.32501711  0.02802035  1  -0.035926  0.00227  -0.075573  -0.16291  0.000563  3.913725  0.002
C  C136  1  0.12175762  0.34427734  0.96599958  1  -0.030185  -9.2e-05  0.013402  0.099697  -0.000743  3.971621  0.0
C  C137  1  0.19991728  0.34820490  0.89619213  1  -0.0003  0.002311  -0.076151  -0.161022  0.000933  3.927166  0.002
C  C138  1  0.30783699  0.33986328  0.89094396  1  0.479768  0.002351  0.061457  0.122803  0.001293  3.92648  0.002
C  C139  1  0.00213656  0.36407892  0.97330474  1  -0.056267  -0.003429  0.011464  0.097936  -0.004055  3.979893  -0.002
C  C140  1  0.97161054  0.35626409  0.91325540  1  -0.040318  0.003535  -0.082151  -0.179877  0.001678  3.965356  0.003
C  C141  1  0.85785271  0.37903380  0.92066560  1  0.503938  -0.001497  0.052702  0.104173  -0.002361  3.935723  -0.001
C  C142  1  0.80031329  0.41715012  0.04224643  1  0.423402  -0.000504  0.056685  0.104644  -0.001556  3.921042  0.0
C  C143  1  0.91255574  0.39513258  0.03928046  1  0.02522  0.003083  -0.078438  -0.164349  0.001547  3.91275  0.003
C  C144  1  0.55287227  0.29843869  0.12966227  1  1.532077  0.001459  0.210397  0.579868  0.000757  4.170676  -0.001
C  C145  1  0.59866799  0.22907900  0.19102621  1  0.021213  0.008736  -0.018465  -0.129754  0.004796  3.906623  0.007
C  C146  1  0.67845636  0.24237375  0.21298436  1  0.010623  0.001013  -0.086239  -0.079471  0.000567  3.987741  0.001
C  C147  1  0.72583266  0.17981722  0.26830208  1  -0.063465  6e-05  -0.095423  -0.094002  -4.1e-05  4.007828  0.0
C  C148  1  0.69532508  0.09985614  0.30131400  1  -0.068703  0.000617  -0.092319  -0.067272  0.000304  4.038861  0.0
C  C149  1  0.61690388  0.08367177  0.28057009  1  -0.032118  0.000417  -0.106289  -0.201478  0.000227  3.985899  0.0
C  C150  1  0.56724575  0.14794782  0.22572192  1  0.337161  0.001659  0.108763  0.242306  0.000753  3.96852  0.001
C  C151  1  0.43406676  0.07327199  0.23308143  1  1.399795  5.6e-05  0.239559  0.387884  2.3e-05  4.119741  0.0
C  C152  1  0.35741985  0.08167309  0.18749515  1  1.424096  -5.5e-05  0.241093  0.379786  -8.7e-05  4.117492  0.0
C  C153  1  0.19198078  0.04290711  0.20470911  1  0.374106  0.001215  0.111794  0.247498  0.000597  3.944349  0.001
C  C154  1  0.17025925  0.09342377  0.13761761  1  0.011879  0.000472  -0.100579  -0.186181  0.000241  3.955364  0.0
C  C155  1  0.07171143  0.10839386  0.12181992  1  -0.087026  0.000298  -0.089531  -0.052792  0.000147  4.026168  0.0
C  C156  1  0.99237301  0.07358754  0.17238305  1  -0.064502  0.000799  -0.102826  -0.110517  0.000378  4.046254  0.001
C  C157  1  0.01400146  0.02250760  0.23820849  1  0.006296  0.000936  -0.084487  -0.072832  0.000295  3.993273  0.001
C  C158  1  0.11288414  0.00513548  0.25591908  1  -0.020135  0.011569  -0.019308  -0.131871  0.006411  3.900975  0.009
C  C159  1  0.12342602  0.95109623  0.32961852  1  1.542919  0.00235  0.223887  0.614475  0.001568  4.118218  0.0
C  C160  1  0.67700230  0.19720076  0.97815999  1  1.525255  0.006491  0.222383  0.601854  0.005001  4.143317  0.004
C  C161  1  0.73628386  0.09551545  0.01212126  1  -0.003745  0.008769  -0.020556  -0.141064  0.004751  3.913579  0.006
C  C162  1  0.83147770  0.07838962  0.03421109  1  -0.007991  0.001769  -0.080817  -0.069998  0.000914  3.983797  0.001
C  C163  1  0.88713941  0.98811328  0.07084403  1  -0.027102  0.000512  -0.101381  -0.111398  0.000215  4.038854  0.0
C  C164  1  0.84521904  0.91397823  0.08804737  1  -0.105601  0.001072  -0.091448  -0.059472  0.000553  4.047529  0.001
C  C165  1  0.75095374  0.92825289  0.06730482  1  -0.011618  0.000147  -0.100751  -0.188947  -7e-06  3.956325  0.0
C  C166  1  0.69660254  0.01830642  0.02806785  1  0.388426  0.001494  0.117323  0.256125  0.000706  3.965841  0.001
C  C167  1  0.54603700  0.97613888  0.01963547  1  1.441294  9.3e-05  0.244695  0.397316  7.5e-05  4.119674  0.0
C  C168  1  0.39349388  0.81762594  0.51817734  1  0.464007  0.003699  0.061428  0.116761  0.002412  3.898287  0.003
C  C169  1  0.48629627  0.82433106  0.52746312  1  -0.001281  0.002214  -0.075104  -0.160998  0.00053  3.911726  0.002
C  C170  1  0.56852794  0.84361875  0.46541569  1  -0.054423  -0.000144  0.012206  0.094763  -0.000782  3.972528  0.0
C  C171  1  0.55606630  0.84753296  0.39562085  1  -0.002872  0.002322  -0.076041  -0.159575  0.000938  3.923301  0.002
C  C172  1  0.46160671  0.83938490  0.39039220  1  0.494311  0.002307  0.062908  0.126694  0.001267  3.927366  0.002
C  C173  1  0.66095359  0.86355972  0.47269496  1  0.009655  -0.003392  0.011732  0.099093  -0.004018  3.978704  -0.002
C  C174  1  0.75930841  0.85569219  0.41269534  1  -0.025462  0.003521  -0.08111  -0.176485  0.001665  3.964664  0.003
C  C175  1  0.84258422  0.87883022  0.42014698  1  0.511781  -0.001494  0.052184  0.101996  -0.002337  3.937875  -0.001
C  C176  1  0.74026897  0.91727845  0.54164245  1  0.490446  -0.000551  0.055614  0.103091  -0.001527  3.920458  0.0
C  C177  1  0.65330894  0.89488950  0.53864896  1  -0.070758  0.003092  -0.078819  -0.165465  0.001527  3.909645  0.003
C  C178  1  0.01876694  0.79837541  0.62935039  1  1.552599  0.00135  0.21026  0.580239  0.000718  4.161881  -0.001
C  C179  1  0.98094871  0.72907680  0.69066098  1  0.03542  0.00876  -0.01981  -0.132528  0.0048  3.907949  0.007
C  C180  1  0.86590904  0.74254391  0.71249554  1  -0.07737  0.001019  -0.086035  -0.078884  0.00056  3.985494  0.001
C  C181  1  0.82579519  0.67999267  0.76773131  1  -0.032397  5.8e-05  -0.095114  -0.093117  -4e-05  4.00538  0.0
C  C182  1  0.90324075  0.59989291  0.80074774  1  -0.061004  0.000607  -0.092344  -0.068404  0.000299  4.041777  0.0
C  C183  1  0.01861926  0.58351142  0.78010975  1  -0.049231  0.000419  -0.106072  -0.199418  0.000228  3.983891  0.0
C  C184  1  0.05879145  0.64784755  0.72540280  1  0.340326  0.001639  0.108068  0.24113  0.000747  3.965095  0.001
C  C185  1  0.25937738  0.57279658  0.73276802  1  1.418444  5.4e-05  0.239517  0.387528  2.3e-05  4.124816  0.0
C  C186  1  0.37307321  0.58142821  0.68742332  1  1.420878  -5e-05  0.241898  0.382524  -8.2e-05  4.116683  0.0
C  C187  1  0.56005856  0.54246108  0.70482627  1  0.315628  0.001251  0.112065  0.24984  0.0006  3.938539  0.001
C  C188  1  0.59837313  0.59297074  0.63776994  1  -0.001374  0.000468  -0.10085  -0.187341  0.000238  3.954053  0.0
C  C189  1  0.69788202  0.60766941  0.62201679  1  -0.034411  0.000302  -0.090598  -0.054941  0.000153  4.028824  0.0
C  C190  1  0.76157474  0.57260728  0.67260634  1  -0.083877  0.000806  -0.102023  -0.106191  0.000379  4.044577  0.001
C  C191  1  0.72513114  0.52158406  0.73839518  1  -0.073003  0.000978  -0.085073  -0.075669  0.000298  3.992822  0.001
C  C192  1  0.62578392  0.50449923  0.75608314  1  0.046171  0.011528  -0.01959  -0.13127  0.006379  3.899175  0.009
C  C193  1  0.59557195  0.45048303  0.82976392  1  1.562352  0.002277  0.225957  0.616955  0.001615  4.117338  0.001
C  C194  1  0.14748152  0.69756687  0.47790919  1  1.532186  0.006538  0.223221  0.604102  0.005014  4.143491  0.004
C  C195  1  0.15589034  0.59594810  0.51191096  1  -0.002148  0.008791  -0.020615  -0.142147  0.004756  3.910277  0.006
C  C196  1  0.05575395  0.57889055  0.53382264  1  -0.090199  0.001791  -0.080288  -0.067888  0.000916  3.979049  0.001
C  C197  1  0.05371790  0.48875035  0.57061976  1  0.026019  0.000501  -0.101263  -0.111264  0.000212  4.040916  0.0
C  C198  1  0.15238901  0.41477456  0.58823153  1  -0.044507  0.001056  -0.090877  -0.057665  0.000547  4.04732  0.001
C  C199  1  0.25312462  0.42891622  0.56754581  1  0.005458  0.000136  -0.101232  -0.190207  -8e-06  3.956705  0.0
C  C200  1  0.25677857  0.51874850  0.52803714  1  0.338417  0.001496  0.117343  0.256717  0.000697  3.965521  0.001
C  C201  1  0.45805666  0.47629765  0.51955710  1  1.449292  9.6e-05  0.243808  0.39676  7.5e-05  4.122359  0.0
C  C202  1  0.73089751  0.67301009  0.98139261  1  0.498597  0.004368  0.063176  0.119309  0.002718  3.892418  0.003
C  C203  1  0.84000064  0.66661436  0.97139446  1  -0.07179  0.001648  -0.07589  -0.163399  0.000179  3.90615  0.002
C  C204  1  0.87954783  0.65142758  0.03295098  1  -0.014593  0.000711  0.014097  0.098754  -9.6e-05  3.961031  0.001
C  C205  1  0.80063069  0.65018439  0.10298392  1  -0.0157  0.001144  -0.074607  -0.157894  -0.000217  3.919289  0.002
C  C206  1  0.69266438  0.65765086  0.10899991  1  0.494913  0.004153  0.061866  0.12207  0.002684  3.923459  0.003
C  C207  1  0.99880975  0.63448801  0.02519037  1  -0.042469  -0.006215  0.011465  0.095057  -0.007056  3.971781  -0.004
C  C208  1  0.02814179  0.64673642  0.08434296  1  -0.074425  0.001739  -0.079611  -0.173751  0.00047  3.966719  0.001
C  C209  1  0.14066272  0.62862898  0.07673353  1  0.507965  -0.00392  0.054702  0.091974  -0.004438  3.910646  -0.002
C  C210  1  0.20084414  0.58507709  0.95600798  1  0.432253  -0.004006  0.059608  0.103814  -0.004675  3.888868  -0.002
C  C211  1  0.08953316  0.60280378  0.95971943  1  0.005238  0.000547  -0.077047  -0.164008  -0.000188  3.908966  0.001
C  C212  1  0.44098680  0.70452365  0.86706837  1  1.564258  0.000999  0.204975  0.571823  0.000402  4.184816  -0.001
C  C213  1  0.39741235  0.77493829  0.80502167  1  0.002869  0.010843  -0.019692  -0.129002  0.005931  3.906574  0.008
C  C214  1  0.31773579  0.76364924  0.78163910  1  -0.089112  0.000502  -0.088443  -0.083096  9.9e-05  3.996658  0.0
C  C215  1  0.27299078  0.82678808  0.72548023  1  -0.008811  0.000227  -0.097298  -0.095338  6.9e-05  4.008813  0.0
C  C216  1  0.30610808  0.90544229  0.69304200  1  -0.081149  2.5e-05  -0.093919  -0.068137  -0.000111  4.04488  0.0
C  C217  1  0.38436425  0.91983857  0.71533265  1  -0.017179  0.000665  -0.108708  -0.204068  0.000375  3.987563  0.0
C  C218  1  0.43121403  0.85493174  0.77107699  1  0.33009  0.001404  0.106912  0.241763  0.000485  3.965833  0.001
C  C219  1  0.56490078  0.92687964  0.76753936  1  1.414375  -5.2e-05  0.239141  0.388407  -7.6e-05  4.122827  0.0
C  C220  1  0.64062362  0.91638383  0.81455041  1  1.427358  5.3e-05  0.240053  0.378033  3.1e-05  4.123247  0.0
C  C221  1  0.80623761  0.95397098  0.79939306  1  0.386135  0.001573  0.110242  0.24496  0.000781  3.948801  0.001
C  C222  1  0.83032822  0.89888240  0.86488715  1  -0.083083  0.000262  -0.101487  -0.187882  9.9e-05  3.957374  0.0
C  C223  1  0.92990645  0.88191149  0.88029002  1  -0.051465  0.000885  -0.091193  -0.054305  0.000462  4.029826  0.0
C  C224  1  0.00774252  0.91937334  0.83104979  1  -0.117442  0.000558  -0.103606  -0.111024  0.000262  4.042352  0.0
C  C225  1  0.98316238  0.97574853  0.76720138  1  0.013823  0.001553  -0.086218  -0.076821  0.000749  3.994289  0.001
C  C226  1  0.88325801  0.99514434  0.74989979  1  0.00231  0.010037  -0.02069  -0.131798  0.005526  3.902572  0.008
C  C227  1  0.86937228  0.05563701  0.67843353  1  1.539915  0.005496  0.219429  0.608122  0.004335  4.133668  0.003
C  C228  1  0.32255333  0.80188564  0.02132968  1  1.52894  0.007089  0.230537  0.60786  0.005568  4.118473  0.006
C  C229  1  0.26249999  0.90328094  0.98726857  1  -0.003463  0.005428  -0.018708  -0.138816  0.002789  3.91264  0.004
C  C230  1  0.16782264  0.91996243  0.96477580  1  -0.052044  0.002263  -0.080743  -0.072126  0.001139  3.983226  0.001
C  C231  1  0.11146385  0.01047415  0.92864323  1  -0.022545  0.000294  -0.099711  -0.107801  7.4e-05  4.036089  0.0
C  C232  1  0.15224507  0.08529765  0.91220237  1  -0.03229  0.001934  -0.090477  -0.05748  0.001013  4.045714  0.001
C  C233  1  0.24638303  0.07120566  0.93300786  1  -0.041491  -0.000302  -0.101747  -0.193074  -0.000389  3.959435  0.0
C  C234  1  0.30136688  0.98096745  0.97181278  1  0.392102  0.001532  0.116092  0.254783  0.000753  3.968217  0.001
C  C235  1  0.45250753  0.02294877  0.97959664  1  1.443988  7.2e-05  0.242466  0.392866  5.3e-05  4.128688  0.0
N  N236  1  0.62564087  0.16569025  0.54984245  1  -1.241208  0.071943  -0.331998  -0.265095  0.037922  3.62095  0.046
N  N237  1  0.16203197  0.09759677  0.51405630  1  -1.185207  -0.001235  -0.318167  -0.19103  -0.002782  3.566962  -0.003
N  N238  1  0.82843875  0.36800359  0.29708000  1  -1.31941  0.001026  -0.38683  -0.348921  0.000478  3.636291  0.001
N  N239  1  0.54436771  0.46467743  0.28064395  1  -1.284897  0.002208  -0.386462  -0.341052  0.001053  3.617163  0.002
N  N240  1  0.64558757  0.46583354  0.49582409  1  -1.282945  0.002929  -0.391121  -0.350546  0.001358  3.657689  0.002
N  N241  1  0.34135969  0.32858763  0.95117729  1  -1.240364  0.074261  -0.336676  -0.259971  0.039751  3.629764  0.051
N  N242  1  0.77261090  0.41000484  0.98393368  1  -1.20349  0.056932  -0.317219  -0.234697  0.031872  3.523855  0.046
N  N243  1  0.49072267  0.13286629  0.20191262  1  -1.309614  0.001047  -0.38667  -0.345049  0.000477  3.635777  0.001
N  N244  1  0.28653853  0.03446847  0.22297838  1  -1.297758  0.001865  -0.385266  -0.33973  0.000919  3.613366  0.001
N  N245  1  0.60542429  0.03338598  0.00407077  1  -1.304265  0.00297  -0.391277  -0.349784  0.001403  3.647445  0.002
N  N246  1  0.37920687  0.82829010  0.45065731  1  -1.237214  0.073973  -0.337961  -0.265701  0.039699  3.637792  0.051
N  N247  1  0.83338891  0.91010936  0.48338081  1  -1.195118  0.05691  -0.316532  -0.233661  0.031886  3.526955  0.046
N  N248  1  0.17415664  0.63276512  0.70172618  1  -1.318987  0.001045  -0.386928  -0.34679  0.000476  3.638056  0.001
N  N249  1  0.45567767  0.53411837  0.72297864  1  -1.284522  0.001882  -0.385072  -0.34291  0.000928  3.614202  0.001
N  N250  1  0.35695050  0.53363658  0.50395445  1  -1.313364  0.002976  -0.391349  -0.350754  0.001406  3.647691  0.002
N  N251  1  0.65891718  0.66564420  0.04939198  1  -1.234898  0.072112  -0.332939  -0.265529  0.038025  3.622386  0.046
N  N252  1  0.22653245  0.59771195  0.01349542  1  -1.185311  -0.001237  -0.319357  -0.193354  -0.002819  3.567665  -0.003
N  N253  1  0.50723600  0.86797528  0.79682394  1  -1.31067  0.00102  -0.388216  -0.351388  0.000476  3.63623  0.001
N  N254  1  0.71131027  0.96414678  0.78074073  1  -1.289961  0.002184  -0.386253  -0.340463  0.001042  3.619923  0.002
N  N255  1  0.39258142  0.96611860  0.99567497  1  -1.284538  0.002932  -0.391516  -0.350198  0.001354  3.657991  0.002
O  O256  1  0.10287427  0.95071944  0.49643742  1  -0.895878  0.485849  -0.496615  -0.794048  0.26361  2.328242  0.412
O  O257  1  0.06859652  0.13578598  0.39341577  1  -1.132412  0.110372  -0.305014  -0.551677  0.056945  2.31154  0.097
O  O258  1  0.88288460  0.21767921  0.39131211  1  -1.151268  0.022846  -0.30342  -0.521669  0.011222  2.18862  0.02
O  O259  1  0.47894992  0.58605091  0.16408857  1  -1.13603  0.113826  -0.317538  -0.565  0.058545  2.320007  0.093
O  O260  1  0.33598349  0.57717035  0.13609218  1  -1.169427  0.06258  -0.290667  -0.552413  0.032659  2.278065  0.052
O  O261  1  0.62388559  0.36600197  0.37447879  1  -1.137057  0.000568  -0.274753  -0.447501  0.00022  2.219053  0.0
O  O262  1  0.74585511  0.48268370  0.20950659  1  -1.162853  0.000173  -0.292732  -0.484886  -4.4e-05  2.209946  0.0
O  O263  1  0.76068821  0.28734180  0.55092535  1  -1.122043  0.10484  -0.301111  -0.526884  0.054288  2.394135  0.079
O  O264  1  0.95399786  0.23297079  0.51927253  1  -1.137354  0.026876  -0.290166  -0.544883  0.014188  2.471072  0.021
O  O265  1  0.52089518  0.60129299  0.43893357  1  -1.148968  0.001523  -0.286871  -0.450157  0.000555  2.15139  0.001
O  O266  1  0.52326052  0.56239834  0.00921615  1  -0.87314  0.475386  -0.486215  -0.774236  0.256278  2.310649  0.407
O  O267  1  0.58971040  0.36825990  0.10277303  1  -1.127086  0.116691  -0.310984  -0.554326  0.061174  2.333192  0.1
O  O268  1  0.48564857  0.28406841  0.10651897  1  -1.153056  0.024856  -0.296485  -0.52098  0.012201  2.197027  0.021
O  O269  1  0.22234487  0.91617265  0.34268464  1  -1.134163  0.113636  -0.311463  -0.556208  0.058721  2.322357  0.095
O  O270  1  0.03536708  0.94086421  0.37458543  1  -1.163949  0.067304  -0.290639  -0.55423  0.035801  2.357379  0.058
O  O271  1  0.36191931  0.13009233  0.12660124  1  -1.142033  0.000405  -0.27257  -0.444843  0.000123  2.225118  0.0
O  O272  1  0.43704543  0.01927267  0.29187082  1  -1.15789  0.00036  -0.290897  -0.483565  7.8e-05  2.209563  0.0
O  O273  1  0.59252222  0.21453678  0.95336019  1  -1.126942  0.110557  -0.304561  -0.534066  0.057735  2.399615  0.085
O  O274  1  0.70966768  0.26441652  0.97658924  1  -1.15275  0.074007  -0.299133  -0.566106  0.039433  2.418686  0.062
O  O275  1  0.56034010  0.89719953  0.05975463  1  -1.146935  0.001436  -0.288705  -0.453396  0.000524  2.148925  0.001
O  O276  1  0.90502429  0.06239408  0.50934092  1  -0.870722  0.475886  -0.486644  -0.774312  0.256346  2.311151  0.408
O  O277  1  0.93903150  0.86823819  0.60239166  1  -1.129746  0.116374  -0.310736  -0.553885  0.060907  2.329243  0.099
O  O278  1  0.12352155  0.78387414  0.60632323  1  -1.154939  0.024666  -0.296419  -0.52026  0.01212  2.192811  0.02
O  O279  1  0.51828379  0.41589069  0.84277601  1  -1.136388  0.113637  -0.311915  -0.557288  0.058774  2.323525  0.095
O  O280  1  0.64904993  0.43998070  0.87476677  1  -1.159714  0.066865  -0.29199  -0.556635  0.035607  2.35505  0.057
O  O281  1  0.38096463  0.63012357  0.62664605  1  -1.139974  0.000413  -0.273672  -0.446414  0.000127  2.222977  0.0
O  O282  1  0.25182279  0.51827247  0.79129126  1  -1.160199  0.000365  -0.290931  -0.483336  8.2e-05  2.211827  0.0
O  O283  1  0.23933851  0.71491623  0.45334245  1  -1.124384  0.110527  -0.305484  -0.535925  0.057723  2.401876  0.085
O  O284  1  0.04923398  0.76477152  0.47606671  1  -1.156751  0.074029  -0.299454  -0.566868  0.039526  2.41974  0.063
O  O285  1  0.48259773  0.39737873  0.55971387  1  -1.149204  0.001431  -0.287637  -0.452778  0.00052  2.150992  0.001
O  O286  1  0.44977243  0.45077924  0.99640854  1  -0.896995  0.485729  -0.496786  -0.795478  0.263767  2.328166  0.412
O  O287  1  0.40238218  0.63617828  0.89286991  1  -1.123071  0.110175  -0.303335  -0.54939  0.056871  2.309673  0.097
O  O288  1  0.50841755  0.71781249  0.89095972  1  -1.150566  0.022724  -0.303004  -0.521355  0.011166  2.190069  0.019
O  O289  1  0.77169077  0.08570405  0.66419282  1  -1.133442  0.113963  -0.317177  -0.564247  0.058621  2.319792  0.093
O  O290  1  0.95175113  0.07620858  0.63616190  1  -1.168949  0.062625  -0.290894  -0.553654  0.032794  2.280121  0.052
O  O291  1  0.63602389  0.86613677  0.87471368  1  -1.134833  0.000562  -0.274254  -0.445596  0.000216  2.219885  0.0
O  O292  1  0.56378483  0.98180029  0.70903473  1  -1.164231  0.000165  -0.293755  -0.485589  -5e-05  2.209384  0.0
O  O293  1  0.40075325  0.78781377  0.05077332  1  -1.126684  0.104567  -0.301998  -0.529105  0.054217  2.395447  0.078
O  O294  1  0.29383159  0.73349871  0.01861127  1  -1.125969  0.02681  -0.291803  -0.547459  0.014141  2.464642  0.021
O  O295  1  0.43871744  0.10148295  0.93904964  1  -1.145954  0.001524  -0.28712  -0.45043  0.000556  2.152793  0.001
