# generated using pymatgen
data_CuH4C6N2(ClO2)2
_symmetry_space_group_name_H-M   'P 1'
_cell_length_a   6.51005608
_cell_length_b   6.51005895
_cell_length_c   13.73954086
_cell_angle_alpha   86.79851156
_cell_angle_beta   86.79931185
_cell_angle_gamma   62.07954987
_symmetry_Int_Tables_number   1
_chemical_formula_structural   CuH4C6N2(ClO2)2
_chemical_formula_sum   'Cu2 H8 C12 N4 Cl4 O8'
_cell_volume   513.41976215
_cell_formula_units_Z   2
loop_
 _symmetry_equiv_pos_site_id
 _symmetry_equiv_pos_as_xyz
  1  'x, y, z'
loop_
 _atom_site_type_symbol
 _atom_site_label
 _atom_site_symmetry_multiplicity
 _atom_site_fract_x
 _atom_site_fract_y
 _atom_site_fract_z
 _atom_site_occupancy
 _atom_site_hle17_ddec_charge
 _atom_site_hle17_ddec_spin_density
 _atom_site_hle17_ddec_sum_bond_order
 _atom_site_hle17_magmom
 _atom_site_hse06_10hf_ddec_charge
 _atom_site_hse06_10hf_ddec_spin_density
 _atom_site_hse06_10hf_ddec_sum_bond_order
 _atom_site_hse06_10hf_magmom
 _atom_site_hse06_ddec_charge
 _atom_site_hse06_ddec_spin_density
 _atom_site_hse06_ddec_sum_bond_order
 _atom_site_hse06_magmom
 _atom_site_pbe_cm5_charge
 _atom_site_pbe_ddec_charge
 _atom_site_pbe_ddec_spin_density
 _atom_site_pbe_ddec_sum_bond_order
 _atom_site_pbe_magmom
Cu  Cu0  1  0.10298143  0.89703061  0.74999753  1  0.752004  -0.650056  1.948324  -0.456  0.735691  -0.745351  2.338797  -0.57  0.817607  -0.826806  2.274987  -0.656  0.647361  0.69191  -0.689281  2.378483  -0.516
Cu  Cu1  1  0.89701221  0.10298843  0.24999598  1  0.752059  0.65006  1.948282  0.456  0.735723  0.745346  2.33878  0.57  0.817649  0.826793  2.274978  0.656  0.647414  0.692037  0.689279  2.378395  0.516
H  H2  1  0.34619203  0.51946431  0.89525832  1  0.133214  -0.001641  0.903972  -0.002  0.136655  -0.001626  0.966699  -0.002  0.139739  -0.001226  0.96273  -0.002  0.140028  0.134096  -0.001923  0.9701  -0.002
H  H3  1  0.48052964  0.65382057  0.60474356  1  0.133232  -0.001643  0.903827  -0.002  0.13675  -0.001628  0.966499  -0.002  0.139836  -0.001228  0.962521  -0.002  0.140057  0.134193  -0.001925  0.969883  -0.002
H  H4  1  0.65382595  0.48053468  0.10474739  1  0.133252  0.001647  0.903899  0.002  0.136762  0.001628  0.966558  0.002  0.139849  0.001228  0.962581  0.002  0.140074  0.134206  0.001925  0.969926  0.002
H  H5  1  0.51945142  0.34618244  0.39524829  1  0.133269  0.001645  0.903988  0.002  0.136758  0.001626  0.966675  0.002  0.13984  0.001226  0.9627  0.002  0.140102  0.134193  0.001923  0.970079  0.002
H  H6  1  0.66413389  0.06842135  0.05499540  1  0.38308  -0.000444  0.900376  0.0  0.354998  -5.8e-05  0.983377  0.0  0.368009  -6.3e-05  0.969684  0.0  0.268938  0.345904  -5.7e-05  0.992813  0.0
H  H7  1  0.93156947  0.33585472  0.44500787  1  0.38323  -0.000444  0.900295  0.0  0.355151  -5.8e-05  0.983275  0.0  0.368161  -6.3e-05  0.969578  0.0  0.268979  0.34606  -5.7e-05  0.992716  0.0
H  H8  1  0.33587861  0.93156838  0.94500221  1  0.383253  0.000445  0.900274  0.0  0.35515  5.8e-05  0.983301  0.0  0.368162  6.3e-05  0.969607  0.0  0.268991  0.346055  5.7e-05  0.992751  0.0
H  H9  1  0.06843771  0.66412487  0.55499843  1  0.383059  0.000443  0.900412  0.0  0.35498  5.8e-05  0.983404  0.0  0.367992  6.3e-05  0.969711  0.0  0.268915  0.345884  5.7e-05  0.99285  0.0
C  C10  1  0.46029964  0.46522634  0.83056633  1  0.136954  -0.000518  3.544962  0.001  0.095432  -0.002808  3.799421  -0.001  0.107391  -0.001087  3.808397  0.0  0.085243  0.087387  -0.004341  3.794957  -0.003
C  C11  1  0.53478320  0.53969754  0.66943977  1  0.136963  -0.000515  3.545171  0.001  0.095354  -0.002808  3.799672  -0.001  0.107307  -0.001088  3.808657  0.0  0.085282  0.087337  -0.004341  3.795203  -0.003
C  C12  1  0.53969647  0.53478280  0.16943843  1  0.136802  0.000445  3.545473  -0.001  0.095303  0.002806  3.799927  0.001  0.10724  0.001085  3.808902  0.0  0.085231  0.087286  0.004338  3.79546  0.003
C  C13  1  0.46522530  0.46030104  0.33056054  1  0.136915  0.00044  3.544755  -0.001  0.095328  0.002808  3.79931  0.001  0.107301  0.001086  3.808272  0.0  0.085173  0.087277  0.004342  3.794833  0.003
C  C14  1  0.66837905  0.25698884  0.83042372  1  0.084097  -0.004967  3.661927  -0.004  0.090402  -0.004794  3.900035  -0.003  0.089094  -0.002985  3.914874  -0.002  0.135049  0.090469  -0.006513  3.891594  -0.005
C  C15  1  0.74300151  0.33163251  0.66957861  1  0.083975  -0.004973  3.662138  -0.004  0.090278  -0.004795  3.900296  -0.003  0.088978  -0.002988  3.915128  -0.002  0.134953  0.090309  -0.006515  3.891899  -0.005
C  C16  1  0.33162566  0.74299236  0.16958043  1  0.084046  0.005031  3.661851  0.004  0.090271  0.004797  3.900051  0.003  0.089016  0.002991  3.914824  0.002  0.134985  0.09031  0.006516  3.89165  0.005
C  C17  1  0.25700569  0.66837096  0.33041499  1  0.083796  0.005031  3.662413  0.004  0.090138  0.004794  3.900486  0.003  0.088825  0.002988  3.915334  0.002  0.134957  0.090257  0.006512  3.891968  0.005
C  C18  1  0.74731723  0.09179329  0.91763334  1  0.640596  -0.001773  3.816169  -0.002  0.590125  -0.001848  4.114384  -0.002  0.62428  -0.001426  4.104598  -0.002  0.237909  0.567147  -0.002207  4.120842  -0.002
C  C19  1  0.90820147  0.25268389  0.58236687  1  0.640533  -0.001774  3.815781  -0.002  0.590034  -0.001848  4.114051  -0.002  0.624185  -0.001426  4.104265  -0.002  0.237931  0.567066  -0.002207  4.120519  -0.002
C  C20  1  0.25267871  0.90819651  0.08237009  1  0.640574  0.001766  3.816136  0.002  0.590159  0.001848  4.1143  0.002  0.624299  0.001425  4.104513  0.002  0.237946  0.567177  0.002207  4.120781  0.002
C  C21  1  0.09178700  0.74731430  0.41763141  1  0.64059  0.00177  3.816159  0.002  0.590149  0.00185  4.114301  0.002  0.624304  0.001427  4.10452  0.002  0.237942  0.567159  0.002209  4.120765  0.002
N  N22  1  0.39634180  0.60366253  0.74999544  1  -0.224976  -0.067229  3.340086  -0.084  -0.174761  -0.052712  3.637392  -0.069  -0.199612  -0.044391  3.652683  -0.061  -0.329286  -0.161652  -0.058035  3.629751  -0.074
N  N23  1  0.60366504  0.39633695  0.24998887  1  -0.22481  0.067298  3.339843  0.084  -0.174697  0.052717  3.637266  0.069  -0.199554  0.0444  3.652564  0.061  -0.329267  -0.161613  0.058041  3.629642  0.074
N  N24  1  0.80626871  0.19374337  0.75000278  1  -0.2369  -0.059505  3.379589  -0.074  -0.197242  -0.04858  3.639142  -0.063  -0.215408  -0.040934  3.661266  -0.056  -0.311826  -0.187967  -0.053761  3.627082  -0.068
N  N25  1  0.19372930  0.80626253  0.25000641  1  -0.236835  0.059434  3.37963  0.074  -0.197153  0.048566  3.63917  0.063  -0.215331  0.040921  3.661289  0.056  -0.311832  -0.187911  0.053744  3.627101  0.068
Cl  Cl26  1  0.91287046  0.71746447  0.68303836  1  -0.48264  -0.126608  0.964919  -0.146  -0.489522  -0.083301  1.220967  -0.101  -0.523896  -0.066033  1.204087  -0.084  -0.277759  -0.467358  -0.092856  1.232289  -0.109
Cl  Cl27  1  0.28253226  0.08715021  0.81695983  1  -0.482637  -0.126618  0.964938  -0.146  -0.489482  -0.083304  1.220978  -0.101  -0.523863  -0.066035  1.204103  -0.084  -0.277717  -0.467328  -0.09286  1.232316  -0.109
Cl  Cl28  1  0.08713099  0.28253566  0.31696000  1  -0.482705  0.126617  0.964913  0.146  -0.48957  0.083308  1.220945  0.101  -0.523956  0.06604  1.204066  0.084  -0.277789  -0.467446  0.09286  1.232279  0.109
Cl  Cl29  1  0.71745659  0.91286391  0.18304139  1  -0.482602  0.126619  0.964895  0.146  -0.489456  0.08331  1.220928  0.101  -0.523834  0.066041  1.204048  0.084  -0.277728  -0.467326  0.092867  1.232246  0.109
O  O30  1  0.92043053  0.90076295  0.91327702  1  -0.522242  -0.000696  1.975692  -0.002  -0.492801  0.000487  2.203869  0.0  -0.515624  0.00094  2.19344  0.001  -0.277086  -0.478042  -0.000198  2.211074  -0.001
O  O31  1  0.09923526  0.07957572  0.58672844  1  -0.522199  -0.000693  1.975682  -0.002  -0.492753  0.000486  2.203906  0.0  -0.515576  0.00094  2.193477  0.001  -0.277112  -0.477997  -0.000198  2.211115  -0.001
O  O32  1  0.07958628  0.09923744  0.08672212  1  -0.52219  0.000704  1.975826  0.002  -0.492759  -0.000488  2.203995  0.0  -0.515584  -0.000939  2.193575  -0.001  -0.277103  -0.478008  0.000198  2.211205  0.001
O  O33  1  0.90075765  0.92041769  0.41327788  1  -0.522231  0.000705  1.975885  0.002  -0.492813  -0.000488  2.204054  0.0  -0.515636  -0.000939  2.193628  -0.001  -0.277133  -0.478065  0.000198  2.211272  0.001
O  O34  1  0.60929339  0.17920108  0.99525076  1  -0.518094  -0.000594  2.13004  -0.001  -0.4671  -0.00061  2.340135  -0.001  -0.490251  -0.000452  2.325982  0.0  -0.315448  -0.450709  -0.000846  2.349204  -0.001
O  O35  1  0.82079191  0.39070735  0.50474317  1  -0.518174  -0.000594  2.129746  -0.001  -0.467166  -0.00061  2.339863  -0.001  -0.490318  -0.000452  2.32571  0.0  -0.315452  -0.45077  -0.000846  2.348935  -0.001
O  O36  1  0.39070521  0.82081840  0.00474980  1  -0.51825  0.000594  2.129983  0.001  -0.467293  0.000611  2.340141  0.001  -0.490446  0.000453  2.325978  0.0  -0.315516  -0.450895  0.000846  2.349221  0.001
O  O37  1  0.17919523  0.60929569  0.49524767  1  -0.518004  0.000594  2.130119  0.001  -0.467024  0.000611  2.340208  0.001  -0.490173  0.000452  2.326051  0.0  -0.315406  -0.450633  0.000846  2.349292  0.001
