# generated using pymatgen
data_ZnH20C22(NO)4
_symmetry_space_group_name_H-M   'P 1'
_cell_length_a   9.00982864
_cell_length_b   11.73923885
_cell_length_c   11.73926813
_cell_angle_alpha   89.91864676
_cell_angle_beta   111.53194728
_cell_angle_gamma   111.53159661
_symmetry_Int_Tables_number   1
_chemical_formula_structural   ZnH20C22(NO)4
_chemical_formula_sum   'Zn2 H40 C44 N8 O8'
_cell_volume   1061.57201988
_cell_formula_units_Z   2
loop_
 _symmetry_equiv_pos_site_id
 _symmetry_equiv_pos_as_xyz
  1  'x, y, z'
loop_
 _atom_site_type_symbol
 _atom_site_label
 _atom_site_symmetry_multiplicity
 _atom_site_fract_x
 _atom_site_fract_y
 _atom_site_fract_z
 _atom_site_occupancy
 _atom_site_hle17_bader_spin_density
 _atom_site_hle17_ddec_charge
 _atom_site_hle17_ddec_spin_density
 _atom_site_hle17_ddec_sum_bond_order
 _atom_site_hle17_magmom
 _atom_site_hse06_10hf_bader_spin_density
 _atom_site_hse06_10hf_ddec_charge
 _atom_site_hse06_10hf_ddec_spin_density
 _atom_site_hse06_10hf_ddec_sum_bond_order
 _atom_site_hse06_10hf_magmom
 _atom_site_hse06_bader_spin_density
 _atom_site_hse06_ddec_charge
 _atom_site_hse06_ddec_spin_density
 _atom_site_hse06_ddec_sum_bond_order
 _atom_site_hse06_magmom
 _atom_site_pbe_bader_spin_density
 _atom_site_pbe_cm5_charge
 _atom_site_pbe_ddec_charge
 _atom_site_pbe_ddec_spin_density
 _atom_site_pbe_ddec_sum_bond_order
 _atom_site_pbe_magmom
Zn  Zn0  1  0.24999733  0.42250353  0.57749875  1  0  1.001106  0  1.870637  0  0  0.809681  0  2.347267  0  0  0.857266  0  2.292232  0  0  0.689803  0.776471  0  2.385033  0
Zn  Zn1  1  0.74999827  0.57749732  0.42250428  1  0  1.001101  0  1.870631  0  0  0.809693  0  2.347265  0  0  0.85727  0  2.292229  0  0  0.689817  0.776482  0  2.38503  0
H  H2  1  0.61805816  0.59796321  0.75607176  1  0  0.103146  0  0.936799  0  0  0.113113  0  0.998151  0  0  0.115875  0  0.994503  0  0  0.143851  0.111001  0  1.000893  0
H  H3  1  0.88193975  0.24391931  0.40203504  1  0  0.103187  0  0.936681  0  0  0.113172  0  0.998029  0  0  0.115933  0  0.994384  0  0  0.143854  0.111082  0  1.000741  0
H  H4  1  0.38194250  0.40203396  0.24392499  1  0  0.103139  0  0.936792  0  0  0.113108  0  0.998148  0  0  0.115869  0  0.994501  0  0  0.143855  0.111008  0  1.000875  0
H  H5  1  0.11805799  0.75607693  0.59796342  1  0  0.103156  0  0.936727  0  0  0.113139  0  0.998073  0  0  0.115898  0  0.99443  0  0  0.14386  0.111068  0  1.000763  0
H  H6  1  0.24445694  0.69077226  0.47848850  1  0  0.114995  0  0.970037  0  0  0.122137  0  1.033085  0  0  0.125604  0  1.030892  0  0  0.117965  0.119544  0  1.034857  0
H  H7  1  0.25553995  0.52150849  0.30923335  1  0  0.115006  0  0.96999  0  0  0.122135  0  1.03304  0  0  0.125601  0  1.030846  0  0  0.117978  0.119514  0  1.034841  0
H  H8  1  0.75554623  0.30923137  0.52151159  1  0  0.115002  0  0.970046  0  0  0.12213  0  1.033116  0  0  0.125598  0  1.030922  0  0  0.117954  0.119553  0  1.034869  0
H  H9  1  0.74446710  0.47848943  0.69077118  1  0  0.115001  0  0.970084  0  0  0.122085  0  1.033168  0  0  0.12555  0  1.030975  0  0  0.117997  0.119477  0  1.034954  0
H  H10  1  0.55885898  0.89939026  0.57293156  1  0  0.113978  0  0.941589  0  0  0.130152  0  0.99078  0  0  0.132528  0  0.989997  0  0  0.12825  0.128417  0  0.99147  0
H  H11  1  0.94113669  0.42706825  0.10061307  1  0  0.113981  0  0.941536  0  0  0.130118  0  0.990771  0  0  0.132493  0  0.98999  0  0  0.128238  0.128385  0  0.991464  0
H  H12  1  0.44114614  0.10061053  0.42706990  1  0  0.113966  0  0.94155  0  0  0.130156  0  0.990734  0  0  0.13252  0  0.989965  0  0  0.128257  0.12842  0  0.991424  0
H  H13  1  0.05887067  0.57293438  0.89938904  1  0  0.113926  0  0.941577  0  0  0.130044  0  0.990836  0  0  0.13242  0  0.990054  0  0  0.128216  0.128312  0  0.991527  0
H  H14  1  0.81453309  0.75754513  0.91988140  1  0  0.098311  0  0.966965  0  0  0.109846  0  1.029516  0  0  0.112217  0  1.028752  0  0  0.106092  0.108139  0  1.030128  0
H  H15  1  0.68546675  0.08011300  0.24244814  1  0  0.098333  0  0.96698  0  0  0.10986  0  1.02954  0  0  0.112229  0  1.028777  0  0  0.1061  0.108151  0  1.03015  0
H  H16  1  0.18546929  0.24245295  0.08011584  1  0  0.098332  0  0.966976  0  0  0.109868  0  1.029523  0  0  0.112239  0  1.028757  0  0  0.106118  0.108161  0  1.030136  0
H  H17  1  0.31453975  0.91988602  0.75754688  1  0  0.098342  0  0.96697  0  0  0.109873  0  1.029524  0  0  0.112242  0  1.028759  0  0  0.106113  0.108164  0  1.030138  0
H  H18  1  0.11500534  0.89239008  0.05251545  1  0  0.087587  0  0.968309  0  0  0.100458  0  1.029032  0  0  0.102532  0  1.028598  0  0  0.100813  0.098955  0  1.02941  0
H  H19  1  0.38499072  0.94748378  0.10760516  1  0  0.087587  0  0.968278  0  0  0.10048  0  1.028981  0  0  0.102554  0  1.028551  0  0  0.100814  0.098978  0  1.029358  0
H  H20  1  0.88499582  0.10760796  0.94748485  1  0  0.087617  0  0.968271  0  0  0.100505  0  1.02898  0  0  0.102587  0  1.028529  0  0  0.100822  0.099003  0  1.029359  0
H  H21  1  0.61501631  0.05251614  0.89239086  1  0  0.087561  0  0.968277  0  0  0.100463  0  1.028965  0  0  0.102532  0  1.028543  0  0  0.100823  0.098961  0  1.029343  0
H  H22  1  0.15940563  0.09033259  0.74769067  1  0  0.111485  0  0.968181  0  0  0.121404  0  1.028059  0  0  0.124054  0  1.027472  0  0  0.104601  0.119401  0  1.028652  0
H  H23  1  0.34059174  0.25231672  0.90967684  1  0  0.111478  0  0.968206  0  0  0.121335  0  1.028167  0  0  0.12398  0  1.027592  0  0  0.104622  0.119387  0  1.028687  0
H  H24  1  0.84059646  0.90966916  0.25231079  1  0  0.111498  0  0.968165  0  0  0.121421  0  1.028045  0  0  0.124071  0  1.027459  0  0  0.104614  0.11943  0  1.028617  0
H  H25  1  0.65940608  0.74768592  0.09032939  1  0  0.111486  0  0.968223  0  0  0.121359  0  1.028151  0  0  0.124004  0  1.027574  0  0  0.104622  0.119385  0  1.028701  0
H  H26  1  0.86342694  0.95066251  0.61438600  1  0  0.123119  0  0.945454  0  0  0.133433  0  1.003425  0  0  0.137148  0  1.000941  0  0  0.110465  0.130732  0  1.005332  0
H  H27  1  0.63657273  0.38561582  0.04934423  1  0  0.123058  0  0.945621  0  0  0.133394  0  1.003567  0  0  0.137108  0  1.001083  0  0  0.110442  0.130696  0  1.005474  0
H  H28  1  0.13657767  0.04933738  0.38561360  1  0  0.123093  0  0.945496  0  0  0.133391  0  1.003481  0  0  0.137107  0  1.000995  0  0  0.110456  0.130688  0  1.005389  0
H  H29  1  0.36342445  0.61438780  0.95066012  1  0  0.123108  0  0.94554  0  0  0.133415  0  1.003516  0  0  0.137129  0  1.001032  0  0  0.110457  0.130711  0  1.00543  0
H  H30  1  0.45451077  0.09393518  0.69823770  1  0  0.120175  0  0.9651  0  0  0.140079  0  1.025461  0  0  0.142453  0  1.02417  0  0  0.088183  0.138403  0  1.026352  0
H  H31  1  0.04548227  0.30175980  0.90606172  1  0  0.120162  0  0.965124  0  0  0.140067  0  1.025469  0  0  0.142414  0  1.024209  0  0  0.088193  0.138391  0  1.026361  0
H  H32  1  0.54549093  0.90606380  0.30176191  1  0  0.120196  0  0.965118  0  0  0.140108  0  1.025457  0  0  0.142483  0  1.024167  0  0  0.088185  0.138431  0  1.026348  0
H  H33  1  0.95451248  0.69823744  0.09393336  1  0  0.120166  0  0.965108  0  0  0.140079  0  1.025455  0  0  0.142446  0  1.024172  0  0  0.088179  0.138403  0  1.026349  0
H  H34  1  0.57559148  0.23502493  0.80631759  1  0  0.128899  0  0.949422  0  0  0.148407  0  1.009557  0  0  0.150749  0  1.009001  0  0  0.092778  0.146748  0  1.009981  0
H  H35  1  0.92440065  0.19368068  0.76497218  1  0  0.128864  0  0.949472  0  0  0.148373  0  1.009595  0  0  0.150717  0  1.009036  0  0  0.092769  0.146715  0  1.010015  0
H  H36  1  0.42441085  0.76497309  0.19368390  1  0  0.12889  0  0.949487  0  0  0.148406  0  1.009599  0  0  0.150749  0  1.009043  0  0  0.092768  0.146749  0  1.010019  0
H  H37  1  0.07559052  0.80631658  0.23502358  1  0  0.128909  0  0.949411  0  0  0.148413  0  1.009546  0  0  0.150755  0  1.00899  0  0  0.092784  0.146754  0  1.009965  0
H  H38  1  0.61886386  0.22042741  0.67267802  1  0  0.117692  0  0.984332  0  0  0.137205  0  1.047487  0  0  0.139055  0  1.04751  0  0  0.08961  0.135873  0  1.047523  0
H  H39  1  0.88112451  0.32731883  0.77957233  1  0  0.117746  0  0.98426  0  0  0.137214  0  1.047471  0  0  0.139064  0  1.047491  0  0  0.08962  0.135882  0  1.047507  0
H  H40  1  0.38113231  0.77957443  0.32732092  1  0  0.117739  0  0.984223  0  0  0.137228  0  1.047413  0  0  0.139076  0  1.047436  0  0  0.08961  0.135895  0  1.047449  0
H  H41  1  0.11886318  0.67267652  0.22042754  1  0  0.117683  0  0.984342  0  0  0.137184  0  1.04751  0  0  0.139034  0  1.047532  0  0  0.089602  0.135852  0  1.047546  0
C  C42  1  0.55787000  0.65126128  0.69431790  1  0  0.194045  0  3.614858  0  0  0.130878  0  3.87894  0  0  0.146149  0  3.889475  0  0  0.156773  0.121039  0  3.871547  0
C  C43  1  0.94212803  0.30567541  0.34873852  1  0  0.193858  0  3.614916  0  0  0.130652  0  3.879005  0  0  0.145924  0  3.889538  0  0  0.156701  0.120797  0  3.871597  0
C  C44  1  0.44213120  0.34873683  0.30567816  1  0  0.194009  0  3.614859  0  0  0.130846  0  3.878923  0  0  0.146118  0  3.889458  0  0  0.156729  0.120999  0  3.871524  0
C  C45  1  0.05787379  0.69432169  0.65126196  1  0  0.193901  0  3.614852  0  0  0.130717  0  3.878945  0  0  0.145989  0  3.88948  0  0  0.156715  0.120846  0  3.87153  0
C  C46  1  0.36990631  0.70347401  0.54998730  1  0  0.000408  0  3.729274  0  0  -0.033442  0  3.999388  0  0  -0.032161  0  4.019115  0  0  0.001442  -0.034209  0  3.986118  0
C  C47  1  0.13008822  0.45000858  0.29652954  1  0  0.000476  0  3.729271  0  0  -0.033384  0  3.999362  0  0  -0.032099  0  4.019087  0  0  0.001414  -0.034125  0  3.986114  0
C  C48  1  0.63009407  0.29652684  0.45001281  1  0  0.00044  0  3.7293  0  0  -0.033405  0  3.999419  0  0  -0.032123  0  4.019143  0  0  0.001476  -0.034185  0  3.986142  0
C  C49  1  0.86991594  0.54998846  0.70347331  1  0  0.000463  0  3.729293  0  0  -0.03333  0  3.999396  0  0  -0.032046  0  4.019121  0  0  0.001426  -0.03408  0  3.986138  0
C  C50  1  0.52305779  0.80625116  0.59521927  1  0  -0.053092  0  3.667884  0  0  -0.094519  0  3.928019  0  0  -0.09359  0  3.94783  0  0  0.004871  -0.09513  0  3.914687  0
C  C51  1  0.97694021  0.40477762  0.19375317  1  0  -0.053169  0  3.667956  0  0  -0.094562  0  3.928102  0  0  -0.093634  0  3.947915  0  0  0.004894  -0.095176  0  3.91477  0
C  C52  1  0.47694551  0.19375062  0.40477998  1  0  -0.053115  0  3.667887  0  0  -0.094555  0  3.928021  0  0  -0.093619  0  3.947844  0  0  0.004838  -0.095165  0  3.91469  0
C  C53  1  0.02306608  0.59522313  0.80625032  1  0  -0.053074  0  3.667826  0  0  -0.094454  0  3.927964  0  0  -0.093525  0  3.947773  0  0  0.004908  -0.095068  0  3.914632  0
C  C54  1  0.81810924  0.84797056  0.76010585  1  0  0.176897  0  3.778994  0  0  0.16819  0  4.030525  0  0  0.173267  0  4.053725  0  0  0.092897  0.164765  0  4.014832  0
C  C55  1  0.68188897  0.23989368  0.15203371  1  0  0.17695  0  3.778938  0  0  0.168286  0  4.030423  0  0  0.173321  0  4.053676  0  0  0.092914  0.164863  0  4.014731  0
C  C56  1  0.18189129  0.15202847  0.23989173  1  0  0.176951  0  3.77897  0  0  0.168199  0  4.030544  0  0  0.173283  0  4.053737  0  0  0.092929  0.164773  0  4.014851  0
C  C57  1  0.31811194  0.76010809  0.84796742  1  0  0.176829  0  3.778912  0  0  0.168146  0  4.030425  0  0  0.173199  0  4.053655  0  0  0.092871  0.16472  0  4.014733  0
C  C58  1  0.89255366  0.82839703  0.88183123  1  0  -0.15488  0  3.786502  0  0  -0.180468  0  4.048347  0  0  -0.18448  0  4.070794  0  0  -0.094181  -0.177736  0  4.03317  0
C  C59  1  0.60744355  0.11816501  0.17160013  1  0  -0.15493  0  3.78647  0  0  -0.180529  0  4.048319  0  0  -0.184524  0  4.070773  0  0  -0.094203  -0.177797  0  4.033136  0
C  C60  1  0.10744819  0.17160012  0.11816585  1  0  -0.154922  0  3.786509  0  0  -0.180503  0  4.048379  0  0  -0.184516  0  4.070823  0  0  -0.094239  -0.177772  0  4.033204  0
C  C61  1  0.39256041  0.88183583  0.82839845  1  0  -0.154913  0  3.786464  0  0  -0.180504  0  4.048318  0  0  -0.184503  0  4.070765  0  0  -0.094197  -0.177772  0  4.033141  0
C  C62  1  0.06215634  0.90530053  0.95624098  1  0  -0.093895  0  3.755812  0  0  -0.113792  0  4.004476  0  0  -0.115615  0  4.026108  0  0  -0.089634  -0.112439  0  3.989791  0
C  C63  1  0.43783955  0.04375844  0.09470009  1  0  -0.093853  0  3.755598  0  0  -0.113812  0  4.004244  0  0  -0.115636  0  4.025869  0  0  -0.089622  -0.112458  0  3.989554  0
C  C64  1  0.93784656  0.09469846  0.04375727  1  0  -0.093896  0  3.755755  0  0  -0.113812  0  4.004418  0  0  -0.115634  0  4.026051  0  0  -0.089601  -0.112459  0  3.989735  0
C  C65  1  0.56216081  0.95624239  0.90530172  1  0  -0.093821  0  3.755759  0  0  -0.113776  0  4.004395  0  0  -0.1156  0  4.026023  0  0  -0.089633  -0.112424  0  3.989711  0
C  C66  1  0.16130992  0.00396114  0.91260033  1  0  0.042332  0  3.783693  0  0  0.056184  0  4.015498  0  0  0.055727  0  4.039937  0  0  -0.009625  0.056445  0  3.99892  0
C  C67  1  0.33868248  0.08740384  0.99604424  1  0  0.04222  0  3.783575  0  0  0.056234  0  4.01523  0  0  0.055778  0  4.039666  0  0  -0.00963  0.056494  0  3.998663  0
C  C68  1  0.83869165  0.99603970  0.08740012  1  0  0.042259  0  3.783768  0  0  0.056107  0  4.015602  0  0  0.055649  0  4.040042  0  0  -0.009654  0.056367  0  3.999025  0
C  C69  1  0.66131723  0.91259794  0.00395655  1  0  0.04226  0  3.783682  0  0  0.056258  0  4.01536  0  0  0.055802  0  4.039797  0  0  -0.009622  0.056521  0  3.998785  0
C  C70  1  0.08565803  0.01944909  0.78856423  1  0  -0.096326  0  3.709737  0  0  -0.113056  0  3.95471  0  0  -0.115473  0  3.975712  0  0  -0.08481  -0.111283  0  3.94053  0
C  C71  1  0.41433764  0.21144122  0.98055549  1  0  -0.096244  0  3.709743  0  0  -0.112969  0  3.954721  0  0  -0.115384  0  3.975718  0  0  -0.084808  -0.11123  0  3.940508  0
C  C72  1  0.91434473  0.98055174  0.21143571  1  0  -0.096316  0  3.709807  0  0  -0.113053  0  3.954773  0  0  -0.115469  0  3.975773  0  0  -0.084823  -0.111287  0  3.940575  0
C  C73  1  0.58566140  0.78856148  0.01944683  1  0  -0.096329  0  3.709771  0  0  -0.113042  0  3.954719  0  0  -0.115456  0  3.975716  0  0  -0.084841  -0.111285  0  3.940515  0
C  C74  1  0.91602369  0.94167784  0.71216049  1  0  -0.142403  0  3.720733  0  0  -0.163623  0  3.972756  0  0  -0.166936  0  3.99213  0  0  -0.088229  -0.161372  0  3.959683  0
C  C75  1  0.58397303  0.28784330  0.05832922  1  0  -0.142429  0  3.720963  0  0  -0.163684  0  3.972965  0  0  -0.166983  0  3.992349  0  0  -0.088233  -0.161441  0  3.959916  0
C  C76  1  0.08398039  0.05832112  0.28783895  1  0  -0.142405  0  3.720851  0  0  -0.163583  0  3.972864  0  0  -0.166898  0  3.992235  0  0  -0.088232  -0.161332  0  3.959794  0
C  C77  1  0.41602704  0.71216120  0.94167682  1  0  -0.142379  0  3.720894  0  0  -0.16361  0  3.972905  0  0  -0.166916  0  3.992284  0  0  -0.088217  -0.161359  0  3.959848  0
C  C78  1  0.38281399  0.24716736  0.63795137  1  0  0.722264  0  3.887603  0  0  0.683254  0  4.184963  0  0  0.715751  0  4.17932  0  0  0.189254  0.661169  0  4.187993  0
C  C79  1  0.11717665  0.36205044  0.75283026  1  0  0.722167  0  3.887636  0  0  0.683061  0  4.185124  0  0  0.715558  0  4.179476  0  0  0.18915  0.660976  0  4.188156  0
C  C80  1  0.61718288  0.75283156  0.36205455  1  0  0.722335  0  3.887545  0  0  0.683284  0  4.184951  0  0  0.71578  0  4.179306  0  0  0.189233  0.661199  0  4.187984  0
C  C81  1  0.88281204  0.63794875  0.24716313  1  0  0.722088  0  3.887725  0  0  0.683165  0  4.184952  0  0  0.715659  0  4.179315  0  0  0.189269  0.661081  0  4.187982  0
C  C82  1  0.51566944  0.19493188  0.70773496  1  0  -0.455839  0  3.68732  0  0  -0.531361  0  3.919003  0  0  -0.538236  0  3.922051  0  0  -0.254749  -0.526468  0  3.916746  0
C  C83  1  0.98432266  0.29226471  0.80506505  1  0  -0.45583  0  3.687306  0  0  -0.531292  0  3.919042  0  0  -0.538147  0  3.922109  0  0  -0.254754  -0.526398  0  3.916782  0
C  C84  1  0.48433039  0.80506802  0.29226670  1  0  -0.455948  0  3.687317  0  0  -0.531458  0  3.919015  0  0  -0.538336  0  3.92206  0  0  -0.254768  -0.526567  0  3.916756  0
C  C85  1  0.01566732  0.70773257  0.19493038  1  0  -0.455793  0  3.687432  0  0  -0.531323  0  3.919073  0  0  -0.538193  0  3.922128  0  0  -0.254735  -0.526433  0  3.916815  0
N  N86  1  0.39433167  0.60769399  0.61268464  1  0  -0.366023  0  3.282943  0  0  -0.287061  0  3.582865  0  0  -0.306252  0  3.593876  0  0  -0.351853  -0.27411  0  3.575135  0
N  N87  1  0.10566483  0.38731083  0.39230956  1  0  -0.366048  0  3.282939  0  0  -0.287019  0  3.582802  0  0  -0.306209  0  3.593809  0  0  -0.35182  -0.274069  0  3.575069  0
N  N88  1  0.60566872  0.39230688  0.38731462  1  0  -0.366047  0  3.2829  0  0  -0.287086  0  3.582813  0  0  -0.306274  0  3.59382  0  0  -0.351852  -0.274136  0  3.575093  0
N  N89  1  0.89433868  0.61268716  0.60769312  1  0  -0.36602  0  3.282893  0  0  -0.28703  0  3.582773  0  0  -0.306218  0  3.593777  0  0  -0.351829  -0.274079  0  3.575051  0
N  N90  1  0.64175990  0.77194987  0.68648533  1  0  -0.082184  0  3.594011  0  0  0.007005  0  3.806246  0  0  -0.007921  0  3.832371  0  0  -0.217726  0.016891  0  3.788461  0
N  N91  1  0.85823868  0.31351160  0.22805278  1  0  -0.08203  0  3.593942  0  0  0.007146  0  3.806147  0  0  -0.007767  0  3.83228  0  0  -0.217715  0.017028  0  3.788369  0
N  N92  1  0.35824235  0.22805007  0.31351275  1  0  -0.082128  0  3.593872  0  0  0.00707  0  3.806108  0  0  -0.007857  0  3.832228  0  0  -0.217703  0.016955  0  3.788324  0
N  N93  1  0.14176461  0.68649016  0.77194732  1  0  -0.082053  0  3.593917  0  0  0.007128  0  3.806125  0  0  -0.00779  0  3.832254  0  0  -0.217703  0.017012  0  3.788351  0
O  O94  1  0.22532666  0.17826504  0.58618546  1  0  -0.633078  0  1.862509  0  0  -0.586314  0  2.072517  0  0  -0.608285  0  2.063412  0  0  -0.334976  -0.570968  0  2.078325  0
O  O95  1  0.27466858  0.41381525  0.82173405  1  0  -0.633056  0  1.862336  0  0  -0.58625  0  2.072373  0  0  -0.608222  0  2.063271  0  0  -0.334984  -0.570909  0  2.078188  0
O  O96  1  0.77467212  0.82173302  0.41381503  1  0  -0.633106  0  1.862337  0  0  -0.586345  0  2.072378  0  0  -0.608316  0  2.063276  0  0  -0.335026  -0.571001  0  2.078192  0
O  O97  1  0.72532608  0.58618393  0.17825676  1  0  -0.633006  0  1.862435  0  0  -0.586289  0  2.072417  0  0  -0.608253  0  2.063309  0  0  -0.334971  -0.570945  0  2.078227  0
O  O98  1  0.44532065  0.36646436  0.63878419  1  0  -0.67811  0  2.002228  0  0  -0.602945  0  2.267539  0  0  -0.632785  0  2.253711  0  0  -0.346947  -0.582044  0  2.276346  0
O  O99  1  0.05466967  0.36122310  0.63353634  1  0  -0.678093  0  2.002358  0  0  -0.602866  0  2.26771  0  0  -0.632707  0  2.253884  0  0  -0.346849  -0.581968  0  2.276522  0
O  O100  1  0.55467246  0.63353636  0.36122835  1  0  -0.678153  0  2.002352  0  0  -0.602921  0  2.267634  0  0  -0.63276  0  2.253805  0  0  -0.346853  -0.582021  0  2.276438  0
O  O101  1  0.94531323  0.63878264  0.36645888  1  0  -0.678024  0  2.002215  0  0  -0.602915  0  2.267543  0  0  -0.632755  0  2.253721  0  0  -0.347006  -0.582014  0  2.276354  0
