# generated using pymatgen
data_CdH18C22(NO)4
_symmetry_space_group_name_H-M   'P 1'
_cell_length_a   8.27485253
_cell_length_b   18.44539646
_cell_length_c   18.44629769
_cell_angle_alpha   90.00126741
_cell_angle_beta   90.00063723
_cell_angle_gamma   90.00028438
_symmetry_Int_Tables_number   1
_chemical_formula_structural   CdH18C22(NO)4
_chemical_formula_sum   'Cd4 H72 C88 N16 O16'
_cell_volume   2815.51256747
_cell_formula_units_Z   4
loop_
 _symmetry_equiv_pos_site_id
 _symmetry_equiv_pos_as_xyz
  1  'x, y, z'
loop_
 _atom_site_type_symbol
 _atom_site_label
 _atom_site_symmetry_multiplicity
 _atom_site_fract_x
 _atom_site_fract_y
 _atom_site_fract_z
 _atom_site_occupancy
 _atom_site_pbe_bader_charge
 _atom_site_pbe_bader_spin_density
 _atom_site_pbe_cm5_charge
 _atom_site_pbe_ddec_charge
 _atom_site_pbe_ddec_spin_density
 _atom_site_pbe_ddec_sum_bond_order
 _atom_site_pbe_magmom
Cd  Cd0  1  0.49997766  0.21097308  0.78903072  1  1.239541  0  0.769532  0.863093  0  2.145655  0
Cd  Cd1  1  0.49997331  0.78902419  0.21096936  1  1.239512  0  0.769545  0.863111  0  2.145748  0
Cd  Cd2  1  0.49999011  0.71097285  0.71097127  1  1.239589  0  0.769525  0.863099  0  2.145556  0
Cd  Cd3  1  0.50001767  0.28902496  0.28902827  1  1.239661  0  0.769517  0.863176  0  2.145477  0
H  H4  1  0.31599001  0.80161228  0.83022718  1  0.092628  0  0.103855  0.15598  0  0.999108  0
H  H5  1  0.31598825  0.19837479  0.16975736  1  0.092469  0  0.103877  0.156001  0  0.998907  0
H  H6  1  0.31595969  0.66976541  0.30160529  1  0.093188  0  0.103871  0.155947  0  0.999144  0
H  H7  1  0.31595209  0.33023196  0.69839227  1  0.093374  0  0.10386  0.155964  0  0.999177  0
H  H8  1  0.68402477  0.69839933  0.33023555  1  0.09308  0  0.103866  0.155939  0  0.999211  0
H  H9  1  0.68403549  0.30159567  0.66977627  1  0.092846  0  0.103872  0.155984  0  0.999218  0
H  H10  1  0.68407490  0.83023472  0.80159285  1  0.093302  0  0.103848  0.155983  0  0.999187  0
H  H11  1  0.68404940  0.16976353  0.19839241  1  0.092939  0  0.103875  0.155979  0  0.999194  0
H  H12  1  0.12793411  0.79837064  0.78525235  1  0.062519  0  0.100391  0.149495  0  1.022294  0
H  H13  1  0.12792989  0.20161923  0.21473398  1  0.062816  0  0.100364  0.149393  0  1.022293  0
H  H14  1  0.12790094  0.71473789  0.29836565  1  0.061877  0  0.100377  0.149429  0  1.022139  0
H  H15  1  0.12789538  0.28525036  0.70163911  1  0.061668  0  0.100345  0.149406  0  1.022284  0
H  H16  1  0.87207953  0.70163780  0.28525629  1  0.062271  0  0.100376  0.14947  0  1.02215  0
H  H17  1  0.87209740  0.29835710  0.71474940  1  0.061963  0  0.100362  0.149436  0  1.022261  0
H  H18  1  0.87212511  0.78524700  0.79835476  1  0.061313  0  0.100344  0.149452  0  1.022138  0
H  H19  1  0.87209774  0.21474412  0.20163576  1  0.061772  0  0.100369  0.149482  0  1.022171  0
H  H20  1  0.18431075  0.87844109  0.83350805  1  0.07381  0  0.105092  0.155186  0  0.978474  0
H  H21  1  0.18430812  0.12154404  0.16648669  1  0.073515  0  0.105063  0.155097  0  0.978493  0
H  H22  1  0.18428700  0.66648615  0.37843335  1  0.073725  0  0.105025  0.15507  0  0.978476  0
H  H23  1  0.18426299  0.33349844  0.62156572  1  0.073989  0  0.10509  0.155126  0  0.978581  0
H  H24  1  0.81570048  0.62156572  0.33350885  1  0.073946  0  0.105069  0.155156  0  0.978511  0
H  H25  1  0.81572278  0.37842309  0.66648681  1  0.073885  0  0.105017  0.155121  0  0.978498  0
H  H26  1  0.81575558  0.83350918  0.87842271  1  0.073965  0  0.10502  0.155097  0  0.978533  0
H  H27  1  0.81572448  0.16648885  0.12156482  1  0.073691  0  0.105062  0.155151  0  0.978423  0
H  H28  1  0.58065811  0.86605712  0.60827994  1  0.126047  0  0.118398  0.11487  0  1.008775  0
H  H29  1  0.58067459  0.13395498  0.39170915  1  0.126814  0  0.118418  0.114858  0  1.008928  0
H  H30  1  0.58065639  0.89171667  0.36604191  1  0.126578  0  0.118439  0.114976  0  1.008717  0
H  H31  1  0.58067027  0.10829435  0.63394717  1  0.126147  0  0.118428  0.114898  0  1.009014  0
H  H32  1  0.41934743  0.63394579  0.10828234  1  0.126167  0  0.118407  0.114869  0  1.008824  0
H  H33  1  0.41934629  0.36605942  0.89170867  1  0.126421  0  0.118483  0.115047  0  1.008479  0
H  H34  1  0.41932787  0.60829682  0.86604821  1  0.126174  0  0.118406  0.114825  0  1.008995  0
H  H35  1  0.41932960  0.39170622  0.13394660  1  0.126232  0  0.118404  0.114869  0  1.008871  0
H  H36  1  0.37255353  0.98589221  0.61011202  1  0.125471  0  0.119109  0.115888  0  1.029489  0
H  H37  1  0.37256753  0.01412319  0.38989340  1  0.1254  0  0.119166  0.115989  0  1.029396  0
H  H38  1  0.37256597  0.88989615  0.48587519  1  0.125419  0  0.119143  0.115974  0  1.029322  0
H  H39  1  0.37259255  0.11011382  0.51411288  1  0.125527  0  0.119149  0.115962  0  1.029482  0
H  H40  1  0.62744118  0.51410694  0.11011821  1  0.125644  0  0.119144  0.115905  0  1.029502  0
H  H41  1  0.62745452  0.48589660  0.88987979  1  0.125704  0  0.119141  0.115925  0  1.029307  0
H  H42  1  0.62742494  0.61013191  0.98588200  1  0.125695  0  0.119274  0.116127  0  1.029288  0
H  H43  1  0.62743088  0.38987868  0.01411708  1  0.125604  0  0.11918  0.115943  0  1.029448  0
H  H44  1  0.29258647  0.06441645  0.73800155  1  0.134841  0  0.10859  0.126776  0  1.013938  0
H  H45  1  0.29260304  0.93558303  0.26200510  1  0.134661  0  0.108648  0.126785  0  1.013764  0
H  H46  1  0.29261926  0.76201082  0.56439991  1  0.135514  0  0.108659  0.126767  0  1.01373  0
H  H47  1  0.29260287  0.23799517  0.43560512  1  0.134867  0  0.108629  0.126747  0  1.013876  0
H  H48  1  0.70738098  0.43559835  0.23801149  1  0.135903  0  0.108676  0.126756  0  1.01376  0
H  H49  1  0.70740155  0.56441189  0.76199448  1  0.134779  0  0.108591  0.126742  0  1.013897  0
H  H50  1  0.70737187  0.73799979  0.06438758  1  0.135971  0  0.108661  0.126722  0  1.013778  0
H  H51  1  0.70738408  0.26199147  0.93560592  1  0.135993  0  0.108654  0.126742  0  1.013827  0
H  H52  1  0.96049818  0.88831293  0.70048715  1  0.117634  0  0.108939  0.120324  0  0.999695  0
H  H53  1  0.96050365  0.11168002  0.29951626  1  0.11798  0  0.108873  0.12019  0  0.999801  0
H  H54  1  0.96048291  0.79950791  0.38831730  1  0.117985  0  0.108869  0.120172  0  0.999739  0
H  H55  1  0.96045729  0.20047799  0.61167907  1  0.117972  0  0.108886  0.120327  0  0.999781  0
H  H56  1  0.03950606  0.61168009  0.20050184  1  0.117757  0  0.108854  0.120175  0  0.99975  0
H  H57  1  0.03953666  0.38832421  0.79951388  1  0.118154  0  0.108922  0.120283  0  0.999638  0
H  H58  1  0.03953213  0.70050444  0.88831835  1  0.1179  0  0.108868  0.12025  0  0.99964  0
H  H59  1  0.03952631  0.29950040  0.11168381  1  0.117831  0  0.10889  0.120269  0  0.99971  0
H  H60  1  0.06080670  0.14599404  0.76781546  1  0.13818  0  0.103894  0.116889  0  1.045954  0
H  H61  1  0.06083014  0.85400380  0.23218518  1  0.138115  0  0.10392  0.116971  0  1.045896  0
H  H62  1  0.06086133  0.73218557  0.64598177  1  0.138256  0  0.103987  0.117039  0  1.045797  0
H  H63  1  0.06084439  0.26782257  0.35402537  1  0.138431  0  0.103929  0.116973  0  1.045973  0
H  H64  1  0.93913855  0.35400841  0.26782798  1  0.137855  0  0.103895  0.117039  0  1.045756  0
H  H65  1  0.93916766  0.64599263  0.73216774  1  0.1377  0  0.103894  0.116893  0  1.04607  0
H  H66  1  0.93911737  0.76782413  0.14598263  1  0.138181  0  0.103925  0.117029  0  1.045708  0
H  H67  1  0.93913808  0.23217853  0.85401580  1  0.138247  0  0.103941  0.117013  0  1.045822  0
H  H68  1  0.72824111  0.96965039  0.73397063  1  0.109442  0  0.101469  0.105458  0  1.019515  0
H  H69  1  0.72825577  0.03033821  0.26603003  1  0.10964  0  0.101517  0.10555  0  1.01965  0
H  H70  1  0.72825002  0.76602701  0.46966493  1  0.109314  0  0.101491  0.105553  0  1.019658  0
H  H71  1  0.72823477  0.23395563  0.53033138  1  0.109484  0  0.101627  0.105659  0  1.019712  0
H  H72  1  0.27174465  0.53033958  0.23399224  1  0.109324  0  0.101463  0.105459  0  1.019699  0
H  H73  1  0.27177161  0.46967721  0.76603763  1  0.109318  0  0.101482  0.105597  0  1.019666  0
H  H74  1  0.27175499  0.73398497  0.96967545  1  0.109458  0  0.101452  0.105573  0  1.019594  0
H  H75  1  0.27176127  0.26602205  0.03033435  1  0.109269  0  0.101448  0.105504  0  1.019553  0
C  C76  1  0.22921482  0.83417660  0.79927641  1  -0.070909  0  -0.230343  -0.474009  0  3.951048  0
C  C77  1  0.22921593  0.16581406  0.20071476  1  -0.070889  0  -0.230258  -0.473786  0  3.950884  0
C  C78  1  0.22919376  0.70072082  0.33416696  1  -0.071638  0  -0.230236  -0.473701  0  3.951161  0
C  C79  1  0.22917656  0.29926984  0.66583342  1  -0.072894  0  -0.230268  -0.473781  0  3.951418  0
C  C80  1  0.77079192  0.66583432  0.29927852  1  -0.071582  0  -0.230286  -0.473838  0  3.951128  0
C  C81  1  0.77081221  0.33416088  0.70072397  1  -0.07127  0  -0.230207  -0.4738  0  3.951209  0
C  C82  1  0.77084166  0.79927570  0.83415697  1  -0.071965  0  -0.23019  -0.473818  0  3.95125  0
C  C83  1  0.77081082  0.20072005  0.16583467  1  -0.071259  0  -0.230257  -0.47386  0  3.951029  0
C  C84  1  0.31021981  0.86284274  0.73342414  1  1.001763  0  0.226131  0.359491  0  3.920879  0
C  C85  1  0.31021624  0.13715570  0.26657013  1  1.001621  0  0.22613  0.359487  0  3.920809  0
C  C86  1  0.31018926  0.76657560  0.36283110  1  1.001936  0  0.226042  0.359229  0  3.920893  0
C  C87  1  0.31018033  0.23341308  0.63717293  1  1.003328  0  0.226241  0.359378  0  3.920894  0
C  C88  1  0.68978285  0.63716781  0.23342576  1  1.001931  0  0.22616  0.359364  0  3.920874  0
C  C89  1  0.68981235  0.36283371  0.76657362  1  1.001981  0  0.226127  0.359441  0  3.921056  0
C  C90  1  0.68981546  0.73342697  0.86281871  1  1.002124  0  0.225968  0.359189  0  3.921411  0
C  C91  1  0.68980753  0.26657617  0.13716929  1  1.001901  0  0.226025  0.359244  0  3.920931  0
C  C92  1  0.48134206  0.87909534  0.64426051  1  0.408972  0  -0.00742  -0.034999  0  4.063498  0
C  C93  1  0.48134904  0.12091598  0.35573569  1  0.407865  0  -0.007166  -0.034501  0  4.063254  0
C  C94  1  0.48133375  0.85574024  0.37908020  1  0.408538  0  -0.007269  -0.034794  0  4.063138  0
C  C95  1  0.48134405  0.14426187  0.62091816  1  0.408609  0  -0.00725  -0.034762  0  4.063274  0
C  C96  1  0.51866077  0.62091270  0.14426093  1  0.408533  0  -0.007345  -0.034793  0  4.062861  0
C  C97  1  0.51869027  0.37909871  0.85573165  1  0.408573  0  -0.007459  -0.035007  0  4.063873  0
C  C98  1  0.51865688  0.64426866  0.87908290  1  0.408433  0  -0.007107  -0.034335  0  4.0632  0
C  C99  1  0.51866637  0.35573625  0.12091077  1  0.408622  0  -0.007311  -0.034774  0  4.063257  0
C  C100  1  0.37953268  0.93769357  0.64351929  1  0.247009  0  -0.004932  -0.111528  0  3.959055  0
C  C101  1  0.37955962  0.06231805  0.35647694  1  0.247314  0  -0.005118  -0.111955  0  3.959446  0
C  C102  1  0.37954779  0.85648296  0.43767817  1  0.247251  0  -0.005082  -0.111788  0  3.959119  0
C  C103  1  0.37955418  0.14351348  0.56231535  1  0.246898  0  -0.005059  -0.111664  0  3.958823  0
C  C104  1  0.62045683  0.56230957  0.14352651  1  0.247142  0  -0.005027  -0.111763  0  3.959041  0
C  C105  1  0.62046279  0.43768636  0.85646765  1  0.247018  0  -0.004923  -0.111533  0  3.959912  0
C  C106  1  0.62045399  0.64353645  0.93767593  1  0.247452  0  -0.005267  -0.112117  0  3.959322  0
C  C107  1  0.62045717  0.35647141  0.06231553  1  0.247141  0  -0.005032  -0.111662  0  3.959409  0
C  C108  1  0.13808538  0.97256079  0.71743799  1  0.316187  0  0.092018  0.170208  0  4.028601  0
C  C109  1  0.13809922  0.02743290  0.28256412  1  0.315888  0  0.091852  0.170032  0  4.028983  0
C  C110  1  0.13809219  0.78256000  0.47255477  1  0.315585  0  0.091991  0.170101  0  4.02877  0
C  C111  1  0.13807791  0.21742719  0.52744354  1  0.315657  0  0.091891  0.170294  0  4.028632  0
C  C112  1  0.86190117  0.52744019  0.21745212  1  0.315836  0  0.091931  0.169986  0  4.028707  0
C  C113  1  0.86192494  0.47256391  0.78255841  1  0.316445  0  0.092012  0.170376  0  4.028789  0
C  C114  1  0.86191530  0.71744663  0.97255100  1  0.316135  0  0.092063  0.170201  0  4.028408  0
C  C115  1  0.86190839  0.28255368  0.02744380  1  0.315713  0  0.091979  0.170064  0  4.028683  0
C  C116  1  0.16834485  0.04474687  0.73570572  1  -0.042418  0  -0.086726  -0.161284  0  3.957434  0
C  C117  1  0.16834597  0.95524689  0.26429870  1  -0.042934  0  -0.086807  -0.161188  0  3.957476  0
C  C118  1  0.16835699  0.76430154  0.54473660  1  -0.043454  0  -0.086908  -0.161212  0  3.957186  0
C  C119  1  0.16833503  0.23570145  0.45526456  1  -0.043103  0  -0.086858  -0.16126  0  3.957379  0
C  C120  1  0.83163584  0.45525703  0.23571778  1  -0.044013  0  -0.086907  -0.161133  0  3.95775  0
C  C121  1  0.83166110  0.54474971  0.76428771  1  -0.042669  0  -0.086717  -0.161243  0  3.957558  0
C  C122  1  0.83163002  0.73571352  0.04473080  1  -0.044215  0  -0.087018  -0.161257  0  3.957033  0
C  C123  1  0.83163549  0.26428672  0.95526169  1  -0.043857  0  -0.086919  -0.161131  0  3.957315  0
C  C124  1  0.98085432  0.94461932  0.71615493  1  -0.069881  0  -0.091427  -0.170569  0  3.985265  0
C  C125  1  0.98087815  0.05537640  0.28384805  1  -0.069935  0  -0.091392  -0.17049  0  3.985272  0
C  C126  1  0.98086940  0.78384395  0.44462007  1  -0.069859  0  -0.091385  -0.170409  0  3.985095  0
C  C127  1  0.98085581  0.21614743  0.55538019  1  -0.07005  0  -0.091453  -0.170775  0  3.985442  0
C  C128  1  0.01912736  0.55537947  0.21616881  1  -0.069591  0  -0.091361  -0.170434  0  3.985161  0
C  C129  1  0.01914484  0.44462695  0.78384681  1  -0.070048  0  -0.091452  -0.170527  0  3.985535  0
C  C130  1  0.01914343  0.71616911  0.94461812  1  -0.069823  0  -0.091346  -0.170472  0  3.985159  0
C  C131  1  0.01913724  0.28383948  0.05538340  1  -0.069881  0  -0.091408  -0.170564  0  3.985122  0
C  C132  1  0.03861367  0.08986873  0.75231845  1  -0.032649  0  -0.081819  -0.078299  0  3.948315  0
C  C133  1  0.03861753  0.91012744  0.24768154  1  -0.032155  0  -0.081849  -0.0785  0  3.948499  0
C  C134  1  0.03864882  0.74768039  0.58986115  1  -0.032344  0  -0.081873  -0.078463  0  3.94824  0
C  C135  1  0.03862468  0.25232228  0.41014264  1  -0.031841  0  -0.081786  -0.078435  0  3.948569  0
C  C136  1  0.96135535  0.41013500  0.25233557  1  -0.032087  0  -0.081703  -0.078484  0  3.948484  0
C  C137  1  0.96138549  0.58987313  0.74766948  1  -0.031963  0  -0.081786  -0.07837  0  3.948387  0
C  C138  1  0.96133933  0.75233078  0.08985960  1  -0.031928  0  -0.081688  -0.078353  0  3.947878  0
C  C139  1  0.96136645  0.24767464  0.91014057  1  -0.032321  0  -0.081766  -0.07846  0  3.948392  0
C  C140  1  0.85212378  0.98980570  0.73416306  1  -0.075676  0  -0.082509  -0.081446  0  3.979029  0
C  C141  1  0.85213461  0.01019295  0.26584145  1  -0.076094  0  -0.082498  -0.081472  0  3.978912  0
C  C142  1  0.85213043  0.76583763  0.48980315  1  -0.075691  0  -0.082549  -0.081566  0  3.97889  0
C  C143  1  0.85210742  0.23414910  0.51019540  1  -0.076084  0  -0.082535  -0.081568  0  3.978845  0
C  C144  1  0.14785714  0.51019619  0.23418145  1  -0.075687  0  -0.082598  -0.08148  0  3.978883  0
C  C145  1  0.14789034  0.48980999  0.76584022  1  -0.075706  0  -0.082572  -0.081729  0  3.978519  0
C  C146  1  0.14786300  0.73417859  0.98980927  1  -0.07572  0  -0.082645  -0.081669  0  3.978635  0
C  C147  1  0.14786152  0.26583030  0.01019559  1  -0.075866  0  -0.082494  -0.081438  0  3.978747  0
C  C148  1  0.88024303  0.06266294  0.75185616  1  -0.045521  0  -0.018431  -0.032649  0  3.970144  0
C  C149  1  0.88024839  0.93733361  0.24814632  1  -0.045542  0  -0.018376  -0.032599  0  3.970205  0
C  C150  1  0.88026590  0.74814463  0.56265829  1  -0.044879  0  -0.018255  -0.032461  0  3.970308  0
C  C151  1  0.88024244  0.25185084  0.43734039  1  -0.045224  0  -0.018409  -0.032459  0  3.96997  0
C  C152  1  0.11972719  0.43733915  0.25187247  1  -0.044968  0  -0.018242  -0.03246  0  3.969984  0
C  C153  1  0.11977519  0.56267239  0.74813984  1  -0.045615  0  -0.018278  -0.03247  0  3.969532  0
C  C154  1  0.11972278  0.75186432  0.06266617  1  -0.045103  0  -0.018138  -0.032444  0  3.969982  0
C  C155  1  0.11973851  0.24814017  0.93733910  1  -0.044627  0  -0.018349  -0.032564  0  3.970569  0
C  C156  1  0.74132018  0.11181561  0.76930485  1  1.547157  0  0.187029  0.55005  0  4.236673  0
C  C157  1  0.74132580  0.88817736  0.23070400  1  1.547019  0  0.186938  0.550001  0  4.236979  0
C  C158  1  0.74135882  0.73070705  0.61181505  1  1.546573  0  0.186844  0.549453  0  4.237272  0
C  C159  1  0.74134517  0.26929676  0.38817862  1  1.54712  0  0.187039  0.549882  0  4.237072  0
C  C160  1  0.25863840  0.38817602  0.26930558  1  1.546475  0  0.187002  0.549943  0  4.236833  0
C  C161  1  0.25868162  0.61182934  0.73069657  1  1.546991  0  0.187043  0.550064  0  4.236689  0
C  C162  1  0.25862627  0.76929648  0.11182724  1  1.546402  0  0.186802  0.54961  0  4.237051  0
C  C163  1  0.25864178  0.23070347  0.88818033  1  1.546554  0  0.18701  0.549792  0  4.236965  0
N  N164  1  0.43735021  0.83325249  0.70014482  1  -1.214214  0  -0.359378  -0.365117  0  3.468881  0
N  N165  1  0.43735745  0.16675168  0.29984194  1  -1.214456  0  -0.359544  -0.365403  0  3.468522  0
N  N166  1  0.43733573  0.79985094  0.33323776  1  -1.215073  0  -0.35932  -0.365002  0  3.468297  0
N  N167  1  0.43733688  0.20014564  0.66676364  1  -1.214943  0  -0.359449  -0.365062  0  3.468285  0
N  N168  1  0.56264678  0.66675895  0.20014864  1  -1.214771  0  -0.359456  -0.365174  0  3.468576  0
N  N169  1  0.56267078  0.33324606  0.79984903  1  -1.214307  0  -0.359412  -0.36516  0  3.468726  0
N  N170  1  0.56266945  0.70015098  0.83323269  1  -1.214622  0  -0.35954  -0.365322  0  3.468855  0
N  N171  1  0.56265415  0.29984969  0.16675902  1  -1.214764  0  -0.359436  -0.365174  0  3.468224  0
N  N172  1  0.27052837  0.92640994  0.69958164  1  -1.244136  0  -0.224378  -0.046134  0  3.755039  0
N  N173  1  0.27053226  0.07359166  0.30042165  1  -1.243009  0  -0.224289  -0.045906  0  3.755027  0
N  N174  1  0.27051944  0.80042373  0.42639806  1  -1.243209  0  -0.22433  -0.046071  0  3.754923  0
N  N175  1  0.27051339  0.19957028  0.57360252  1  -1.242936  0  -0.224391  -0.046274  0  3.754922  0
N  N176  1  0.72946981  0.57359769  0.19958476  1  -1.243107  0  -0.224302  -0.045891  0  3.754861  0
N  N177  1  0.72949478  0.42640609  0.80041644  1  -1.243705  0  -0.224426  -0.046372  0  3.754948  0
N  N178  1  0.72949173  0.69958784  0.92639271  1  -1.243508  0  -0.224124  -0.045883  0  3.754607  0
N  N179  1  0.72947891  0.30041703  0.07360795  1  -1.243256  0  -0.224204  -0.045948  0  3.755069  0
O  O180  1  0.77103955  0.17995303  0.77417603  1  -1.168953  0  -0.33243  -0.554228  0  2.220597  0
O  O181  1  0.77103952  0.82004326  0.22582863  1  -1.168926  0  -0.332405  -0.554166  0  2.220657  0
O  O182  1  0.77108465  0.72584321  0.67995015  1  -1.168893  0  -0.332511  -0.554033  0  2.220316  0
O  O183  1  0.77104879  0.27416176  0.32004692  1  -1.169023  0  -0.33245  -0.554106  0  2.220779  0
O  O184  1  0.22891190  0.32003817  0.27418703  1  -1.169054  0  -0.332629  -0.554384  0  2.220365  0
O  O185  1  0.22896658  0.67996821  0.72581931  1  -1.169168  0  -0.332537  -0.554276  0  2.220768  0
O  O186  1  0.22891303  0.77417158  0.17996773  1  -1.16905  0  -0.332597  -0.554144  0  2.220342  0
O  O187  1  0.22892677  0.22581799  0.82004404  1  -1.168788  0  -0.332556  -0.554138  0  2.220478  0
O  O188  1  0.60014180  0.08561116  0.77690303  1  -1.156919  0  -0.339942  -0.561971  0  2.126945  0
O  O189  1  0.60015837  0.91438906  0.22310784  1  -1.156847  0  -0.339889  -0.562019  0  2.127087  0
O  O190  1  0.60017768  0.72310523  0.58561532  1  -1.156795  0  -0.339816  -0.561787  0  2.127178  0
O  O191  1  0.60016720  0.27690366  0.41437549  1  -1.156949  0  -0.339945  -0.561974  0  2.1271  0
O  O192  1  0.39982906  0.41437577  0.27689744  1  -1.156653  0  -0.339792  -0.561901  0  2.127042  0
O  O193  1  0.39985370  0.58561909  0.72309564  1  -1.156916  0  -0.339894  -0.561905  0  2.126797  0
O  O194  1  0.39982003  0.77689446  0.08563109  1  -1.15639  0  -0.339685  -0.561735  0  2.127105  0
O  O195  1  0.39983009  0.22311884  0.91437988  1  -1.156787  0  -0.339803  -0.561842  0  2.127102  0
