# generated using pymatgen
data_CdH17C12Br(NO)2
_symmetry_space_group_name_H-M   'P 1'
_cell_length_a   7.23901379
_cell_length_b   13.65265373
_cell_length_c   16.51854598
_cell_angle_alpha   90.00001043
_cell_angle_beta   90.00003539
_cell_angle_gamma   90.00000021
_symmetry_Int_Tables_number   1
_chemical_formula_structural   CdH17C12Br(NO)2
_chemical_formula_sum   'Cd4 H68 C48 Br4 N8 O8'
_cell_volume   1632.55678247
_cell_formula_units_Z   4
loop_
 _symmetry_equiv_pos_site_id
 _symmetry_equiv_pos_as_xyz
  1  'x, y, z'
loop_
 _atom_site_type_symbol
 _atom_site_label
 _atom_site_symmetry_multiplicity
 _atom_site_fract_x
 _atom_site_fract_y
 _atom_site_fract_z
 _atom_site_occupancy
 _atom_site_hle17_bader_spin_density
 _atom_site_hle17_ddec_charge
 _atom_site_hle17_ddec_spin_density
 _atom_site_hle17_ddec_sum_bond_order
 _atom_site_hle17_magmom
 _atom_site_hse06_10hf_bader_spin_density
 _atom_site_hse06_10hf_ddec_charge
 _atom_site_hse06_10hf_ddec_spin_density
 _atom_site_hse06_10hf_ddec_sum_bond_order
 _atom_site_hse06_10hf_magmom
 _atom_site_hse06_bader_spin_density
 _atom_site_hse06_ddec_charge
 _atom_site_hse06_ddec_spin_density
 _atom_site_hse06_ddec_sum_bond_order
 _atom_site_hse06_magmom
 _atom_site_pbe_bader_spin_density
 _atom_site_pbe_cm5_charge
 _atom_site_pbe_ddec_charge
 _atom_site_pbe_ddec_spin_density
 _atom_site_pbe_ddec_sum_bond_order
 _atom_site_pbe_magmom
Cd  Cd0  1  0.18091181  0.78462555  0.59866960  1  0  1.026772  0  1.795515  0  0  0.841608  0  2.254617  0  0  0.896672  0  2.20556  0  0  0.691634  0.80281  0  2.2879  0
Cd  Cd1  1  0.31909188  0.21537499  0.09866855  1  0  1.026754  0  1.795513  0  0  0.841578  0  2.25462  0  0  0.896643  0  2.205564  0  0  0.691628  0.802777  0  2.287912  0
Cd  Cd2  1  0.81909702  0.28462462  0.90132825  1  0  1.026767  0  1.795496  0  0  0.841601  0  2.254589  0  0  0.896667  0  2.205531  0  0  0.691646  0.802802  0  2.287874  0
Cd  Cd3  1  0.68090934  0.71537452  0.40132966  1  0  1.026757  0  1.795518  0  0  0.841584  0  2.25462  0  0  0.89665  0  2.205563  0  0  0.691626  0.802788  0  2.287891  0
H  H4  1  0.39660299  0.37113454  0.88184344  1  0  0.081142  0  0.953517  0  0  0.086953  0  1.023255  0  0  0.089623  0  1.020646  0  0  0.108191  0.084961  0  1.025199  0
H  H5  1  0.10340110  0.62886460  0.38184057  1  0  0.081154  0  0.953531  0  0  0.086955  0  1.023282  0  0  0.089624  0  1.020674  0  0  0.108201  0.084966  0  1.025224  0
H  H6  1  0.60339893  0.87113547  0.61815867  1  0  0.08116  0  0.953539  0  0  0.086955  0  1.023288  0  0  0.089624  0  1.020681  0  0  0.108193  0.084966  0  1.025229  0
H  H7  1  0.89660150  0.12886580  0.11815763  1  0  0.081154  0  0.953488  0  0  0.086954  0  1.023234  0  0  0.089624  0  1.020624  0  0  0.108199  0.084964  0  1.025178  0
H  H8  1  0.30859783  0.69986622  0.76814034  1  0  0.083047  0  0.915476  0  0  0.098382  0  0.97609  0  0  0.100057  0  0.974372  0  0  0.108372  0.097128  0  0.977405  0
H  H9  1  0.19140057  0.30013289  0.26813987  1  0  0.083028  0  0.915469  0  0  0.098375  0  0.976098  0  0  0.100052  0  0.974376  0  0  0.108375  0.097121  0  0.977405  0
H  H10  1  0.69139856  0.19986745  0.73185992  1  0  0.083019  0  0.915465  0  0  0.098381  0  0.976095  0  0  0.100058  0  0.974372  0  0  0.10838  0.097128  0  0.977403  0
H  H11  1  0.80860064  0.80013385  0.23186017  1  0  0.083041  0  0.915456  0  0  0.098376  0  0.976058  0  0  0.100052  0  0.97434  0  0  0.108362  0.097119  0  0.977371  0
H  H12  1  0.50660128  0.70987159  0.70498106  1  0  0.086403  0  0.930501  0  0  0.098855  0  0.997897  0  0  0.099981  0  0.997331  0  0  0.103658  0.097942  0  0.998471  0
H  H13  1  0.99339789  0.29012750  0.20498006  1  0  0.086386  0  0.930512  0  0  0.098847  0  0.997936  0  0  0.099975  0  0.997369  0  0  0.103662  0.097934  0  0.99851  0
H  H14  1  0.49339650  0.20987211  0.79502042  1  0  0.086368  0  0.930505  0  0  0.098826  0  0.997966  0  0  0.099955  0  0.997395  0  0  0.103659  0.097911  0  0.998546  0
H  H15  1  0.00660332  0.79012921  0.29502058  1  0  0.086389  0  0.930508  0  0  0.098831  0  0.997911  0  0  0.099956  0  0.99735  0  0  0.103662  0.097918  0  0.998484  0
H  H16  1  0.46985864  0.52113831  0.61822461  1  0  0.064371  0  0.936572  0  0  0.07732  0  0.994906  0  0  0.0787  0  0.994935  0  0  0.108822  0.076283  0  0.995095  0
H  H17  1  0.03013955  0.47886150  0.11822413  1  0  0.064386  0  0.936575  0  0  0.077326  0  0.99491  0  0  0.078706  0  0.994941  0  0  0.108827  0.076291  0  0.995103  0
H  H18  1  0.53014190  0.02113811  0.88177563  1  0  0.064374  0  0.93658  0  0  0.077313  0  0.994917  0  0  0.078693  0  0.994947  0  0  0.108825  0.076275  0  0.995108  0
H  H19  1  0.96985752  0.97886175  0.38177715  1  0  0.064382  0  0.936574  0  0  0.077336  0  0.994892  0  0  0.078715  0  0.994923  0  0  0.108834  0.076296  0  0.995082  0
H  H20  1  0.11444276  0.57039979  0.52655427  1  0  0.078179  0  0.931688  0  0  0.096538  0  0.993732  0  0  0.097313  0  0.993611  0  0  0.094404  0.095933  0  0.993923  0
H  H21  1  0.38555668  0.42960147  0.02655448  1  0  0.078231  0  0.931671  0  0  0.096591  0  0.993719  0  0  0.097366  0  0.993598  0  0  0.094423  0.095987  0  0.993903  0
H  H22  1  0.88555778  0.07039888  0.97344597  1  0  0.078209  0  0.931681  0  0  0.096568  0  0.993735  0  0  0.09734  0  0.993613  0  0  0.09441  0.095962  0  0.993923  0
H  H23  1  0.61444177  0.92960028  0.47344739  1  0  0.078193  0  0.931703  0  0  0.096541  0  0.993761  0  0  0.097312  0  0.99364  0  0  0.094404  0.095936  0  0.993949  0
H  H24  1  0.28965168  0.49459840  0.48588001  1  0  0.083401  0  0.931625  0  0  0.101546  0  0.990261  0  0  0.102204  0  0.991081  0  0  0.096747  0.101053  0  0.989756  0
H  H25  1  0.21034565  0.50540149  0.98587982  1  0  0.083462  0  0.931605  0  0  0.10161  0  0.990241  0  0  0.102268  0  0.99106  0  0  0.096766  0.101114  0  0.989738  0
H  H26  1  0.71034678  0.99459785  0.01411945  1  0  0.083428  0  0.931622  0  0  0.101574  0  0.990264  0  0  0.10223  0  0.991082  0  0  0.096736  0.101076  0  0.989762  0
H  H27  1  0.78965351  0.00539974  0.51412163  1  0  0.083453  0  0.93159  0  0  0.1016  0  0.990224  0  0  0.102254  0  0.991043  0  0  0.096755  0.101104  0  0.989721  0
H  H28  1  0.89728991  0.45120394  0.78069054  1  0  0.065002  0  0.979592  0  0  0.068568  0  1.054999  0  0  0.071952  0  1.051261  0  0  0.098031  0.066034  0  1.057764  0
H  H29  1  0.60271075  0.54879737  0.28069069  1  0  0.065014  0  0.979608  0  0  0.068572  0  1.055016  0  0  0.071951  0  1.051283  0  0  0.098037  0.066039  0  1.057778  0
H  H30  1  0.10271063  0.95120197  0.71931158  1  0  0.065036  0  0.979637  0  0  0.068592  0  1.055042  0  0  0.071981  0  1.0513  0  0  0.098043  0.066062  0  1.057796  0
H  H31  1  0.39729046  0.04879786  0.21931052  1  0  0.065029  0  0.979662  0  0  0.068583  0  1.055071  0  0  0.071974  0  1.051326  0  0  0.098037  0.066052  0  1.05783  0
H  H32  1  0.23620955  0.51564343  0.82289877  1  0  0.10528  0  0.940042  0  0  0.117146  0  0.998945  0  0  0.12064  0  0.997389  0  0  0.106428  0.114573  0  1.000329  0
H  H33  1  0.26379031  0.48435642  0.32289714  1  0  0.105272  0  0.940048  0  0  0.117127  0  0.998964  0  0  0.120619  0  0.99741  0  0  0.106431  0.114557  0  1.000338  0
H  H34  1  0.76378822  0.01564392  0.67710268  1  0  0.105298  0  0.940042  0  0  0.117137  0  0.998976  0  0  0.12063  0  0.997422  0  0  0.106437  0.114568  0  1.00035  0
H  H35  1  0.73621091  0.98435810  0.17710172  1  0  0.105292  0  0.940045  0  0  0.117146  0  0.998961  0  0  0.120639  0  0.997406  0  0  0.106434  0.114578  0  1.00034  0
H  H36  1  0.75964542  0.60423572  0.72017310  1  0  0.10967  0  0.991393  0  0  0.116437  0  1.058366  0  0  0.120591  0  1.056038  0  0  0.089059  0.113382  0  1.060296  0
H  H37  1  0.74035239  0.39576484  0.22017326  1  0  0.109655  0  0.991407  0  0  0.116425  0  1.058378  0  0  0.120578  0  1.056051  0  0  0.089051  0.113373  0  1.060305  0
H  H38  1  0.24035373  0.10423477  0.77982897  1  0  0.109618  0  0.991474  0  0  0.116404  0  1.05843  0  0  0.120557  0  1.056101  0  0  0.089046  0.113352  0  1.060353  0
H  H39  1  0.25964607  0.89576581  0.27982740  1  0  0.10966  0  0.991461  0  0  0.11642  0  1.058433  0  0  0.120572  0  1.056105  0  0  0.089046  0.113366  0  1.060359  0
H  H40  1  0.10084016  0.44872675  0.64766177  1  0  0.021341  0  0.925938  0  0  0.038081  0  0.985397  0  0  0.03772  0  0.986338  0  0  0.081513  0.038226  0  0.984916  0
H  H41  1  0.39915807  0.55127453  0.14766261  1  0  0.021366  0  0.925959  0  0  0.038103  0  0.985411  0  0  0.037743  0  0.986351  0  0  0.081505  0.03825  0  0.98493  0
H  H42  1  0.89915900  0.94872627  0.85233732  1  0  0.021379  0  0.925966  0  0  0.038109  0  0.9854  0  0  0.037749  0  0.986339  0  0  0.081514  0.038252  0  0.98492  0
H  H43  1  0.60084452  0.05127285  0.35233800  1  0  0.021357  0  0.925957  0  0  0.038077  0  0.985414  0  0  0.037716  0  0.986356  0  0  0.081509  0.038224  0  0.984931  0
H  H44  1  0.16445106  0.59811822  0.67554560  1  0  0.251907  0  0.908805  0  0  0.24526  0  0.962151  0  0  0.250506  0  0.959383  0  0  0.295696  0.241532  0  0.964152  0
H  H45  1  0.33554721  0.40188233  0.17554579  1  0  0.251884  0  0.90877  0  0  0.245237  0  0.962115  0  0  0.250482  0  0.959347  0  0  0.295686  0.241509  0  0.964111  0
H  H46  1  0.83554810  0.09811728  0.82445283  1  0  0.251874  0  0.90884  0  0  0.245224  0  0.962185  0  0  0.25047  0  0.959418  0  0  0.295681  0.241497  0  0.964183  0
H  H47  1  0.66445124  0.90188257  0.32445426  1  0  0.251884  0  0.908833  0  0  0.245238  0  0.962173  0  0  0.250484  0  0.959406  0  0  0.295684  0.241509  0  0.964172  0
H  H48  1  0.22507254  0.28166179  0.62282666  1  0  0.10126  0  0.962654  0  0  0.121015  0  1.025155  0  0  0.122568  0  1.025273  0  0  0.077745  0.119824  0  1.025175  0
H  H49  1  0.27492704  0.71833948  0.12282386  1  0  0.101246  0  0.962667  0  0  0.120966  0  1.025199  0  0  0.122536  0  1.025301  0  0  0.077731  0.119787  0  1.025208  0
H  H50  1  0.77492938  0.78166205  0.87717180  1  0  0.101228  0  0.962667  0  0  0.120974  0  1.025188  0  0  0.122535  0  1.025298  0  0  0.077724  0.119785  0  1.025211  0
H  H51  1  0.72507417  0.21833928  0.37717677  1  0  0.101222  0  0.962715  0  0  0.120945  0  1.025244  0  0  0.122512  0  1.025348  0  0  0.077705  0.119762  0  1.025255  0
H  H52  1  0.40698682  0.36781428  0.62797424  1  0  0.090972  0  0.956885  0  0  0.110564  0  1.020126  0  0  0.111873  0  1.020441  0  0  0.079692  0.109606  0  1.019938  0
H  H53  1  0.09301138  0.63218773  0.12797016  1  0  0.090948  0  0.956848  0  0  0.110496  0  1.020137  0  0  0.111805  0  1.020453  0  0  0.079677  0.109544  0  1.01995  0
H  H54  1  0.59301234  0.86781380  0.87202484  1  0  0.090969  0  0.956889  0  0  0.110587  0  1.020096  0  0  0.111897  0  1.020411  0  0  0.079706  0.109633  0  1.019912  0
H  H55  1  0.90699121  0.13218753  0.37203046  1  0  0.090961  0  0.956841  0  0  0.110507  0  1.020123  0  0  0.111816  0  1.02044  0  0  0.079679  0.109549  0  1.019943  0
H  H56  1  0.33358311  0.32317386  0.53206869  1  0  0.090206  0  0.951655  0  0  0.112792  0  1.011221  0  0  0.113885  0  1.011531  0  0  0.082926  0.11197  0  1.011049  0
H  H57  1  0.16642463  0.67682593  0.03206706  1  0  0.090194  0  0.951609  0  0  0.112776  0  1.011172  0  0  0.113866  0  1.011484  0  0  0.082902  0.111942  0  1.011013  0
H  H58  1  0.66641881  0.82317267  0.96793038  1  0  0.090221  0  0.951641  0  0  0.112804  0  1.011214  0  0  0.113896  0  1.011525  0  0  0.08293  0.111973  0  1.01105  0
H  H59  1  0.83357797  0.17682575  0.46793477  1  0  0.090256  0  0.9516  0  0  0.112823  0  1.011174  0  0  0.113915  0  1.011487  0  0  0.082924  0.111997  0  1.011009  0
H  H60  1  0.86579235  0.45281313  0.53605096  1  0  0.106721  0  0.952842  0  0  0.125411  0  1.016203  0  0  0.127558  0  1.015455  0  0  0.08346  0.123803  0  1.01682  0
H  H61  1  0.63420658  0.54718667  0.03605233  1  0  0.106735  0  0.952861  0  0  0.125429  0  1.016213  0  0  0.127576  0  1.015465  0  0  0.083464  0.12382  0  1.016829  0
H  H62  1  0.13420681  0.95281340  0.96394873  1  0  0.106727  0  0.952847  0  0  0.125418  0  1.016206  0  0  0.127565  0  1.015457  0  0  0.083452  0.123805  0  1.016824  0
H  H63  1  0.36579049  0.04718648  0.46394767  1  0  0.106762  0  0.952896  0  0  0.125461  0  1.016225  0  0  0.127607  0  1.015477  0  0  0.083478  0.123853  0  1.016841  0
H  H64  1  0.90565692  0.33162350  0.57228720  1  0  0.092626  0  0.952885  0  0  0.111946  0  1.014861  0  0  0.113493  0  1.014654  0  0  0.082271  0.110803  0  1.015068  0
H  H65  1  0.59434344  0.66837556  0.07228737  1  0  0.09269  0  0.952832  0  0  0.111997  0  1.014823  0  0  0.113544  0  1.014616  0  0  0.082282  0.110853  0  1.01503  0
H  H66  1  0.09434500  0.83162377  0.92771309  1  0  0.092692  0  0.952831  0  0  0.111995  0  1.014824  0  0  0.113541  0  1.014619  0  0  0.082284  0.110851  0  1.015035  0
H  H67  1  0.40565639  0.16837537  0.42771205  1  0  0.092731  0  0.952841  0  0  0.112016  0  1.014854  0  0  0.113561  0  1.014649  0  0  0.082264  0.110871  0  1.015062  0
H  H68  1  0.00319138  0.37014055  0.47885695  1  0  0.091239  0  0.950113  0  0  0.113101  0  1.009456  0  0  0.113874  0  1.010969  0  0  0.081339  0.112536  0  1.008401  0
H  H69  1  0.49681146  0.62985861  0.97885685  1  0  0.091239  0  0.950104  0  0  0.113102  0  1.009454  0  0  0.113875  0  1.010967  0  0  0.081352  0.112537  0  1.008398  0
H  H70  1  0.99680845  0.87014146  0.02114310  1  0  0.091232  0  0.950063  0  0  0.113088  0  1.009422  0  0  0.113861  0  1.010934  0  0  0.081327  0.112521  0  1.008367  0
H  H71  1  0.50318770  0.12985833  0.52114280  1  0  0.091257  0  0.950125  0  0  0.113119  0  1.009473  0  0  0.113892  0  1.010986  0  0  0.081345  0.11255  0  1.008417  0
C  C72  1  0.47225968  0.42457543  0.84573313  1  0  0.14262  0  3.708384  0  0  0.111126  0  3.962007  0  0  0.118955  0  3.98024  0  0  0.048189  0.106027  0  3.949699  0
C  C73  1  0.02774298  0.57542516  0.34573266  1  0  0.142616  0  3.708322  0  0  0.111119  0  3.961952  0  0  0.118949  0  3.980183  0  0  0.048148  0.106014  0  3.94965  0
C  C74  1  0.52773948  0.92457563  0.65426778  1  0  0.142621  0  3.708422  0  0  0.111148  0  3.96204  0  0  0.118978  0  3.980272  0  0  0.048193  0.106048  0  3.949734  0
C  C75  1  0.97226100  0.07542565  0.15426735  1  0  0.142622  0  3.708265  0  0  0.111143  0  3.96188  0  0  0.118973  0  3.98011  0  0  0.048182  0.106046  0  3.949571  0
C  C76  1  0.39803263  0.65952900  0.72584970  1  0  -0.026793  0  3.659576  0  0  -0.089338  0  3.917767  0  0  -0.085459  0  3.927221  0  0  -0.069459  -0.091951  0  3.911305  0
C  C77  1  0.10196571  0.34047083  0.22584922  1  0  -0.026678  0  3.65952  0  0  -0.0893  0  3.917798  0  0  -0.085423  0  3.927256  0  0  -0.069463  -0.091913  0  3.91133  0
C  C78  1  0.60196376  0.15952878  0.77415056  1  0  -0.026556  0  3.659404  0  0  -0.089243  0  3.917739  0  0  -0.085361  0  3.927196  0  0  -0.069443  -0.091858  0  3.911273  0
C  C79  1  0.89803551  0.84047180  0.27415083  1  0  -0.026765  0  3.659594  0  0  -0.089268  0  3.917735  0  0  -0.085389  0  3.927189  0  0  -0.069446  -0.091882  0  3.911269  0
C  C80  1  0.48618694  0.57236134  0.76640655  1  0  0.123539  0  3.722538  0  0  0.141224  0  3.95882  0  0  0.145534  0  3.981155  0  0  0.007162  0.138534  0  3.943629  0
C  C81  1  0.01381284  0.42763850  0.26640605  1  0  0.123405  0  3.722704  0  0  0.141109  0  3.959004  0  0  0.14542  0  3.981339  0  0  0.007135  0.138421  0  3.943812  0
C  C82  1  0.51381084  0.07236110  0.73359430  1  0  0.123364  0  3.722744  0  0  0.141115  0  3.959008  0  0  0.145422  0  3.981345  0  0  0.007155  0.138422  0  3.943821  0
C  C83  1  0.98618699  0.92764019  0.23359401  1  0  0.123511  0  3.722673  0  0  0.141151  0  3.958996  0  0  0.145461  0  3.98133  0  0  0.007173  0.138464  0  3.943803  0
C  C84  1  0.37150406  0.57411189  0.59232886  1  0  0.017691  0  3.637863  0  0  -0.001852  0  3.880953  0  0  -0.003034  0  3.89444  0  0  -0.003341  -0.001126  0  3.871681  0
C  C85  1  0.12849409  0.42588864  0.09232960  1  0  0.017682  0  3.637971  0  0  -0.001823  0  3.880974  0  0  -0.003014  0  3.894483  0  0  -0.003295  -0.001107  0  3.87171  0
C  C86  1  0.62849647  0.07411170  0.90767017  1  0  0.017748  0  3.637851  0  0  -0.00177  0  3.880843  0  0  -0.002958  0  3.894334  0  0  -0.003313  -0.001043  0  3.871568  0
C  C87  1  0.87150436  0.92588817  0.40767166  1  0  0.017727  0  3.637869  0  0  -0.001819  0  3.88095  0  0  -0.003009  0  3.894441  0  0  -0.003324  -0.001093  0  3.871672  0
C  C88  1  0.22514846  0.51846117  0.54288078  1  0  -0.180357  0  3.626836  0  0  -0.225359  0  3.875923  0  0  -0.227083  0  3.89048  0  0  -0.158296  -0.223986  0  3.865799  0
C  C89  1  0.27484824  0.48153935  0.04288036  1  0  -0.180479  0  3.626918  0  0  -0.225511  0  3.87602  0  0  -0.227228  0  3.890562  0  0  -0.158333  -0.224132  0  3.865892  0
C  C90  1  0.77485070  0.01846099  0.95711885  1  0  -0.180429  0  3.62688  0  0  -0.225485  0  3.875969  0  0  -0.227201  0  3.890524  0  0  -0.15831  -0.224106  0  3.865838  0
C  C91  1  0.72514883  0.98153817  0.45712091  1  0  -0.180431  0  3.62685  0  0  -0.225451  0  3.875933  0  0  -0.227147  0  3.890445  0  0  -0.158309  -0.224078  0  3.865808  0
C  C92  1  0.75185988  0.47017168  0.78919611  1  0  0.128065  0  3.736389  0  0  0.101759  0  3.978001  0  0  0.108543  0  3.997094  0  0  0.040586  0.097444  0  3.96503  0
C  C93  1  0.74814079  0.52982890  0.28919569  1  0  0.127965  0  3.736584  0  0  0.101674  0  3.978186  0  0  0.108463  0  3.997281  0  0  0.040533  0.097362  0  3.965217  0
C  C94  1  0.24813790  0.97017044  0.71080541  1  0  0.127905  0  3.736554  0  0  0.101619  0  3.97816  0  0  0.1084  0  3.997253  0  0  0.040529  0.097307  0  3.965186  0
C  C95  1  0.25186180  0.02982939  0.21080430  1  0  0.127916  0  3.736599  0  0  0.101622  0  3.978207  0  0  0.108401  0  3.997299  0  0  0.040531  0.097307  0  3.965237  0
C  C96  1  0.38405289  0.50585486  0.81264062  1  0  -0.16316  0  3.705323  0  0  -0.183652  0  3.956187  0  0  -0.191534  0  3.976889  0  0  -0.084068  -0.17866  0  3.942499  0
C  C97  1  0.11594557  0.49414353  0.31263895  1  0  -0.163122  0  3.705478  0  0  -0.183598  0  3.956336  0  0  -0.19148  0  3.977037  0  0  -0.084056  -0.178606  0  3.942644  0
C  C98  1  0.61594488  0.00585608  0.68736143  1  0  -0.163186  0  3.705487  0  0  -0.183671  0  3.956343  0  0  -0.191552  0  3.977044  0  0  -0.084093  -0.178673  0  3.942646  0
C  C99  1  0.88405426  0.99414448  0.18736112  1  0  -0.163201  0  3.705467  0  0  -0.183681  0  3.956349  0  0  -0.191562  0  3.977048  0  0  -0.084095  -0.178692  0  3.942656  0
C  C100  1  0.67439903  0.55329618  0.75485652  1  0  -0.166014  0  3.713013  0  0  -0.181184  0  3.950094  0  0  -0.189338  0  3.971142  0  0  -0.088402  -0.176004  0  3.936123  0
C  C101  1  0.82559883  0.44670366  0.25485611  1  0  -0.165948  0  3.712987  0  0  -0.181124  0  3.950062  0  0  -0.189276  0  3.971109  0  0  -0.088385  -0.175951  0  3.936096  0
C  C102  1  0.32559875  0.05329668  0.74514614  1  0  -0.16585  0  3.713086  0  0  -0.181051  0  3.95013  0  0  -0.189202  0  3.97118  0  0  -0.08837  -0.175876  0  3.936159  0
C  C103  1  0.17440239  0.94670316  0.24514516  1  0  -0.165881  0  3.712985  0  0  -0.18103  0  3.950053  0  0  -0.189182  0  3.971101  0  0  -0.088331  -0.175853  0  3.936084  0
C  C104  1  0.14305719  0.42829775  0.58553040  1  0  0.118162  0  3.644649  0  0  0.128733  0  3.884824  0  0  0.129058  0  3.904023  0  0  -0.093008  0.128588  0  3.871581  0
C  C105  1  0.35694371  0.57170205  0.08553123  1  0  0.118092  0  3.644719  0  0  0.128698  0  3.884825  0  0  0.129021  0  3.904031  0  0  -0.092981  0.128552  0  3.871584  0
C  C106  1  0.85694196  0.92829728  0.91446929  1  0  0.11808  0  3.644805  0  0  0.128756  0  3.88481  0  0  0.129078  0  3.904008  0  0  -0.092962  0.128613  0  3.871557  0
C  C107  1  0.64305750  0.07170112  0.41446999  1  0  0.118134  0  3.644567  0  0  0.128787  0  3.88459  0  0  0.129105  0  3.90379  0  0  -0.09299  0.128642  0  3.871345  0
C  C108  1  0.48262413  0.63929409  0.53486741  1  0  0.634739  0  3.861137  0  0  0.586555  0  4.156216  0  0  0.620145  0  4.15152  0  0  0.19739  0.563717  0  4.158538  0
C  C109  1  0.01737670  0.36070643  0.03486569  1  0  0.634774  0  3.861057  0  0  0.586633  0  4.156056  0  0  0.620223  0  4.151358  0  0  0.197467  0.563807  0  4.158371  0
C  C110  1  0.51737779  0.13929537  0.96513224  1  0  0.63453  0  3.861403  0  0  0.586425  0  4.156349  0  0  0.620016  0  4.151652  0  0  0.197307  0.563591  0  4.158666  0
C  C111  1  0.98262451  0.86070525  0.46513254  1  0  0.634683  0  3.861257  0  0  0.586534  0  4.156272  0  0  0.620126  0  4.151576  0  0  0.197355  0.563703  0  4.158588  0
C  C112  1  0.28533901  0.34569037  0.59249773  1  0  -0.320876  0  3.699595  0  0  -0.396093  0  3.937037  0  0  -0.399259  0  3.948147  0  0  -0.249912  -0.39364  0  3.92931  0
C  C113  1  0.21466329  0.65431090  0.09249611  1  0  -0.320754  0  3.699494  0  0  -0.395909  0  3.93695  0  0  -0.399086  0  3.948047  0  0  -0.249841  -0.393459  0  3.929228  0
C  C114  1  0.71466015  0.84568990  0.90750134  1  0  -0.320799  0  3.699608  0  0  -0.396058  0  3.937029  0  0  -0.399228  0  3.948133  0  0  -0.249891  -0.393604  0  3.929316  0
C  C115  1  0.78533931  0.15431070  0.40750511  1  0  -0.320824  0  3.699536  0  0  -0.39597  0  3.936973  0  0  -0.39915  0  3.948076  0  0  -0.249841  -0.393521  0  3.929245  0
C  C116  1  0.96921528  0.39404580  0.54078928  1  0  -0.322035  0  3.695135  0  0  -0.394947  0  3.930348  0  0  -0.398561  0  3.941785  0  0  -0.246368  -0.392212  0  3.922435  0
C  C117  1  0.53078504  0.60595399  0.04079003  1  0  -0.322138  0  3.695178  0  0  -0.395053  0  3.930405  0  0  -0.398668  0  3.941842  0  0  -0.24643  -0.392313  0  3.922489  0
C  C118  1  0.03078526  0.89404607  0.95921041  1  0  -0.322132  0  3.69512  0  0  -0.395051  0  3.930324  0  0  -0.398664  0  3.94176  0  0  -0.246418  -0.392312  0  3.922411  0
C  C119  1  0.46921341  0.10595308  0.45920998  1  0  -0.32225  0  3.695197  0  0  -0.395159  0  3.930424  0  0  -0.398773  0  3.941861  0  0  -0.24642  -0.392429  0  3.922514  0
Br  Br120  1  0.90671655  0.77867507  0.70486610  1  0  -0.607964  0  0.870468  0  0  -0.555394  0  1.142466  0  0  -0.574961  0  1.11961  0  0  -0.300521  -0.541098  0  1.158064  0
Br  Br121  1  0.59327847  0.22132110  0.20486922  1  0  -0.607965  0  0.870496  0  0  -0.555375  0  1.142464  0  0  -0.574943  0  1.11961  0  0  -0.300518  -0.541078  0  1.158066  0
Br  Br122  1  0.09326741  0.27867558  0.79512026  1  0  -0.607962  0  0.870515  0  0  -0.55538  0  1.142491  0  0  -0.574945  0  1.11963  0  0  -0.300514  -0.541081  0  1.158085  0
Br  Br123  1  0.40671445  0.72131694  0.29513323  1  0  -0.607976  0  0.870497  0  0  -0.555403  0  1.142488  0  0  -0.574966  0  1.119628  0  0  -0.300527  -0.541107  0  1.158084  0
N  N124  1  0.65286576  0.40681404  0.83399907  1  0  -0.331208  0  3.264991  0  0  -0.251173  0  3.522208  0  0  -0.271514  0  3.542018  0  0  -0.333643  -0.237409  0  3.50848  0
N  N125  1  0.84713497  0.59318581  0.33399747  1  0  -0.331165  0  3.265127  0  0  -0.251129  0  3.522328  0  0  -0.271469  0  3.542135  0  0  -0.333601  -0.237362  0  3.5086  0
N  N126  1  0.34713478  0.90681425  0.66600304  1  0  -0.331162  0  3.265118  0  0  -0.251135  0  3.522326  0  0  -0.271476  0  3.542138  0  0  -0.333635  -0.237377  0  3.508608  0
N  N127  1  0.15286624  0.09318630  0.16600253  1  0  -0.331192  0  3.26508  0  0  -0.251161  0  3.522287  0  0  -0.271502  0  3.542099  0  0  -0.333651  -0.237398  0  3.508562  0
N  N128  1  0.28116031  0.63264704  0.65558624  1  0  -0.432548  0  3.277541  0  0  -0.361133  0  3.525413  0  0  -0.381117  0  3.538809  0  0  -0.479642  -0.346995  0  3.515679  0
N  N129  1  0.21883793  0.36735278  0.15558579  1  0  -0.432501  0  3.27755  0  0  -0.361066  0  3.525423  0  0  -0.381049  0  3.538822  0  0  -0.479631  -0.346927  0  3.515684  0
N  N130  1  0.71884023  0.13264683  0.84441281  1  0  -0.432528  0  3.277441  0  0  -0.361081  0  3.525345  0  0  -0.381066  0  3.538744  0  0  -0.479625  -0.346944  0  3.515609  0
N  N131  1  0.78116052  0.86735303  0.34441366  1  0  -0.432507  0  3.27754  0  0  -0.361099  0  3.525394  0  0  -0.381084  0  3.538794  0  0  -0.479635  -0.346959  0  3.515651  0
O  O132  1  0.60859983  0.59712206  0.49453336  1  0  -0.604348  0  1.968456  0  0  -0.543499  0  2.204415  0  0  -0.572192  0  2.195331  0  0  -0.328095  -0.52343  0  2.209871  0
O  O133  1  0.89140251  0.40287710  0.99453260  1  0  -0.604361  0  1.968473  0  0  -0.543534  0  2.204413  0  0  -0.572228  0  2.195329  0  0  -0.328106  -0.523468  0  2.209868  0
O  O134  1  0.39140415  0.09712324  0.00546604  1  0  -0.604242  0  1.968584  0  0  -0.543423  0  2.204499  0  0  -0.572116  0  2.195416  0  0  -0.328045  -0.523355  0  2.209955  0
O  O135  1  0.10859941  0.90287581  0.50546648  1  0  -0.604338  0  1.968539  0  0  -0.543505  0  2.204484  0  0  -0.572199  0  2.195398  0  0  -0.32808  -0.523441  0  2.209941  0
O  O136  1  0.44112676  0.72962085  0.52595864  1  0  -0.639032  0  1.99921  0  0  -0.567272  0  2.252388  0  0  -0.597373  0  2.240428  0  0  -0.328554  -0.546174  0  2.259845  0
O  O137  1  0.05887821  0.27037967  0.02595570  1  0  -0.63908  0  1.999143  0  0  -0.567336  0  2.252306  0  0  -0.597437  0  2.240345  0  0  -0.328657  -0.546239  0  2.259765  0
O  O138  1  0.55887654  0.22962213  0.97404042  1  0  -0.639008  0  1.999309  0  0  -0.567278  0  2.252451  0  0  -0.597381  0  2.240492  0  0  -0.328559  -0.546183  0  2.259912  0
O  O139  1  0.94112853  0.77037629  0.47404070  1  0  -0.639007  0  1.999247  0  0  -0.56725  0  2.252393  0  0  -0.597353  0  2.240436  0  0  -0.32853  -0.546155  0  2.259849  0
