# generated using pymatgen
data_AgH3C5N5O3
_symmetry_space_group_name_H-M   'P 1'
_cell_length_a   7.14876137
_cell_length_b   7.14875039
_cell_length_c   15.84466924
_cell_angle_alpha   79.26300047
_cell_angle_beta   79.26294206
_cell_angle_gamma   78.51942626
_symmetry_Int_Tables_number   1
_chemical_formula_structural   AgH3C5N5O3
_chemical_formula_sum   'Ag4 H12 C20 N20 O12'
_cell_volume   770.22340133
_cell_formula_units_Z   4
loop_
 _symmetry_equiv_pos_site_id
 _symmetry_equiv_pos_as_xyz
  1  'x, y, z'
loop_
 _atom_site_type_symbol
 _atom_site_label
 _atom_site_symmetry_multiplicity
 _atom_site_fract_x
 _atom_site_fract_y
 _atom_site_fract_z
 _atom_site_occupancy
 _atom_site_hle17_bader_spin_density
 _atom_site_hle17_ddec_charge
 _atom_site_hle17_ddec_spin_density
 _atom_site_hle17_ddec_sum_bond_order
 _atom_site_hle17_magmom
 _atom_site_hse06_10hf_bader_spin_density
 _atom_site_hse06_10hf_ddec_charge
 _atom_site_hse06_10hf_ddec_spin_density
 _atom_site_hse06_10hf_ddec_sum_bond_order
 _atom_site_hse06_10hf_magmom
 _atom_site_hse06_bader_spin_density
 _atom_site_hse06_ddec_charge
 _atom_site_hse06_ddec_spin_density
 _atom_site_hse06_ddec_sum_bond_order
 _atom_site_hse06_magmom
 _atom_site_pbe_bader_spin_density
 _atom_site_pbe_cm5_charge
 _atom_site_pbe_ddec_charge
 _atom_site_pbe_ddec_spin_density
 _atom_site_pbe_ddec_sum_bond_order
 _atom_site_pbe_magmom
Ag  Ag0  1  0.92032774  0.62787359  0.37035549  1  0  0.524412  0  1.527677  0  0  0.386452  0  1.994285  0  0  0.401022  0  1.948922  0  0  0.50559  0.380338  0  2.023527  0
Ag  Ag1  1  0.37212128  0.07967343  0.12964323  1  0  0.524599  0  1.527636  0  0  0.386456  0  1.994279  0  0  0.401035  0  1.94892  0  0  0.505596  0.380346  0  2.023524  0
Ag  Ag2  1  0.07967816  0.37212158  0.62964461  1  0  0.524711  0  1.527574  0  0  0.386446  0  1.994341  0  0  0.40102  0  1.948978  0  0  0.505592  0.380331  0  2.023584  0
Ag  Ag3  1  0.62788099  0.92032604  0.87035682  1  0  0.524738  0  1.527489  0  0  0.386485  0  1.994217  0  0  0.401052  0  1.948855  0  0  0.505604  0.380377  0  2.023466  0
H  H4  1  0.52200639  0.84526605  0.44537330  1  0  0.109767  0  0.937315  0  0  0.109424  0  1.013237  0  0  0.112964  0  1.009378  0  0  0.128115  0.106762  0  1.016274  0
H  H5  1  0.15473352  0.47798996  0.05462433  1  0  0.109757  0  0.937239  0  0  0.109391  0  1.013234  0  0  0.112929  0  1.009379  0  0  0.128087  0.106729  0  1.016271  0
H  H6  1  0.47799709  0.15473494  0.55462211  1  0  0.109784  0  0.937276  0  0  0.10941  0  1.013264  0  0  0.11295  0  1.009407  0  0  0.128116  0.106749  0  1.016301  0
H  H7  1  0.84526330  0.52200798  0.94537818  1  0  0.109774  0  0.937252  0  0  0.109418  0  1.013245  0  0  0.112959  0  1.009387  0  0  0.128095  0.106758  0  1.016283  0
H  H8  1  0.66745953  0.33108514  0.34225131  1  0  0.11577  0  0.958805  0  0  0.116303  0  1.029937  0  0  0.120504  0  1.026108  0  0  0.123889  0.112933  0  1.033174  0
H  H9  1  0.66891392  0.33254595  0.15774608  1  0  0.115712  0  0.958985  0  0  0.116357  0  1.029979  0  0  0.120559  0  1.026149  0  0  0.123871  0.112984  0  1.033223  0
H  H10  1  0.33254417  0.66891436  0.65774799  1  0  0.115697  0  0.95884  0  0  0.116318  0  1.029931  0  0  0.120519  0  1.026102  0  0  0.123863  0.112942  0  1.03318  0
H  H11  1  0.33108044  0.66745774  0.84225679  1  0  0.115747  0  0.958872  0  0  0.116354  0  1.029957  0  0  0.120555  0  1.026128  0  0  0.123864  0.112978  0  1.033206  0
H  H12  1  0.31331419  0.32547331  0.34637246  1  0  0.107691  0  0.949414  0  0  0.110021  0  1.017498  0  0  0.113231  0  1.015789  0  0  0.123177  0.107334  0  1.019152  0
H  H13  1  0.67452451  0.68669239  0.15362377  1  0  0.10753  0  0.949533  0  0  0.11  0  1.017456  0  0  0.113223  0  1.015744  0  0  0.123156  0.107309  0  1.019111  0
H  H14  1  0.68669184  0.67452912  0.65362515  1  0  0.107633  0  0.94935  0  0  0.109978  0  1.017422  0  0  0.113196  0  1.015716  0  0  0.123168  0.107286  0  1.01908  0
H  H15  1  0.32546870  0.31330985  0.84637805  1  0  0.107687  0  0.94927  0  0  0.110034  0  1.017343  0  0  0.113239  0  1.015651  0  0  0.123164  0.107351  0  1.018989  0
C  C16  1  0.27922229  0.72465681  0.42727088  1  0  0.11203  0  3.724797  0  0  0.10836  0  3.969642  0  0  0.110669  0  3.987624  0  0  0.128391  0.10642  0  3.958646  0
C  C17  1  0.27534387  0.72077700  0.07272520  1  0  0.112071  0  3.725097  0  0  0.108428  0  3.969885  0  0  0.11075  0  3.987871  0  0  0.128449  0.106486  0  3.958888  0
C  C18  1  0.72077694  0.27534413  0.57272425  1  0  0.11217  0  3.724865  0  0  0.108437  0  3.969689  0  0  0.110752  0  3.987671  0  0  0.128461  0.106494  0  3.958695  0
C  C19  1  0.72465386  0.27922384  0.92727700  1  0  0.111905  0  3.725213  0  0  0.108288  0  3.969996  0  0  0.110601  0  3.987979  0  0  0.128478  0.106346  0  3.959001  0
C  C20  1  0.47553602  0.72867925  0.42353536  1  0  0.082054  0  3.617286  0  0  0.046098  0  3.866829  0  0  0.048727  0  3.883756  0  0  0.067134  0.044007  0  3.856144  0
C  C21  1  0.27132160  0.52446571  0.07646487  1  0  0.082176  0  3.617295  0  0  0.046116  0  3.867008  0  0  0.048746  0  3.883932  0  0  0.067171  0.044024  0  3.856328  0
C  C22  1  0.52447190  0.27132026  0.57646675  1  0  0.082088  0  3.617309  0  0  0.046098  0  3.866981  0  0  0.048725  0  3.883908  0  0  0.067051  0.044006  0  3.856301  0
C  C23  1  0.72867693  0.47553082  0.92353572  1  0  0.082228  0  3.617237  0  0  0.046162  0  3.866927  0  0  0.048788  0  3.883858  0  0  0.067133  0.044071  0  3.856246  0
C  C24  1  0.55473484  0.44520573  0.36556437  1  0  0.084701  0  3.623252  0  0  0.054867  0  3.876854  0  0  0.058343  0  3.892165  0  0  0.05645  0.051704  0  3.86817  0
C  C25  1  0.55479372  0.44526736  0.13443331  1  0  0.084697  0  3.623387  0  0  0.054835  0  3.876871  0  0  0.058311  0  3.892184  0  0  0.056496  0.051671  0  3.868189  0
C  C26  1  0.44527426  0.55479526  0.63443563  1  0  0.084791  0  3.623338  0  0  0.054837  0  3.87695  0  0  0.058315  0  3.89226  0  0  0.056454  0.051681  0  3.868258  0
C  C27  1  0.44520055  0.55472911  0.86556827  1  0  0.08482  0  3.623281  0  0  0.054872  0  3.876877  0  0  0.058352  0  3.892185  0  0  0.056519  0.051727  0  3.868168  0
C  C28  1  0.35954661  0.44310285  0.36777584  1  0  0.086076  0  3.635674  0  0  0.058174  0  3.890393  0  0  0.05997  0  3.90595  0  0  0.054305  0.056652  0  3.881324  0
C  C29  1  0.55689363  0.64045623  0.13222083  1  0  0.086106  0  3.635689  0  0  0.058107  0  3.890386  0  0  0.059908  0  3.905919  0  0  0.054228  0.05659  0  3.881315  0
C  C30  1  0.64045687  0.55689813  0.63221957  1  0  0.086177  0  3.635806  0  0  0.058276  0  3.890537  0  0  0.060073  0  3.90607  0  0  0.054274  0.056753  0  3.881471  0
C  C31  1  0.44309671  0.35954596  0.86778313  1  0  0.085999  0  3.635715  0  0  0.058089  0  3.890496  0  0  0.059891  0  3.906033  0  0  0.054244  0.056559  0  3.881425  0
C  C32  1  0.13037322  0.87319895  0.46536868  1  0  0.267927  0  3.715197  0  0  0.250681  0  3.980047  0  0  0.258434  0  3.99193  0  0  0.258778  0.244406  0  3.974297  0
C  C33  1  0.12679883  0.86962732  0.03462951  1  0  0.267929  0  3.715426  0  0  0.250757  0  3.980085  0  0  0.25851  0  3.991964  0  0  0.258786  0.244482  0  3.974339  0
C  C34  1  0.86963453  0.12680208  0.53462638  1  0  0.267791  0  3.71545  0  0  0.250764  0  3.980022  0  0  0.25852  0  3.991902  0  0  0.258799  0.244488  0  3.974276  0
C  C35  1  0.87319684  0.13036915  0.96537384  1  0  0.267826  0  3.715469  0  0  0.250701  0  3.980092  0  0  0.258454  0  3.991975  0  0  0.258719  0.244427  0  3.974344  0
N  N36  1  0.22156398  0.58192875  0.39849425  1  0  -0.257391  0  3.255925  0  0  -0.202355  0  3.552259  0  0  -0.208613  0  3.55913  0  0  -0.316234  -0.199071  0  3.548355  0
N  N37  1  0.41806816  0.77843802  0.10150315  1  0  -0.257446  0  3.25599  0  0  -0.202353  0  3.55227  0  0  -0.208647  0  3.559185  0  0  -0.316197  -0.199062  0  3.548359  0
N  N38  1  0.77843897  0.41807512  0.60150160  1  0  -0.257453  0  3.255707  0  0  -0.202419  0  3.552051  0  0  -0.208693  0  3.558947  0  0  -0.31619  -0.199128  0  3.54814  0
N  N39  1  0.58192335  0.22156563  0.89849995  1  0  -0.257315  0  3.255971  0  0  -0.202329  0  3.552324  0  0  -0.208595  0  3.559211  0  0  -0.31623  -0.199042  0  3.54842  0
N  N40  1  0.61216049  0.58871859  0.39336207  1  0  -0.238142  0  3.279653  0  0  -0.169444  0  3.564863  0  0  -0.179749  0  3.578226  0  0  -0.325787  -0.163036  0  3.556345  0
N  N41  1  0.41127849  0.38784049  0.10663529  1  0  -0.238196  0  3.279659  0  0  -0.169446  0  3.564889  0  0  -0.179751  0  3.578251  0  0  -0.325811  -0.163035  0  3.556368  0
N  N42  1  0.38783727  0.41128229  0.60663696  1  0  -0.238227  0  3.279463  0  0  -0.16957  0  3.564841  0  0  -0.179873  0  3.5782  0  0  -0.325803  -0.163166  0  3.556327  0
N  N43  1  0.58871536  0.61216612  0.89336549  1  0  -0.23823  0  3.279306  0  0  -0.169519  0  3.56462  0  0  -0.179824  0  3.577983  0  0  -0.325832  -0.163118  0  3.556109  0
N  N44  1  0.94349035  0.86735269  0.46379724  1  0  -0.133055  0  3.070505  0  0  -0.104169  0  3.376209  0  0  -0.104182  0  3.377095  0  0  -0.151099  -0.106021  0  3.378234  0
N  N45  1  0.13264456  0.05650852  0.03620279  1  0  -0.132989  0  3.070439  0  0  -0.1041  0  3.376113  0  0  -0.10411  0  3.376995  0  0  -0.151093  -0.105953  0  3.378141  0
N  N46  1  0.05651309  0.13264826  0.53620133  1  0  -0.132862  0  3.070467  0  0  -0.104084  0  3.376166  0  0  -0.104099  0  3.377052  0  0  -0.151073  -0.105936  0  3.378195  0
N  N47  1  0.86734661  0.94348938  0.96379765  1  0  -0.132928  0  3.070504  0  0  -0.104117  0  3.376226  0  0  -0.104131  0  3.377112  0  0  -0.151097  -0.10597  0  3.378256  0
N  N48  1  0.19043356  0.00343533  0.50110963  1  0  -0.122536  0  2.924528  0  0  -0.109329  0  3.20466  0  0  -0.110973  0  3.210951  0  0  -0.133596  -0.109339  0  3.202601  0
N  N49  1  0.99656243  0.80956820  0.99888974  1  0  -0.122585  0  2.924676  0  0  -0.109347  0  3.204733  0  0  -0.11099  0  3.211024  0  0  -0.133571  -0.109356  0  3.202675  0
N  N50  1  0.80956395  0.99656701  0.49888868  1  0  -0.122455  0  2.924543  0  0  -0.10931  0  3.204557  0  0  -0.110955  0  3.210847  0  0  -0.133571  -0.10932  0  3.202498  0
N  N51  1  0.00343167  0.19043695  0.00111178  1  0  -0.122526  0  2.92452  0  0  -0.109317  0  3.204532  0  0  -0.110962  0  3.210822  0  0  -0.133541  -0.109325  0  3.202472  0
N  N52  1  0.78879199  0.93455032  0.22244169  1  0  0.690567  0  4.136668  0  0  0.734442  0  4.409051  0  0  0.764368  0  4.415148  0  0  0.088399  0.713602  0  4.404322  0
N  N53  1  0.06544728  0.21121109  0.27755677  1  0  0.694569  0  4.135306  0  0  0.734578  0  4.408766  0  0  0.764506  0  4.414856  0  0  0.088526  0.713739  0  4.404036  0
N  N54  1  0.21121132  0.06544336  0.77756001  1  0  0.694547  0  4.135051  0  0  0.734573  0  4.408517  0  0  0.764497  0  4.414613  0  0  0.088495  0.713736  0  4.403787  0
N  N55  1  0.93455163  0.78879123  0.72244332  1  0  0.694562  0  4.135138  0  0  0.734489  0  4.408719  0  0  0.764415  0  4.414817  0  0  0.088468  0.713649  0  4.403991  0
O  O56  1  0.91825019  0.78065835  0.22237685  1  0  -0.484534  0  1.789594  0  0  -0.467422  0  2.033316  0  0  -0.487671  0  2.024711  0  0  -0.217727  -0.451472  0  2.038049  0
O  O57  1  0.21934249  0.08175344  0.27762060  1  0  -0.486313  0  1.789597  0  0  -0.46755  0  2.033236  0  0  -0.487797  0  2.024627  0  0  -0.217785  -0.4516  0  2.037972  0
O  O58  1  0.08175660  0.21933971  0.77762358  1  0  -0.486223  0  1.789464  0  0  -0.46748  0  2.033141  0  0  -0.487728  0  2.024535  0  0  -0.217743  -0.451529  0  2.037878  0
O  O59  1  0.78065538  0.91825468  0.72237784  1  0  -0.486278  0  1.789496  0  0  -0.467473  0  2.033183  0  0  -0.487723  0  2.024581  0  0  -0.21774  -0.451522  0  2.03792  0
O  O60  1  0.71502687  0.99835282  0.29193800  1  0  -0.449628  0  1.751264  0  0  -0.442826  0  1.963061  0  0  -0.45806  0  1.956754  0  0  -0.187381  -0.43136  0  1.967065  0
O  O61  1  0.00164267  0.28497734  0.20805995  1  0  -0.451348  0  1.751225  0  0  -0.442839  0  1.96297  0  0  -0.458076  0  1.956669  0  0  -0.187412  -0.431375  0  1.966975  0
O  O62  1  0.28497903  0.00164234  0.70806274  1  0  -0.451295  0  1.75107  0  0  -0.442845  0  1.962895  0  0  -0.458076  0  1.956581  0  0  -0.18738  -0.431377  0  1.966897  0
O  O63  1  0.99834912  0.71502489  0.79194199  1  0  -0.451328  0  1.751063  0  0  -0.442851  0  1.962925  0  0  -0.458076  0  1.956601  0  0  -0.187423  -0.431388  0  1.966934  0
O  O64  1  0.73694632  0.01638582  0.15027182  1  0  -0.495088  0  1.861825  0  0  -0.479339  0  2.106139  0  0  -0.49905  0  2.101044  0  0  -0.202436  -0.463923  0  2.108638  0
O  O65  1  0.98361086  0.26305535  0.34972849  1  0  -0.496822  0  1.861923  0  0  -0.479327  0  2.106104  0  0  -0.499039  0  2.101006  0  0  -0.202455  -0.463915  0  2.108603  0
O  O66  1  0.26305324  0.98360491  0.84973106  1  0  -0.496834  0  1.86181  0  0  -0.479394  0  2.106044  0  0  -0.499101  0  2.100939  0  0  -0.202501  -0.463988  0  2.108553  0
O  O67  1  0.01639142  0.73694412  0.65027156  1  0  -0.496789  0  1.861844  0  0  -0.479319  0  2.106121  0  0  -0.499034  0  2.101029  0  0  -0.202447  -0.463899  0  2.108616  0
