# generated using pymatgen
data_Zr3H9C25ClO16F5
_symmetry_space_group_name_H-M   'P 1'
_cell_length_a   14.79934588
_cell_length_b   14.82000463
_cell_length_c   14.83673177
_cell_angle_alpha   60.22429353
_cell_angle_beta   59.97314583
_cell_angle_gamma   60.07854578
_symmetry_Int_Tables_number   1
_chemical_formula_structural   Zr3H9C25ClO16F5
_chemical_formula_sum   'Zr6 H18 C50 Cl2 O32 F10'
_cell_volume   2305.76091385
_cell_formula_units_Z   2
loop_
 _symmetry_equiv_pos_site_id
 _symmetry_equiv_pos_as_xyz
  1  'x, y, z'
loop_
 _atom_site_type_symbol
 _atom_site_label
 _atom_site_symmetry_multiplicity
 _atom_site_fract_x
 _atom_site_fract_y
 _atom_site_fract_z
 _atom_site_occupancy
 _atom_site_pbe_bader_charge
 _atom_site_pbe_bader_spin_density
 _atom_site_pbe_cm5_charge
 _atom_site_pbe_ddec_charge
 _atom_site_pbe_ddec_spin_density
 _atom_site_pbe_ddec_sum_bond_order
 _atom_site_pbe_magmom
Zr  Zr0  1  0.87843706  0.88261894  0.61791305  1  2.633953  0  1.627346  2.373793  0  2.742981  0
Zr  Zr1  1  0.11958351  0.11834802  0.38207726  1  2.637379  0  1.637399  2.381324  0  2.768425  0
Zr  Zr2  1  0.11733953  0.88203027  0.61835739  1  2.635927  0  1.633075  2.380066  0  2.766427  0
Zr  Zr3  1  0.88077326  0.12190769  0.37874829  1  2.634957  0  1.622111  2.372702  0  2.732194  0
Zr  Zr4  1  0.11739677  0.88144387  0.37993169  1  2.640533  0  1.629464  2.378157  0  2.743839  0
Zr  Zr5  1  0.87861466  0.12055036  0.61921553  1  2.638771  0  1.629971  2.378572  0  2.745757  0
H  H6  1  0.09043383  0.72017066  0.59292537  1  0.602463  0  0.33164  0.42253  0  0.859959  0
H  H7  1  0.09400719  0.09439416  0.21826353  1  0.585714  0  0.331  0.42197  0  0.857809  0
H  H8  1  0.09318585  0.09311388  0.59462958  1  0.608611  0  0.331747  0.422967  0  0.858536  0
H  H9  1  0.71609198  0.09646497  0.59235998  1  0.593895  0  0.330029  0.420996  0  0.861254  0
H  H10  1  0.13670452  0.59285866  0.35696040  1  0.145169  0  0.124937  0.157194  0  0.970845  0
H  H11  1  0.85255277  0.41499125  0.63761356  1  0.151532  0  0.124373  0.156617  0  0.973769  0
H  H12  1  0.59637018  0.13322726  0.91776041  1  0.132756  0  0.12516  0.1577  0  0.970303  0
H  H13  1  0.41346949  0.85421788  0.09418972  1  0.156179  0  0.124478  0.156718  0  0.973745  0
H  H14  1  0.85196488  0.13761684  0.09450207  1  0.146832  0  0.122103  0.151787  0  0.981709  0
H  H15  1  0.13411970  0.85533128  0.91437615  1  0.161666  0  0.120278  0.150643  0  0.987147  0
H  H16  1  0.59334457  0.41566524  0.35315319  1  0.112005  0  0.121326  0.149915  0  0.983552  0
H  H17  1  0.41244333  0.59537051  0.63579140  1  0.122426  0  0.120968  0.151663  0  0.985807  0
H  H18  1  0.75152661  0.63110225  0.95881510  1  0.079469  0  0.099289  0.116509  0  0.989265  0
H  H19  1  0.83767847  0.54595357  0.87416022  1  0.074795  0  0.099469  0.114839  0  0.983873  0
H  H20  1  0.83715357  0.37617594  0.04395473  1  0.050651  0  0.099415  0.110901  0  0.98066  0
H  H21  1  0.75096543  0.46122909  0.12901320  1  0.074093  0  0.099713  0.111857  0  0.981857  0
H  H22  1  0.59596602  0.85687414  0.63338399  1  0.140064  0  0.124683  0.156914  0  0.97364  0
H  H23  1  0.41289648  0.13548935  0.35452533  1  0.153739  0  0.125413  0.15853  0  0.972227  0
C  C24  1  0.99011016  0.70214553  0.49907807  1  1.588416  0  0.237025  0.654685  0  4.101447  0
C  C25  1  0.30704045  0.99799100  0.20197900  1  1.576063  0  0.238131  0.655096  0  4.097005  0
C  C26  1  0.00012911  0.30512624  0.49584368  1  1.610575  0  0.237989  0.655879  0  4.097683  0
C  C27  1  0.69873877  0.99372630  0.80599976  1  1.597039  0  0.238015  0.65564  0  4.098526  0
C  C28  1  0.99801833  0.70241492  0.80438492  1  1.575297  0  0.236061  0.655415  0  4.09949  0
C  C29  1  0.70002797  0.00282747  0.48997367  1  1.599798  0  0.237924  0.656848  0  4.096929  0
C  C30  1  0.99850501  0.30605342  0.20087495  1  1.563554  0  0.235262  0.654309  0  4.09712  0
C  C31  1  0.30660624  0.99162655  0.50040160  1  1.586609  0  0.237241  0.654797  0  4.10128  0
C  C32  1  0.30439639  0.70091276  0.49259972  1  1.555027  0  0.237363  0.655091  0  4.097196  0
C  C33  1  0.99100102  0.00100022  0.80639155  1  1.583106  0  0.237309  0.655964  0  4.096151  0
C  C34  1  0.70027806  0.30906473  0.49750678  1  1.559622  0  0.23739  0.656889  0  4.095937  0
C  C35  1  0.99821121  0.99503193  0.19933998  1  1.602597  0  0.237233  0.655986  0  4.096628  0
C  C36  1  0.99967792  0.40696330  0.49447948  1  0.046153  0  -0.015246  -0.115922  0  3.951204  0
C  C37  1  0.98978466  0.60076247  0.50033282  1  0.015623  0  -0.015947  -0.119125  0  3.957706  0
C  C38  1  0.07934250  0.45916510  0.41639429  1  0.432103  0  0.107184  0.27098  0  4.039129  0
C  C39  1  0.91081787  0.54787071  0.57906679  1  0.45369  0  0.105731  0.267618  0  4.042138  0
C  C40  1  0.07432210  0.55389220  0.41878777  1  0.067353  0  -0.085276  -0.197381  0  3.964429  0
C  C41  1  0.91513358  0.45379416  0.57609271  1  0.025058  0  -0.087  -0.203212  0  3.972644  0
C  C42  1  0.40953976  0.99708781  0.10244146  1  0.028196  0  -0.014933  -0.114373  0  3.950238  0
C  C43  1  0.60019806  0.99051609  0.90927606  1  0.04769  0  -0.015803  -0.118967  0  3.955273  0
C  C44  1  0.46389115  0.07455944  0.05078696  1  0.467586  0  0.106984  0.269932  0  4.041228  0
C  C45  1  0.54679201  0.91210333  0.96190620  1  0.453605  0  0.106524  0.268638  0  4.039561  0
C  C46  1  0.55656095  0.07169664  0.95649598  1  0.048631  0  -0.085076  -0.197958  0  3.964331  0
C  C47  1  0.45373895  0.91531535  0.05576261  1  0.004998  0  -0.086255  -0.202795  0  3.971402  0
C  C48  1  0.98936810  0.00067046  0.90828977  1  0.070813  0  -0.014685  -0.115842  0  3.948044  0
C  C49  1  0.99740178  0.99307372  0.09985953  1  0.000595  0  -0.01473  -0.116351  0  3.953786  0
C  C50  1  0.91062548  0.07938487  0.96158889  1  0.420508  0  0.105228  0.268418  0  4.042675  0
C  C51  1  0.07595824  0.91412138  0.04677703  1  0.528881  0  0.106257  0.269934  0  4.038566  0
C  C52  1  0.91425966  0.07575829  0.05490629  1  0.008598  0  -0.088368  -0.204562  0  3.979063  0
C  C53  1  0.07215761  0.91757565  0.95359141  1  0.01287  0  -0.085882  -0.198834  0  3.966507  0
C  C54  1  0.40669643  0.60121276  0.49076233  1  0.048339  0  -0.015041  -0.116258  0  3.949434  0
C  C55  1  0.59981276  0.41048746  0.49744426  1  0.039653  0  -0.015242  -0.117242  0  3.953729  0
C  C56  1  0.46031152  0.54814305  0.41181459  1  0.47779  0  0.105671  0.269337  0  4.042503  0
C  C57  1  0.54624809  0.46363283  0.57632556  1  0.462501  0  0.10664  0.270414  0  4.037776  0
C  C58  1  0.55422808  0.45530046  0.41495113  1  0.02615  0  -0.087955  -0.203878  0  3.978941  0
C  C59  1  0.45219991  0.55641460  0.57331349  1  0.083017  0  -0.085411  -0.198851  0  3.966772  0
C  C60  1  0.00458454  0.60187383  0.90412739  1  0.044448  0  -0.015308  -0.131719  0  3.937063  0
C  C61  1  0.00473304  0.40565655  0.09997377  1  -0.01532  0  -0.014375  -0.129346  0  3.93339  0
C  C62  1  0.92544282  0.55071609  0.95566628  1  -0.012539  0  -0.00494  0.068969  0  3.907747  0
C  C63  1  0.08831427  0.45453835  0.04815730  1  0.126185  0  0.015606  0.063019  0  3.986  0
C  C64  1  0.92541205  0.45708228  0.04920648  1  -0.012617  0  -0.005527  0.065693  0  3.903998  0
C  C65  1  0.08793953  0.55044951  0.95282753  1  0.107233  0  0.015681  0.06626  0  3.975016  0
C  C66  1  0.82369186  0.55683668  0.94870122  1  -0.026213  0  -0.148208  -0.195901  0  3.856863  0
C  C67  1  0.82344199  0.45059101  0.05497393  1  -0.025063  0  -0.148051  -0.191992  0  3.869575  0
C  C68  1  0.40862780  0.99095757  0.49905395  1  0.05534  0  -0.015463  -0.119049  0  3.956673  0
C  C69  1  0.60017202  0.00148384  0.48896576  1  0.018203  0  -0.01519  -0.118229  0  3.957624  0
C  C70  1  0.46248017  0.91308538  0.57687812  1  0.497305  0  0.106722  0.271266  0  4.042022  0
C  C71  1  0.54640999  0.07924510  0.41103654  1  0.454419  0  0.104957  0.267644  0  4.045454  0
C  C72  1  0.55590039  0.91798524  0.57208650  1  0.054009  0  -0.085898  -0.200907  0  3.96937  0
C  C73  1  0.45309684  0.07425494  0.41569982  1  -0.016225  0  -0.085076  -0.198203  0  3.967527  0
Cl  Cl74  1  0.19517621  0.39947877  0.09657347  1  -0.132999  0  0.013615  -0.030042  0  1.688866  0
Cl  Cl75  1  0.19427616  0.60015481  0.89879021  1  -0.162937  0  0.007144  -0.042135  0  1.651432  0
O  O76  1  0.91492383  0.74182391  0.57592123  1  -1.172138  0  -0.356543  -0.615984  0  2.311343  0
O  O77  1  0.26573522  0.07506451  0.24119307  1  -1.167504  0  -0.355852  -0.613713  0  2.313576  0
O  O78  1  0.07897377  0.26225100  0.42261794  1  -1.175213  0  -0.354012  -0.609775  0  2.312999  0
O  O79  1  0.73713393  0.91988276  0.76335607  1  -1.171478  0  -0.357867  -0.618021  0  2.30838  0
O  O80  1  0.07181944  0.74672663  0.76040460  1  -1.185843  0  -0.373696  -0.631096  0  2.423193  0
O  O81  1  0.73874761  0.08029172  0.41583703  1  -1.17709  0  -0.356557  -0.616155  0  2.305711  0
O  O82  1  0.92137989  0.26889788  0.23391120  1  -1.168749  0  -0.348385  -0.61154  0  2.237298  0
O  O83  1  0.26464051  0.91742500  0.57775096  1  -1.176949  0  -0.356114  -0.616008  0  2.301649  0
O  O84  1  0.26267414  0.73932120  0.41830368  1  -1.162363  0  -0.356898  -0.616279  0  2.305382  0
O  O85  1  0.91591549  0.07784591  0.76532207  1  -1.171506  0  -0.357891  -0.619242  0  2.30553  0
O  O86  1  0.73788757  0.26681219  0.57570065  1  -1.16355  0  -0.354508  -0.614561  0  2.30517  0
O  O87  1  0.07497389  0.91986357  0.23862348  1  -1.179226  0  -0.355945  -0.615862  0  2.306287  0
O  O88  1  0.06901448  0.92475140  0.76735346  1  -1.181362  0  -0.344372  -0.603647  0  2.270379  0
O  O89  1  0.73973413  0.27141254  0.41951387  1  -1.172579  0  -0.348494  -0.612181  0  2.264402  0
O  O90  1  0.92235002  0.07345965  0.23642391  1  -1.18142  0  -0.347608  -0.610539  0  2.266692  0
O  O91  1  0.26585997  0.73898557  0.56990670  1  -1.171515  0  -0.345291  -0.606337  0  2.270522  0
O  O92  1  0.92001146  0.73692128  0.76867951  1  -1.163728  0  -0.33443  -0.594024  0  2.228728  0
O  O93  1  0.26811815  0.06858396  0.42391158  1  -1.182593  0  -0.347535  -0.606694  0  2.277625  0
O  O94  1  0.06969858  0.26379249  0.24722222  1  -1.177124  0  -0.360286  -0.616772  0  2.408667  0
O  O95  1  0.73772598  0.92625077  0.56714295  1  -1.178221  0  -0.347413  -0.605522  0  2.274771  0
O  O96  1  0.73597475  0.07163821  0.76735859  1  -1.174005  0  -0.344998  -0.605054  0  2.264832  0
O  O97  1  0.06716308  0.74036298  0.42168838  1  -1.177833  0  -0.345693  -0.606647  0  2.266632  0
O  O98  1  0.26754959  0.92213956  0.23881007  1  -1.177343  0  -0.347379  -0.608101  0  2.26193  0
O  O99  1  0.92164180  0.26811635  0.57166827  1  -1.180656  0  -0.348503  -0.609781  0  2.264035  0
O  O100  1  0.79632807  0.06976588  0.56568577  1  -1.221518  0  -0.690888  -1.068081  0  2.358634  0
O  O101  1  0.06598600  0.06693593  0.56785102  1  -1.237882  0  -0.696362  -1.073704  0  2.374562  0
O  O102  1  0.06685694  0.06755053  0.29817535  1  -1.217385  0  -0.693661  -1.068571  0  2.364263  0
O  O103  1  0.06425254  0.80008108  0.56580809  1  -1.227898  0  -0.694788  -1.07023  0  2.3725  0
O  O104  1  0.14753572  0.95021064  0.45013144  1  -1.19839  0  -0.793033  -1.154557  0  2.133286  0
O  O105  1  0.94854177  0.95283346  0.44913286  1  -1.197939  0  -0.787844  -1.148891  0  2.121695  0
O  O106  1  0.94962289  0.14886267  0.45095174  1  -1.194688  0  -0.790954  -1.150017  0  2.131413  0
O  O107  1  0.94775730  0.95231784  0.64762315  1  -1.200355  0  -0.791185  -1.150468  0  2.130685  0
F  F108  1  0.16470142  0.41875147  0.33567482  1  -0.622429  0  -0.094983  -0.130982  0  1.374154  0
F  F109  1  0.82681536  0.58696723  0.66152463  1  -0.629805  0  -0.095073  -0.132888  0  1.355461  0
F  F110  1  0.42773475  0.15551230  0.09103593  1  -0.621143  0  -0.095178  -0.130585  0  1.37031  0
F  F111  1  0.58401611  0.83002074  0.92246460  1  -0.627677  0  -0.093489  -0.132765  0  1.360018  0
F  F112  1  0.82775907  0.16271405  0.92343999  1  -0.625805  0  -0.097658  -0.131748  0  1.345964  0
F  F113  1  0.15919606  0.83134579  0.08449944  1  -0.62401  0  -0.095994  -0.129284  0  1.347562  0
F  F114  1  0.42199470  0.58557895  0.32918537  1  -0.625449  0  -0.097423  -0.131694  0  1.345593  0
F  F115  1  0.58456477  0.42600138  0.65892214  1  -0.621786  0  -0.095513  -0.128935  0  1.348303  0
F  F116  1  0.42478816  0.83003215  0.66015961  1  -0.627035  0  -0.097311  -0.131329  0  1.344447  0
F  F117  1  0.58373081  0.16271325  0.32812215  1  -0.623733  0  -0.09778  -0.132248  0  1.344169  0
