# generated using pymatgen
data_ZnH12C12S4(NO2)2
_symmetry_space_group_name_H-M   'P 1'
_cell_length_a   7.45224669
_cell_length_b   8.56184062
_cell_length_c   13.52178617
_cell_angle_alpha   98.61548995
_cell_angle_beta   90.02629419
_cell_angle_gamma   115.83164663
_symmetry_Int_Tables_number   1
_chemical_formula_structural   ZnH12C12S4(NO2)2
_chemical_formula_sum   'Zn2 H24 C24 S8 N4 O8'
_cell_volume   765.68876602
_cell_formula_units_Z   2
loop_
 _symmetry_equiv_pos_site_id
 _symmetry_equiv_pos_as_xyz
  1  'x, y, z'
loop_
 _atom_site_type_symbol
 _atom_site_label
 _atom_site_symmetry_multiplicity
 _atom_site_fract_x
 _atom_site_fract_y
 _atom_site_fract_z
 _atom_site_occupancy
 _atom_site_hle17_bader_spin_density
 _atom_site_hle17_ddec_charge
 _atom_site_hle17_ddec_spin_density
 _atom_site_hle17_ddec_sum_bond_order
 _atom_site_hle17_magmom
 _atom_site_hse06_10hf_bader_spin_density
 _atom_site_hse06_10hf_ddec_charge
 _atom_site_hse06_10hf_ddec_spin_density
 _atom_site_hse06_10hf_ddec_sum_bond_order
 _atom_site_hse06_10hf_magmom
 _atom_site_hse06_bader_spin_density
 _atom_site_hse06_ddec_charge
 _atom_site_hse06_ddec_spin_density
 _atom_site_hse06_ddec_sum_bond_order
 _atom_site_hse06_magmom
 _atom_site_pbe_bader_spin_density
 _atom_site_pbe_cm5_charge
 _atom_site_pbe_ddec_charge
 _atom_site_pbe_ddec_spin_density
 _atom_site_pbe_ddec_sum_bond_order
 _atom_site_pbe_magmom
Zn  Zn0  1  0.19987413  0.00036022  0.75018477  1  0  0.846801  0  2.084389  0  0  0.680182  0  2.578629  0  0  0.723218  0  2.526742  0  0  0.544111  0.650406  0  2.614057  0
Zn  Zn1  1  0.80012620  0.99963356  0.24981742  1  0  0.846766  0  2.084466  0  0  0.680149  0  2.57873  0  0  0.723173  0  2.52684  0  0  0.544107  0.650372  0  2.614158  0
H  H2  1  0.88286992  0.67496332  0.62468218  1  0  0.32036  0  0.916041  0  0  0.297065  0  0.985113  0  0  0.30749  0  0.975858  0  0  0.302082  0.289728  0  0.991668  0
H  H3  1  0.20757289  0.32551705  0.87542347  1  0  0.320711  0  0.91614  0  0  0.297742  0  0.985148  0  0  0.308027  0  0.976111  0  0  0.302061  0.29042  0  0.991662  0
H  H4  1  0.11713709  0.32503306  0.37531508  1  0  0.32037  0  0.915928  0  0  0.297036  0  0.985059  0  0  0.30746  0  0.975809  0  0  0.302079  0.2897  0  0.991613  0
H  H5  1  0.79241864  0.67448328  0.12457341  1  0  0.320593  0  0.916287  0  0  0.297642  0  0.985256  0  0  0.307927  0  0.976222  0  0  0.302053  0.290324  0  0.991775  0
H  H6  1  0.53571157  0.44510589  0.62189868  1  0  0.119644  0  0.952458  0  0  0.137518  0  1.017567  0  0  0.139242  0  1.01703  0  0  0.090857  0.136219  0  1.01808  0
H  H7  1  0.09005267  0.55497809  0.87786823  1  0  0.119752  0  0.951983  0  0  0.137666  0  1.017088  0  0  0.139396  0  1.016534  0  0  0.090775  0.13636  0  1.017599  0
H  H8  1  0.46429802  0.55490104  0.37810326  1  0  0.11971  0  0.952447  0  0  0.13759  0  1.017544  0  0  0.139314  0  1.017009  0  0  0.0909  0.13629  0  1.018058  0
H  H9  1  0.90993553  0.44501828  0.12212607  1  0  0.119749  0  0.952132  0  0  0.13765  0  1.017241  0  0  0.13938  0  1.016688  0  0  0.090765  0.136346  0  1.01775  0
H  H10  1  0.48124844  0.21899100  0.60212292  1  0  0.115279  0  0.969832  0  0  0.134529  0  1.037404  0  0  0.136003  0  1.037208  0  0  0.088954  0.133403  0  1.03761  0
H  H11  1  0.26176094  0.78121606  0.89786009  1  0  0.114609  0  0.970056  0  0  0.134027  0  1.037619  0  0  0.135523  0  1.037373  0  0  0.088566  0.132856  0  1.037898  0
H  H12  1  0.51875449  0.78101066  0.39787705  1  0  0.115281  0  0.969898  0  0  0.134536  0  1.03746  0  0  0.136009  0  1.037267  0  0  0.088938  0.133406  0  1.037664  0
H  H13  1  0.73823190  0.21878689  0.10213556  1  0  0.114637  0  0.970077  0  0  0.134057  0  1.037624  0  0  0.135552  0  1.037377  0  0  0.088586  0.132886  0  1.037905  0
H  H14  1  0.53898711  0.33559421  0.49992088  1  0  0.128913  0  0.960579  0  0  0.144613  0  1.029619  0  0  0.146697  0  1.028942  0  0  0.089013  0.143042  0  1.030178  0
H  H15  1  0.20279957  0.66437644  0.99993636  1  0  0.128473  0  0.960713  0  0  0.144396  0  1.029548  0  0  0.146501  0  1.028864  0  0  0.088816  0.142806  0  1.030122  0
H  H16  1  0.46101978  0.66441535  0.50008131  1  0  0.128922  0  0.96052  0  0  0.144653  0  1.029521  0  0  0.146738  0  1.028846  0  0  0.089023  0.143079  0  1.030084  0
H  H17  1  0.79718591  0.33562520  0.00005991  1  0  0.128473  0  0.96065  0  0  0.144398  0  1.029484  0  0  0.146503  0  1.028798  0  0  0.088816  0.142806  0  1.030059  0
H  H18  1  0.77936724  0.05592112  0.49400791  1  0  0.11332  0  0.950064  0  0  0.123573  0  1.020614  0  0  0.125303  0  1.020817  0  0  0.100231  0.122299  0  1.020546  0
H  H19  1  0.72344055  0.94478072  0.00601164  1  0  0.113222  0  0.950441  0  0  0.123613  0  1.021207  0  0  0.125347  0  1.021376  0  0  0.100384  0.122333  0  1.021191  0
H  H20  1  0.22063440  0.94407794  0.50599847  1  0  0.113327  0  0.949884  0  0  0.123562  0  1.020467  0  0  0.125292  0  1.020667  0  0  0.100226  0.122284  0  1.02041  0
H  H21  1  0.27657046  0.05521831  0.99398808  1  0  0.113198  0  0.950393  0  0  0.123603  0  1.021165  0  0  0.125335  0  1.021336  0  0  0.10037  0.122323  0  1.021141  0
H  H22  1  0.63629154  0.03374415  0.59831237  1  0  0.119544  0  0.950303  0  0  0.136021  0  1.010314  0  0  0.137714  0  1.010338  0  0  0.099682  0.134802  0  1.010343  0
H  H23  1  0.60213142  0.96685277  0.90178830  1  0  0.119028  0  0.951457  0  0  0.136058  0  1.011009  0  0  0.13774  0  1.01103  0  0  0.099545  0.134852  0  1.011059  0
H  H24  1  0.36370279  0.96624567  0.40168797  1  0  0.119595  0  0.950351  0  0  0.136009  0  1.010401  0  0  0.137703  0  1.010421  0  0  0.099658  0.13479  0  1.010426  0
H  H25  1  0.39787148  0.03315417  0.09821660  1  0  0.119029  0  0.951444  0  0  0.136079  0  1.010997  0  0  0.13776  0  1.011017  0  0  0.099548  0.13487  0  1.011041  0
C  C26  1  0.89795474  0.99588580  0.61771384  1  0  0.715045  0  3.805148  0  0  0.665744  0  4.10211  0  0  0.699435  0  4.09509  0  0  0.214267  0.642858  0  4.106112  0
C  C27  1  0.90182924  0.00507609  0.88230656  1  0  0.713917  0  3.808321  0  0  0.666399  0  4.103178  0  0  0.700066  0  4.096131  0  0  0.215269  0.643503  0  4.107214  0
C  C28  1  0.10204957  0.00411324  0.38228810  1  0  0.715047  0  3.805561  0  0  0.665846  0  4.102354  0  0  0.699525  0  4.095338  0  0  0.214318  0.642963  0  4.106353  0
C  C29  1  0.09816706  0.99491767  0.11769341  1  0  0.714023  0  3.808271  0  0  0.666551  0  4.103095  0  0  0.700216  0  4.096047  0  0  0.215289  0.643656  0  4.107129  0
C  C30  1  0.88320370  0.28777023  0.60486253  1  0  -0.052458  0  3.659657  0  0  -0.044915  0  3.934256  0  0  -0.04683  0  3.956113  0  0  -0.019858  -0.04392  0  3.919779  0
C  C31  1  0.59515347  0.71302761  0.89516313  1  0  -0.052604  0  3.659636  0  0  -0.044119  0  3.933631  0  0  -0.046194  0  3.955658  0  0  -0.018971  -0.043002  0  3.919075  0
C  C32  1  0.11680664  0.71223014  0.39514175  1  0  -0.05258  0  3.659603  0  0  -0.04507  0  3.934232  0  0  -0.046985  0  3.956087  0  0  -0.019905  -0.044071  0  3.919752  0
C  C33  1  0.40484541  0.28697668  0.10483782  1  0  -0.052973  0  3.65997  0  0  -0.044428  0  3.933994  0  0  -0.046524  0  3.956046  0  0  -0.019062  -0.043313  0  3.919434  0
C  C34  1  0.11593988  0.60602324  0.64533792  1  0  0.187243  0  3.801835  0  0  0.163605  0  4.11166  0  0  0.181491  0  4.124508  0  0  0.114444  0.151932  0  4.102418  0
C  C35  1  0.50989472  0.39488225  0.85487850  1  0  0.187134  0  3.802709  0  0  0.164265  0  4.111922  0  0  0.182133  0  4.124686  0  0  0.114489  0.152609  0  4.102697  0
C  C36  1  0.88406109  0.39397183  0.35465847  1  0  0.187286  0  3.801755  0  0  0.163629  0  4.111609  0  0  0.181517  0  4.124456  0  0  0.114451  0.151948  0  4.102381  0
C  C37  1  0.49009213  0.60511677  0.14512122  1  0  0.187056  0  3.802871  0  0  0.16424  0  4.111992  0  0  0.182108  0  4.124758  0  0  0.114494  0.152578  0  4.102777  0
C  C38  1  0.79086496  0.39535124  0.60287097  1  0  0.221947  0  3.737366  0  0  0.209444  0  4.00838  0  0  0.214852  0  4.031513  0  0  0.087172  0.205808  0  3.992725  0
C  C39  1  0.39515267  0.60516062  0.89713276  1  0  0.221736  0  3.737679  0  0  0.20898  0  4.009403  0  0  0.21442  0  4.032491  0  0  0.086647  0.20529  0  3.993806  0
C  C40  1  0.20913935  0.60464779  0.39713097  1  0  0.222152  0  3.737357  0  0  0.209623  0  4.008423  0  0  0.215033  0  4.031558  0  0  0.087244  0.205989  0  3.992759  0
C  C41  1  0.60483952  0.39484103  0.10286647  1  0  0.221923  0  3.737536  0  0  0.209076  0  4.009352  0  0  0.214522  0  4.032441  0  0  0.086653  0.205385  0  3.993757  0
C  C42  1  0.57582971  0.34621912  0.58013061  1  0  -0.356521  0  3.713047  0  0  -0.437483  0  3.953953  0  0  -0.440652  0  3.962849  0  0  -0.243288  -0.434947  0  3.947778  0
C  C43  1  0.22907707  0.65394636  0.91975079  1  0  -0.355402  0  3.712165  0  0  -0.436368  0  3.953006  0  0  -0.439627  0  3.961953  0  0  -0.242554  -0.433769  0  3.946851  0
C  C44  1  0.42417454  0.65378517  0.41987035  1  0  -0.356676  0  3.713084  0  0  -0.437654  0  3.954002  0  0  -0.440824  0  3.962894  0  0  -0.243343  -0.435113  0  3.947824  0
C  C45  1  0.77091649  0.34605267  0.08024893  1  0  -0.355515  0  3.712111  0  0  -0.436441  0  3.952945  0  0  -0.439697  0  3.961885  0  0  -0.242592  -0.433839  0  3.94679  0
C  C46  1  0.79121969  0.09219562  0.57652156  1  0  -0.278531  0  3.708023  0  0  -0.315988  0  3.941352  0  0  -0.321882  0  3.950975  0  0  -0.158065  -0.311816  0  3.934737  0
C  C47  1  0.69877400  0.90862320  0.92350226  1  0  -0.277735  0  3.708542  0  0  -0.317165  0  3.943343  0  0  -0.322959  0  3.952865  0  0  -0.159191  -0.313099  0  3.936867  0
C  C48  1  0.20878259  0.90780208  0.42347434  1  0  -0.278618  0  3.708066  0  0  -0.315941  0  3.941153  0  0  -0.321836  0  3.950779  0  0  -0.158059  -0.311778  0  3.934554  0
C  C49  1  0.30122960  0.09137979  0.07650227  1  0  -0.277666  0  3.708373  0  0  -0.317171  0  3.943248  0  0  -0.322956  0  3.952773  0  0  -0.159186  -0.313096  0  3.936746  0
S  S50  1  0.13731327  0.41306531  0.63844959  1  0  0.181165  0  2.603002  0  0  0.179366  0  2.939998  0  0  0.180702  0  2.942556  0  0  0.1315  0.177788  0  2.938581  0
S  S51  1  0.72414645  0.58799754  0.86168577  1  0  0.180912  0  2.603394  0  0  0.179031  0  2.939609  0  0  0.180397  0  2.942237  0  0  0.13149  0.177432  0  2.93813  0
S  S52  1  0.86268238  0.58692449  0.36154483  1  0  0.181112  0  2.602738  0  0  0.17932  0  2.939753  0  0  0.18065  0  2.942313  0  0  0.131471  0.177741  0  2.938338  0
S  S53  1  0.27584640  0.41200543  0.13831506  1  0  0.181086  0  2.603424  0  0  0.179205  0  2.939552  0  0  0.180578  0  2.942185  0  0  0.131558  0.177605  0  2.938071  0
S  S54  1  0.31779727  0.80574939  0.67524978  1  0  -0.369668  0  2.214435  0  0  -0.339197  0  2.596332  0  0  -0.356164  0  2.584875  0  0  -0.162472  -0.327375  0  2.603893  0
S  S55  1  0.51243948  0.19543083  0.82522197  1  0  -0.369342  0  2.214863  0  0  -0.339045  0  2.596406  0  0  -0.356011  0  2.58493  0  0  -0.162646  -0.327163  0  2.60385  0
S  S56  1  0.68220968  0.19425226  0.32474797  1  0  -0.369664  0  2.214537  0  0  -0.339159  0  2.596402  0  0  -0.356126  0  2.584945  0  0  -0.162482  -0.327336  0  2.603958  0
S  S57  1  0.48755942  0.80457082  0.17477800  1  0  -0.369324  0  2.214931  0  0  -0.339064  0  2.596476  0  0  -0.356032  0  2.585006  0  0  -0.162662  -0.327181  0  2.603918  0
N  N58  1  0.92476615  0.57229426  0.62567142  1  0  -0.344931  0  3.45627  0  0  -0.283412  0  3.691899  0  0  -0.300793  0  3.705103  0  0  -0.368751  -0.271766  0  3.682678  0
N  N59  1  0.35229349  0.42829730  0.87445549  1  0  -0.346009  0  3.456739  0  0  -0.285363  0  3.692438  0  0  -0.302529  0  3.705466  0  0  -0.369377  -0.273937  0  3.683614  0
N  N60  1  0.07523547  0.42770477  0.37432831  1  0  -0.344984  0  3.456065  0  0  -0.283428  0  3.691732  0  0  -0.300803  0  3.704915  0  0  -0.368753  -0.271781  0  3.682509  0
N  N61  1  0.64769602  0.57170436  0.12554448  1  0  -0.345832  0  3.456503  0  0  -0.285191  0  3.692229  0  0  -0.30236  0  3.705263  0  0  -0.369341  -0.273771  0  3.683419  0
O  O62  1  0.07688657  0.09409984  0.65887853  1  0  -0.637319  0  2.116729  0  0  -0.550148  0  2.386332  0  0  -0.580104  0  2.373221  0  0  -0.323251  -0.529337  0  2.394775  0
O  O63  1  0.98285956  0.90711819  0.84141521  1  0  -0.635951  0  2.117411  0  0  -0.550238  0  2.387276  0  0  -0.580197  0  2.374229  0  0  -0.323323  -0.529275  0  2.395465  0
O  O64  1  0.92312444  0.90589919  0.34112045  1  0  -0.637282  0  2.116842  0  0  -0.550203  0  2.386454  0  0  -0.580122  0  2.373311  0  0  -0.323305  -0.529391  0  2.394896  0
O  O65  1  0.01714204  0.09288349  0.15858920  1  0  -0.636055  0  2.11737  0  0  -0.550348  0  2.387216  0  0  -0.580311  0  2.374179  0  0  -0.323349  -0.529391  0  2.39541  0
O  O66  1  0.80990492  0.83154193  0.60757628  1  0  -0.606401  0  1.944359  0  0  -0.56021  0  2.171705  0  0  -0.583899  0  2.163998  0  0  -0.314133  -0.543713  0  2.176466  0
O  O67  1  0.97788967  0.16940192  0.89225540  1  0  -0.605858  0  1.947233  0  0  -0.560191  0  2.173817  0  0  -0.583864  0  2.166219  0  0  -0.314448  -0.543614  0  2.178471  0
O  O68  1  0.19009410  0.16844921  0.39242566  1  0  -0.606403  0  1.944732  0  0  -0.560197  0  2.171965  0  0  -0.583888  0  2.164265  0  0  -0.314127  -0.543705  0  2.176724  0
O  O69  1  0.02211188  0.83060235  0.10773964  1  0  -0.605789  0  1.947333  0  0  -0.560153  0  2.173914  0  0  -0.583819  0  2.16631  0  0  -0.314406  -0.543583  0  2.178569  0
