# generated using pymatgen
data_Zn3C24Br8(NO3)4
_symmetry_space_group_name_H-M   'P 1'
_cell_length_a   18.48390723
_cell_length_b   18.48376603
_cell_length_c   23.31875569
_cell_angle_alpha   66.64076350
_cell_angle_beta   66.64562853
_cell_angle_gamma   90.00871757
_symmetry_Int_Tables_number   1
_chemical_formula_structural   Zn3C24Br8(NO3)4
_chemical_formula_sum   'Zn6 C48 Br16 N8 O24'
_cell_volume   6596.66255372
_cell_formula_units_Z   2
loop_
 _symmetry_equiv_pos_site_id
 _symmetry_equiv_pos_as_xyz
  1  'x, y, z'
loop_
 _atom_site_type_symbol
 _atom_site_label
 _atom_site_symmetry_multiplicity
 _atom_site_fract_x
 _atom_site_fract_y
 _atom_site_fract_z
 _atom_site_occupancy
 _atom_site_pbe_bader_charge
 _atom_site_pbe_bader_spin_density
 _atom_site_pbe_cm5_charge
 _atom_site_pbe_ddec_charge
 _atom_site_pbe_ddec_spin_density
 _atom_site_pbe_ddec_sum_bond_order
 _atom_site_pbe_magmom
Zn  Zn0  1  0.92947265  0.49997192  0.00001210  1  1.306187  0  0.750487  0.999649  0  2.016119  0
Zn  Zn1  1  0.96610334  0.96607775  0.06770457  1  1.299821  0  0.753619  0.989236  0  2.039697  0
Zn  Zn2  1  0.03392698  0.03390376  0.93228112  1  1.319618  0  0.753617  0.989125  0  2.039989  0
Zn  Zn3  1  0.50002247  0.92949973  0.99998096  1  1.307983  0  0.751054  1.001282  0  2.015818  0
Zn  Zn4  1  0.07049629  0.49997623  0.00001861  1  1.307294  0  0.750939  1.001271  0  2.01577  0
Zn  Zn5  1  0.50002594  0.07050907  0.99999091  1  1.305225  0  0.750607  0.999967  0  2.015486  0
C  C6  1  0.99998445  0.36102295  0.00007961  1  1.671892  0  0.227071  0.654484  0  4.255828  0
C  C7  1  0.78299085  0.28307504  0.43394795  1  1.08175  0  0.236064  0.254373  0  4.034675  0
C  C8  1  0.71692474  0.21702654  0.56603558  1  1.081071  0  0.236056  0.254314  0  4.03506  0
C  C9  1  0.21692618  0.71687079  0.56606543  1  1.020223  0  0.235651  0.253407  0  4.034163  0
C  C10  1  0.28312888  0.78308476  0.43395968  1  1.018155  0  0.235577  0.253396  0  4.034957  0
C  C11  1  0.06677803  0.56652238  0.86665816  1  1.577766  0  0.213212  0.605694  0  4.211313  0
C  C12  1  0.56662284  0.06679419  0.86662149  1  1.582812  0  0.213627  0.606237  0  4.211924  0
C  C13  1  0.93321548  0.43336707  0.13337419  1  1.583088  0  0.213451  0.606178  0  4.212629  0
C  C14  1  0.63897140  0.00000096  0.99992028  1  1.671189  0  0.227088  0.654091  0  4.256581  0
C  C15  1  0.43348597  0.93319888  0.13334823  1  1.578018  0  0.213393  0.606062  0  4.210089  0
C  C16  1  0.99996463  0.28313201  0.00010380  1  0.031011  0  -0.010871  -0.092595  0  3.903987  0
C  C17  1  0.71686294  0.00001907  0.99989333  1  0.029741  0  -0.010809  -0.092618  0  3.903827  0
C  C18  1  0.00002307  0.71683235  0.99990341  1  0.030257  0  -0.010668  -0.092132  0  3.903337  0
C  C19  1  0.28317155  0.99997168  0.00009591  1  0.028797  0  -0.010655  -0.092171  0  3.903463  0
C  C20  1  0.99997813  0.63894212  0.99992284  1  1.659817  0  0.226661  0.652619  0  4.254971  0
C  C21  1  0.99990372  0.21738529  0.00007286  1  -0.184622  0  -0.009483  -0.092062  0  3.887852  0
C  C22  1  0.78261646  0.00009273  0.99991181  1  -0.183978  0  -0.009551  -0.092023  0  3.887858  0
C  C23  1  0.00007383  0.78258449  0.99993018  1  -0.185379  0  -0.00961  -0.092238  0  3.887598  0
C  C24  1  0.21742771  0.99993245  0.00005997  1  -0.183809  0  -0.009641  -0.092309  0  3.887631  0
C  C25  1  0.36106276  0.00001701  0.00007844  1  1.659952  0  0.227135  0.653093  0  4.254546  0
C  C26  1  0.14958383  0.56326174  0.75221800  1  0.024351  0  -0.017254  0.044982  0  3.938792  0
C  C27  1  0.68417637  0.14989941  0.75215151  1  -0.048788  0  -0.018043  0.044151  0  3.9385  0
C  C28  1  0.09807902  0.68409778  0.75225009  1  -0.052271  0  -0.018064  0.043927  0  3.939257  0
C  C29  1  0.56342178  0.09808962  0.75219579  1  -0.045853  0  -0.016888  0.045053  0  3.939735  0
C  C30  1  0.90178326  0.43663449  0.24778322  1  -0.047971  0  -0.017132  0.04477  0  3.938978  0
C  C31  1  0.43664739  0.85016004  0.24781193  1  -0.048519  0  -0.017464  0.044864  0  3.939303  0
C  C32  1  0.85026664  0.31574630  0.24784162  1  -0.053024  0  -0.017853  0.044136  0  3.938272  0
C  C33  1  0.31602251  0.90213361  0.24776386  1  0.06108  0  -0.018027  0.043643  0  3.94009  0
C  C34  1  0.18706331  0.60009620  0.67960286  1  -0.093223  0  -0.014556  0.041296  0  3.929997  0
C  C35  1  0.72000887  0.18734959  0.67954401  1  -0.006803  0  -0.013307  0.042233  0  3.929513  0
C  C36  1  0.13313087  0.71988766  0.67964339  1  0.005752  0  -0.013613  0.041712  0  3.930165  0
C  C37  1  0.60023190  0.13321187  0.67958421  1  -0.011294  0  -0.014543  0.040869  0  3.930324  0
C  C38  1  0.86669174  0.39981212  0.32039417  1  -0.01679  0  -0.0146  0.040983  0  3.930054  0
C  C39  1  0.39983452  0.81275642  0.32043024  1  -0.016179  0  -0.014238  0.041288  0  3.929972  0
C  C40  1  0.81278258  0.27992415  0.32044721  1  -0.00861  0  -0.013347  0.04204  0  3.929808  0
C  C41  1  0.28022208  0.86706907  0.32036678  1  -0.108947  0  -0.0135  0.04243  0  3.930769  0
C  C42  1  0.17836691  0.67828887  0.64303437  1  0.082528  0  -0.009494  -0.048469  0  3.976339  0
C  C43  1  0.67841345  0.17854282  0.64298985  1  0.087527  0  -0.009632  -0.049279  0  3.977304  0
C  C44  1  0.82147162  0.32157737  0.35699536  1  0.096929  0  -0.009479  -0.049086  0  3.97735  0
C  C45  1  0.32172645  0.82164275  0.35699061  1  0.080583  0  -0.009682  -0.049019  0  3.977011  0
C  C46  1  0.13958391  0.99999190  0.00001381  1  1.667313  0  0.234487  0.66701  0  4.232643  0
C  C47  1  0.99997589  0.13954677  0.00002865  1  1.668602  0  0.234111  0.667217  0  4.233164  0
C  C48  1  0.86045789  0.00002886  0.99995517  1  1.66879  0  0.233842  0.666705  0  4.233991  0
C  C49  1  0.00001604  0.86042472  0.99997239  1  1.667178  0  0.234333  0.666872  0  4.233279  0
C  C50  1  0.10578337  0.60557067  0.78847597  1  0.11629  0  -0.015186  -0.075616  0  3.931051  0
C  C51  1  0.60567796  0.10587844  0.78842182  1  0.106164  0  -0.015511  -0.075877  0  3.930432  0
C  C52  1  0.89412930  0.39431240  0.21156580  1  0.108461  0  -0.015544  -0.075674  0  3.930091  0
C  C53  1  0.39444349  0.89419050  0.21153851  1  0.116234  0  -0.015379  -0.075985  0  3.930956  0
Br  Br54  1  0.15574448  0.45611687  0.80262769  1  0.002898  0  0.054124  -0.005197  0  1.466954  0
Br  Br55  1  0.74065029  0.15649050  0.80260568  1  0.00339  0  0.054069  -0.005156  0  1.46827  0
Br  Br56  1  0.04120972  0.74063279  0.80271383  1  0.003721  0  0.054311  -0.00492  0  1.468424  0
Br  Br57  1  0.45640473  0.04113798  0.80266228  1  -5.1e-05  0  0.053856  -0.005331  0  1.467223  0
Br  Br58  1  0.95854876  0.54373036  0.19731897  1  0.000979  0  0.053893  -0.005368  0  1.467078  0
Br  Br59  1  0.54360987  0.84357179  0.19740387  1  0.000677  0  0.05404  -0.005214  0  1.467157  0
Br  Br60  1  0.84404293  0.25909593  0.19741243  1  0.004962  0  0.054275  -0.004972  0  1.468201  0
Br  Br61  1  0.25957726  0.95921207  0.19728180  1  0.003928  0  0.05411  -0.005007  0  1.468395  0
Br  Br62  1  0.25227728  0.54675134  0.62969339  1  0.003588  0  0.050128  -0.018179  0  1.450527  0
Br  Br63  1  0.82324540  0.25269122  0.62965387  1  0.002525  0  0.050066  -0.018164  0  1.450466  0
Br  Br64  1  0.11778339  0.82315771  0.62977325  1  0.000886  0  0.050066  -0.018088  0  1.450386  0
Br  Br65  1  0.54688706  0.11785036  0.62968637  1  0.006572  0  0.050259  -0.017743  0  1.450254  0
Br  Br66  1  0.88198585  0.45321469  0.37027739  1  0.005892  0  0.050226  -0.017842  0  1.450319  0
Br  Br67  1  0.45308781  0.74739827  0.37037302  1  0.004094  0  0.050304  -0.017842  0  1.450301  0
Br  Br68  1  0.74759020  0.17660339  0.37035243  1  0.00234  0  0.049994  -0.018161  0  1.450489  0
Br  Br69  1  0.17704651  0.88258353  0.37022713  1  0.002235  0  0.050197  -0.018019  0  1.450382  0
N  N70  1  0.18686680  0.68697306  0.53423259  1  -0.596942  0  -0.156446  -0.137429  0  3.187323  0
N  N71  1  0.68683257  0.27878857  0.53428385  1  -0.510871  0  -0.157549  -0.139139  0  3.191077  0
N  N72  1  0.27878493  0.77862313  0.53439754  1  -0.461842  0  -0.158418  -0.140525  0  3.188163  0
N  N73  1  0.77876948  0.18700577  0.53430382  1  -0.60102  0  -0.157748  -0.139435  0  3.190318  0
N  N74  1  0.72115807  0.31310559  0.46568245  1  -0.610489  0  -0.157375  -0.1388  0  3.190889  0
N  N75  1  0.22123184  0.72137081  0.46562677  1  -0.461092  0  -0.15827  -0.140288  0  3.187924  0
N  N76  1  0.81307765  0.22130517  0.46569731  1  -0.516274  0  -0.157852  -0.139405  0  3.190204  0
N  N77  1  0.31317570  0.81299437  0.46579175  1  -0.594829  0  -0.156457  -0.13745  0  3.188289  0
O  O78  1  0.93424800  0.38698670  0.00904323  1  -1.129408  0  -0.302355  -0.534737  0  2.247871  0
O  O79  1  0.60396718  0.93424464  0.00895564  1  -1.125451  0  -0.302887  -0.534859  0  2.248818  0
O  O80  1  0.05671048  0.60395954  0.00891976  1  -1.123197  0  -0.302478  -0.534697  0  2.248235  0
O  O81  1  0.38700196  0.05672108  0.00912534  1  -1.120713  0  -0.30256  -0.533724  0  2.247023  0
O  O82  1  0.94323497  0.61297957  0.99092538  1  -1.120242  0  -0.302419  -0.533523  0  2.246601  0
O  O83  1  0.61303388  0.06575176  0.99090201  1  -1.129617  0  -0.302382  -0.534695  0  2.248692  0
O  O84  1  0.06571264  0.39599262  0.99110418  1  -1.126817  0  -0.302867  -0.535234  0  2.248831  0
O  O85  1  0.39607475  0.94331514  0.99102647  1  -1.123015  0  -0.302809  -0.534935  0  2.247882  0
O  O86  1  0.99148535  0.54089611  0.89595132  1  -1.138988  0  -0.305578  -0.53664  0  2.283538  0
O  O87  1  0.56309940  0.99152421  0.89587210  1  -1.139573  0  -0.305824  -0.537071  0  2.283048  0
O  O88  1  0.11282977  0.56292669  0.89587208  1  -1.14029  0  -0.306018  -0.537249  0  2.280078  0
O  O89  1  0.54092589  0.11277329  0.89588991  1  -1.141835  0  -0.306176  -0.537257  0  2.28221  0
O  O90  1  0.88720838  0.45899640  0.10410916  1  -1.141877  0  -0.306055  -0.537103  0  2.282011  0
O  O91  1  0.45918449  0.00847536  0.10405618  1  -1.138758  0  -0.305738  -0.536887  0  2.283208  0
O  O92  1  0.00848749  0.43696716  0.10413089  1  -1.140401  0  -0.305715  -0.537083  0  2.283542  0
O  O93  1  0.43699104  0.88716721  0.10413044  1  -1.140367  0  -0.306104  -0.537368  0  2.279396  0
O  O94  1  0.13878735  0.02991942  0.94066934  1  -1.118085  0  -0.303251  -0.535432  0  2.222948  0
O  O95  1  0.02949132  0.13874972  0.94068524  1  -1.119145  0  -0.303105  -0.53547  0  2.223094  0
O  O96  1  0.92068626  0.02949211  0.94065629  1  -1.12934  0  -0.302911  -0.535333  0  2.223863  0
O  O97  1  0.02989322  0.92065825  0.94067300  1  -1.12805  0  -0.302942  -0.535086  0  2.223585  0
O  O98  1  0.07935310  0.97011532  0.05930990  1  -1.127908  0  -0.303039  -0.535203  0  2.223504  0
O  O99  1  0.97009306  0.86122121  0.05931255  1  -1.117595  0  -0.303223  -0.535486  0  2.22344  0
O  O100  1  0.86125570  0.97051625  0.05929870  1  -1.118917  0  -0.30284  -0.535176  0  2.223279  0
O  O101  1  0.97051405  0.07931647  0.05932835  1  -1.129078  0  -0.302988  -0.535587  0  2.223585  0
