# generated using pymatgen
data_AlH4C8O5F
_symmetry_space_group_name_H-M   'P 1'
_cell_length_a   6.71259546
_cell_length_b   12.88579357
_cell_length_c   16.90655219
_cell_angle_alpha   90.02957179
_cell_angle_beta   90.61426674
_cell_angle_gamma   90.54973520
_symmetry_Int_Tables_number   1
_chemical_formula_structural   AlH4C8O5F
_chemical_formula_sum   'Al4 H16 C32 O20 F4'
_cell_volume   1462.21643589
_cell_formula_units_Z   4
loop_
 _symmetry_equiv_pos_site_id
 _symmetry_equiv_pos_as_xyz
  1  'x, y, z'
loop_
 _atom_site_type_symbol
 _atom_site_label
 _atom_site_symmetry_multiplicity
 _atom_site_fract_x
 _atom_site_fract_y
 _atom_site_fract_z
 _atom_site_occupancy
 _atom_site_pbe_bader_charge
 _atom_site_pbe_bader_spin_density
 _atom_site_pbe_cm5_charge
 _atom_site_pbe_ddec_charge
 _atom_site_pbe_ddec_spin_density
 _atom_site_pbe_ddec_sum_bond_order
 _atom_site_pbe_magmom
Al  Al0  1  0.99101526  0.00039766  0.49981427  1  2.504584  0  0.403134  1.64699  0  2.572608  0
Al  Al1  1  0.49053240  0.00014632  0.49811540  1  2.505873  0  0.401623  1.650092  0  2.570526  0
Al  Al2  1  0.00932692  0.50238440  0.99850087  1  2.499941  0  0.402643  1.644432  0  2.573725  0
Al  Al3  1  0.50932484  0.49881373  0.99862429  1  2.505117  0  0.401157  1.646948  0  2.581271  0
H  H4  1  0.23997832  0.86972265  0.52753752  1  0.62287  0  0.3527  0.433729  0  0.850904  0
H  H5  1  0.74299006  0.13763004  0.50549810  1  0.61213  0  0.357624  0.438545  0  0.838226  0
H  H6  1  0.26642320  0.63402807  0.02008163  1  0.639781  0  0.354656  0.433114  0  0.849674  0
H  H7  1  0.76258181  0.36759124  0.02181652  1  0.621535  0  0.354559  0.432849  0  0.849815  0
H  H8  1  0.06600123  0.71869169  0.81898472  1  0.095238  0  0.109769  0.116382  0  1.002345  0
H  H9  1  0.43456408  0.66234336  0.79719027  1  0.141578  0  0.119465  0.147728  0  0.986953  0
H  H10  1  0.05127409  0.83122760  0.69795438  1  0.155762  0  0.109217  0.116136  0  1.013125  0
H  H11  1  0.57376814  0.29235414  0.18719911  1  0.091985  0  0.105206  0.108057  0  1.015352  0
H  H12  1  0.93557315  0.32162455  0.19151699  1  0.109164  0  0.115364  0.139472  0  0.999468  0
H  H13  1  0.55737040  0.17863684  0.30712815  1  0.15572  0  0.108901  0.122929  0  1.026  0
H  H14  1  0.93007305  0.31339669  0.80388684  1  0.106101  0  0.108747  0.114924  0  1.007525  0
H  H15  1  0.56979149  0.29940138  0.81708504  1  0.134371  0  0.117944  0.144429  0  0.994902  0
H  H16  1  0.93475303  0.20155332  0.68241816  1  0.132672  0  0.105925  0.115354  0  1.039756  0
H  H17  1  0.07806307  0.70491857  0.19239425  1  0.109635  0  0.104583  0.107752  0  1.018272  0
H  H18  1  0.43746933  0.68539419  0.18480106  1  0.115543  0  0.114645  0.13897  0  1.000984  0
H  H19  1  0.05785270  0.81582338  0.31376950  1  0.14043  0  0.109524  0.121943  0  1.02946  0
C  C20  1  0.74008325  0.87924748  0.39064672  1  1.606054  0  0.270395  0.658575  0  4.095117  0
C  C21  1  0.73598341  0.87899687  0.60828131  1  1.604273  0  0.271563  0.665898  0  4.087148  0
C  C22  1  0.24462055  0.12295041  0.60744767  1  1.594286  0  0.268608  0.659978  0  4.094725  0
C  C23  1  0.24254360  0.11906677  0.38935057  1  1.601653  0  0.271614  0.659029  0  4.093841  0
C  C24  1  0.76524924  0.62336681  0.10756110  1  1.575907  0  0.269712  0.646637  0  4.081838  0
C  C25  1  0.75424548  0.61866856  0.88853418  1  1.577483  0  0.272183  0.642065  0  4.087266  0
C  C26  1  0.24982519  0.38013616  0.88994586  1  1.588848  0  0.272347  0.644114  0  4.083742  0
C  C27  1  0.26132449  0.37949138  0.10872429  1  1.575089  0  0.269388  0.645978  0  4.086089  0
C  C28  1  0.73744353  0.81010963  0.67934948  1  0.003034  0  -0.015423  -0.148574  0  3.943695  0
C  C29  1  0.75123446  0.68502308  0.81614262  1  -0.078266  0  -0.006559  -0.005771  0  3.97817  0
C  C30  1  0.56608858  0.76050019  0.70857790  1  0.431812  0  0.111257  0.285267  0  4.026164  0
C  C31  1  0.92579073  0.73171037  0.78773634  1  0.013222  0  -0.083636  -0.109935  0  3.974418  0
C  C32  1  0.57025093  0.69948888  0.77602922  1  0.036456  0  -0.090758  -0.228495  0  3.969301  0
C  C33  1  0.91749900  0.79368429  0.72055207  1  -0.024172  0  -0.07388  -0.063374  0  3.965273  0
C  C34  1  0.24101457  0.18715436  0.31772485  1  0.030138  0  -0.01323  -0.144096  0  3.939957  0
C  C35  1  0.25596083  0.31298803  0.18107246  1  -0.049362  0  -0.008017  -0.008501  0  3.980393  0
C  C36  1  0.06812018  0.22930723  0.28368500  1  0.410253  0  0.112064  0.28359  0  4.033363  0
C  C37  1  0.43168870  0.27342103  0.21432778  1  -0.060053  0  -0.086101  -0.107665  0  3.983425  0
C  C38  1  0.07296774  0.29054547  0.21625319  1  0.089217  0  -0.092533  -0.22731  0  3.974692  0
C  C39  1  0.42279827  0.21091643  0.28106810  1  -0.012892  0  -0.075552  -0.070603  0  3.967652  0
C  C40  1  0.25182628  0.18876619  0.68039873  1  0.058866  0  -0.016336  -0.147035  0  3.943991  0
C  C41  1  0.24912973  0.31339858  0.81773257  1  -0.005342  0  -0.006546  -0.00777  0  3.984122  0
C  C42  1  0.42865240  0.21733615  0.72023185  1  0.374995  0  0.11146  0.282695  0  4.032118  0
C  C43  1  0.06966818  0.28586223  0.77973758  1  0.017736  0  -0.085212  -0.109643  0  3.97653  0
C  C44  1  0.42988687  0.27864327  0.78769548  1  0.024232  0  -0.091195  -0.226534  0  3.972061  0
C  C45  1  0.07246294  0.22429863  0.71233511  1  -0.077871  0  -0.076868  -0.067838  0  3.973405  0
C  C46  1  0.74017701  0.81249589  0.31816029  1  -0.008166  0  -0.01356  -0.144098  0  3.940394  0
C  C47  1  0.75930408  0.68908073  0.18029810  1  0.013623  0  -0.009128  -0.008795  0  3.981135  0
C  C48  1  0.56754172  0.77411314  0.28030585  1  0.440352  0  0.112269  0.282385  0  4.039654  0
C  C49  1  0.93465724  0.72530887  0.21716017  1  -0.093422  0  -0.086962  -0.111279  0  3.983993  0
C  C50  1  0.57460734  0.71383618  0.21242900  1  0.02704  0  -0.093508  -0.228803  0  3.978944  0
C  C51  1  0.92372950  0.78637028  0.28462623  1  0.016649  0  -0.074641  -0.065772  0  3.962889  0
O  O52  1  0.91039148  0.91037148  0.41513494  1  -1.255187  0  -0.22994  -0.579127  0  2.345268  0
O  O53  1  0.56789649  0.91131499  0.58403643  1  -1.255491  0  -0.234565  -0.598015  0  2.37006  0
O  O54  1  0.40812138  0.10365858  0.57340944  1  -1.250076  0  -0.237845  -0.60236  0  2.366431  0
O  O55  1  0.07790994  0.09904469  0.42258181  1  -1.240763  0  -0.231372  -0.58938  0  2.368216  0
O  O56  1  0.07195446  0.09225762  0.58489453  1  -1.251506  0  -0.236018  -0.592282  0  2.333658  0
O  O57  1  0.41247884  0.08652286  0.41171951  1  -1.253335  0  -0.229379  -0.579683  0  2.344842  0
O  O58  1  0.57405365  0.89925600  0.42229173  1  -1.243078  0  -0.232316  -0.587897  0  2.359743  0
O  O59  1  0.90449488  0.90031357  0.57791608  1  -1.251798  0  -0.233951  -0.593245  0  2.326604  0
O  O60  1  0.23946143  0.93671409  0.50139804  1  -1.4225  0  -0.447109  -0.989269  0  2.173981  0
O  O61  1  0.74205693  0.06300630  0.49888190  1  -1.412805  0  -0.447196  -0.993426  0  2.187995  0
O  O62  1  0.93569615  0.59563749  0.08308972  1  -1.254966  0  -0.237173  -0.597736  0  2.332999  0
O  O63  1  0.58643094  0.58590453  0.91292135  1  -1.257623  0  -0.231652  -0.583853  0  2.355794  0
O  O64  1  0.41821736  0.39972568  0.92236337  1  -1.255663  0  -0.234607  -0.590075  0  2.34615  0
O  O65  1  0.09412138  0.40269966  0.07724604  1  -1.260362  0  -0.237689  -0.601647  0  2.347219  0
O  O66  1  0.08233136  0.41223506  0.91390491  1  -1.255051  0  -0.231017  -0.583568  0  2.345486  0
O  O67  1  0.43230340  0.40748657  0.08398462  1  -1.262936  0  -0.23651  -0.59813  0  2.339157  0
O  O68  1  0.59786966  0.60022272  0.07539008  1  -1.268476  0  -0.238855  -0.604607  0  2.352556  0
O  O69  1  0.92279434  0.60033216  0.92057225  1  -1.260045  0  -0.232907  -0.586616  0  2.336968  0
O  O70  1  0.26159939  0.56387001  0.99954745  1  -1.443366  0  -0.447562  -0.990781  0  2.186558  0
O  O71  1  0.75960382  0.43726744  0.00043559  1  -1.425356  0  -0.447861  -0.990548  0  2.186663  0
F  F72  1  0.38716332  0.76880031  0.67052406  1  -0.632232  0  -0.090618  -0.137978  0  1.369644  0
F  F73  1  0.88656393  0.21186134  0.31600411  1  -0.628905  0  -0.081859  -0.125938  0  1.394324  0
F  F74  1  0.60816788  0.18430015  0.69439886  1  -0.63364  0  -0.082652  -0.126489  0  1.396094  0
F  F75  1  0.38420558  0.79485571  0.30896999  1  -0.626542  0  -0.079949  -0.122442  0  1.400136  0
