# generated using pymatgen
data_GdH16C27N2O7
_symmetry_space_group_name_H-M   'P 1'
_cell_length_a   10.55035508
_cell_length_b   10.71661759
_cell_length_c   11.81680000
_cell_angle_alpha   76.85980073
_cell_angle_beta   83.01916536
_cell_angle_gamma   65.83007190
_symmetry_Int_Tables_number   1
_chemical_formula_structural   GdH16C27N2O7
_chemical_formula_sum   'Gd2 H32 C54 N4 O14'
_cell_volume   1186.40627827
_cell_formula_units_Z   2
loop_
 _symmetry_equiv_pos_site_id
 _symmetry_equiv_pos_as_xyz
  1  'x, y, z'
loop_
 _atom_site_type_symbol
 _atom_site_label
 _atom_site_symmetry_multiplicity
 _atom_site_fract_x
 _atom_site_fract_y
 _atom_site_fract_z
 _atom_site_occupancy
 _atom_site_hle17_bader_spin_density
 _atom_site_hle17_ddec_charge
 _atom_site_hle17_ddec_spin_density
 _atom_site_hle17_ddec_sum_bond_order
 _atom_site_hle17_magmom
 _atom_site_hse06_10hf_bader_spin_density
 _atom_site_hse06_10hf_ddec_charge
 _atom_site_hse06_10hf_ddec_spin_density
 _atom_site_hse06_10hf_ddec_sum_bond_order
 _atom_site_hse06_10hf_magmom
 _atom_site_hse06_bader_spin_density
 _atom_site_hse06_ddec_charge
 _atom_site_hse06_ddec_spin_density
 _atom_site_hse06_ddec_sum_bond_order
 _atom_site_hse06_magmom
 _atom_site_pbe_bader_charge
 _atom_site_pbe_bader_spin_density
 _atom_site_pbe_cm5_charge
 _atom_site_pbe_ddec_charge
 _atom_site_pbe_ddec_spin_density
 _atom_site_pbe_ddec_sum_bond_order
 _atom_site_pbe_magmom
Gd  Gd0  1  0.98946044  0.25134823  0.09996474  1  0  2.064275  0  1.913099  0  0  1.937395  0  2.328133  0  0  1.999166  0  2.262794  0  2.153102  0  1.489934  1.890405  0  2.379288  0
Gd  Gd1  1  0.01053886  0.74865009  0.90003738  1  0  2.064344  0  1.912942  0  0  1.937433  0  2.328023  0  0  1.999216  0  2.262653  0  2.153103  0  1.48997  1.890448  0  2.379168  0
H  H2  1  0.21236871  0.40579677  0.96605105  1  0  0.083513  0  0.968914  0  0  0.08824  0  1.038796  0  0  0.090991  0  1.036072  0  0.12357  0  0.126827  0.086291  0  1.040644  0
H  H3  1  0.78763072  0.59420364  0.03394977  1  0  0.083547  0  0.968943  0  0  0.088288  0  1.038796  0  0  0.091042  0  1.036073  0  0.123589  0  0.126844  0.086337  0  1.040646  0
H  H4  1  0.46016803  0.36111074  0.92738517  1  0  0.105635  0  0.960118  0  0  0.115234  0  1.018859  0  0  0.118528  0  1.01745  0  0.110178  0  0.108192  0.112988  0  1.019799  0
H  H5  1  0.53983140  0.63888967  0.07261481  1  0  0.105652  0  0.960109  0  0  0.115237  0  1.018862  0  0  0.118531  0  1.017453  0  0.110174  0  0.108196  0.112992  0  1.019802  0
H  H6  1  0.64195154  0.14005246  0.03623367  1  0  0.122931  0  0.942918  0  0  0.132289  0  1.001756  0  0  0.136083  0  0.998546  0  0.119553  0  0.114355  0.129485  0  1.004189  0
H  H7  1  0.35804789  0.85994795  0.96376631  1  0  0.122932  0  0.942923  0  0  0.132287  0  1.001759  0  0  0.136081  0  0.998548  0  0.11955  0  0.114357  0.129483  0  1.004193  0
H  H8  1  0.69310325  0.91432802  0.17362239  1  0  0.117233  0  0.945749  0  0  0.126994  0  1.005794  0  0  0.130086  0  1.004405  0  0.092301  0  0.109314  0.124542  0  1.007267  0
H  H9  1  0.30689850  0.08567135  0.82637839  1  0  0.117227  0  0.945778  0  0  0.126976  0  1.005839  0  0  0.130066  0  1.004455  0  0.092319  0  0.109298  0.12453  0  1.007304  0
H  H10  1  0.60947454  0.74934371  0.31210728  1  0  0.092621  0  0.975329  0  0  0.101394  0  1.041148  0  0  0.103075  0  1.042783  0  0.08317  0  0.098562  0.100437  0  1.039586  0
H  H11  1  0.39052584  0.25065670  0.68789259  1  0  0.09263  0  0.975272  0  0  0.101371  0  1.041117  0  0  0.103051  0  1.042753  0  0.083176  0  0.098543  0.100413  0  1.039557  0
H  H12  1  0.40916356  0.69393207  0.41316241  1  0  0.09845  0  0.926935  0  0  0.113465  0  0.978361  0  0  0.116219  0  0.976888  0  0.08755  0  0.111081  0.111391  0  0.979664  0
H  H13  1  0.59083546  0.30606938  0.58683740  1  0  0.098506  0  0.926985  0  0  0.11354  0  0.978375  0  0  0.116297  0  0.976902  0  0.087526  0  0.111111  0.111466  0  0.97968  0
H  H14  1  0.15115541  0.76937221  0.44667507  1  0  0.108981  0  0.948454  0  0  0.120721  0  1.0051  0  0  0.123582  0  1.004966  0  0.089612  0  0.109776  0.118643  0  1.005329  0
H  H15  1  0.84884443  0.23062715  0.55332508  1  0  0.109028  0  0.948401  0  0  0.120736  0  1.005087  0  0  0.123599  0  1.004952  0  0.089659  0  0.109775  0.118658  0  1.005315  0
H  H16  1  0.99320711  0.99979910  0.33202133  1  0  0.084176  0  0.946992  0  0  0.092358  0  1.012041  0  0  0.09541  0  1.00895  0  0.082188  0  0.122533  0.09003  0  1.014472  0
H  H17  1  0.00679410  0.00019922  0.66797973  1  0  0.084185  0  0.946968  0  0  0.092368  0  1.012022  0  0  0.095421  0  1.008928  0  0.082185  0  0.122531  0.09004  0  1.014454  0
H  H18  1  0.69820245  0.13333109  0.40458183  1  0  0.096479  0  0.954176  0  0  0.105846  0  1.0158  0  0  0.108974  0  1.013817  0  0.084874  0  0.102391  0.103577  0  1.017296  0
H  H19  1  0.30179862  0.86666514  0.59541798  1  0  0.096451  0  0.95425  0  0  0.105827  0  1.01586  0  0  0.108945  0  1.013888  0  0.084891  0  0.10237  0.103557  0  1.017359  0
H  H20  1  0.47307244  0.11664241  0.48772393  1  0  0.109755  0  0.95517  0  0  0.120398  0  1.016094  0  0  0.123772  0  1.014842  0  0.056657  0  0.103977  0.118066  0  1.016925  0
H  H21  1  0.52692686  0.88335591  0.51227649  1  0  0.109745  0  0.955189  0  0  0.120388  0  1.016111  0  0  0.123763  0  1.014861  0  0.05673  0  0.103967  0.118055  0  1.016944  0
H  H22  1  0.25068035  0.46347181  0.22177960  1  0  0.125457  0  0.9487  0  0  0.136308  0  1.005784  0  0  0.139242  0  1.004987  0  0.119835  0  0.111579  0.134176  0  1.006598  0
H  H23  1  0.74931962  0.53652964  0.77822095  1  0  0.125462  0  0.948705  0  0  0.136298  0  1.005804  0  0  0.139232  0  1.005008  0  0.11984  0  0.111574  0.134165  0  1.006618  0
H  H24  1  0.47457728  0.47741520  0.13911643  1  0  0.101086  0  0.950732  0  0  0.113047  0  1.007735  0  0  0.116481  0  1.004934  0  0.108169  0  0.108518  0.110476  0  1.009939  0
H  H25  1  0.52542215  0.52258520  0.86088524  1  0  0.101076  0  0.950741  0  0  0.113037  0  1.007747  0  0  0.116471  0  1.004945  0  0.108162  0  0.108519  0.110467  0  1.009949  0
H  H26  1  0.23188532  0.49764293  0.46894131  1  0  0.105182  0  0.96009  0  0  0.116452  0  1.018822  0  0  0.119276  0  1.018943  0  0.06937  0  0.102277  0.11435  0  1.019043  0
H  H27  1  0.76811685  0.50235539  0.53105880  1  0  0.105207  0  0.960147  0  0  0.116484  0  1.01886  0  0  0.119308  0  1.018981  0  0.068942  0  0.102307  0.114394  0  1.019067  0
H  H28  1  0.12961140  0.57266794  0.65711253  1  0  0.109594  0  0.958934  0  0  0.117317  0  1.02148  0  0  0.120964  0  1.018526  0  0.125792  0  0.109764  0.11466  0  1.023652  0
H  H29  1  0.87038994  0.42733247  0.34288639  1  0  0.109594  0  0.95899  0  0  0.11732  0  1.021521  0  0  0.120973  0  1.01857  0  0.125802  0  0.109772  0.114663  0  1.023695  0
H  H30  1  0.01352984  0.22173521  0.75770488  1  0  0.10026  0  0.950919  0  0  0.109539  0  1.01211  0  0  0.112496  0  1.010114  0  0.093611  0  0.107964  0.107237  0  1.013882  0
H  H31  1  0.98647055  0.77826519  0.24229415  1  0  0.100272  0  0.950926  0  0  0.109541  0  1.012128  0  0  0.112495  0  1.010135  0  0.093594  0  0.10797  0.107237  0  1.013901  0
H  H32  1  0.11376248  0.14772091  0.56700295  1  0  0.109424  0  0.944472  0  0  0.122082  0  1.001153  0  0  0.125633  0  0.999311  0  0.066844  0  0.10754  0.119537  0  1.002644  0
H  H33  1  0.88623695  0.85227950  0.43299703  1  0  0.109431  0  0.944473  0  0  0.12209  0  1.001152  0  0  0.12564  0  0.999311  0  0.066779  0  0.107548  0.119545  0  1.002643  0
C  C34  1  0.29073037  0.30931846  0.01032580  1  0  0.166173  0  3.672551  0  0  0.135236  0  3.93268  0  0  0.143698  0  3.948829  0  0.499842  0  0.069106  0.129802  0  3.921291  0
C  C35  1  0.70926961  0.69068299  0.98967475  1  0  0.166036  0  3.672677  0  0  0.135102  0  3.932769  0  0  0.14356  0  3.948925  0  0.499843  0  0.069049  0.129668  0  3.921379  0
C  C36  1  0.43238698  0.28343535  0.98903468  1  0  -0.106423  0  3.721838  0  0  -0.118735  0  3.975189  0  0  -0.125675  0  3.996049  0  -0.028859  0  -0.077457  -0.113961  0  3.96069  0
C  C37  1  0.56761286  0.71656401  0.01096547  1  0  -0.106392  0  3.721894  0  0  -0.118705  0  3.975236  0  0  -0.125644  0  3.996097  0  -0.028877  0  -0.077446  -0.113931  0  3.960737  0
C  C38  1  0.53104929  0.16297749  0.04797072  1  0  -0.033881  0  3.644225  0  0  -0.058988  0  3.892912  0  0  -0.056545  0  3.910122  0  0.007567  0  -0.05612  -0.060414  0  3.881173  0
C  C39  1  0.46895096  0.83702083  0.95202790  1  0  -0.033882  0  3.644209  0  0  -0.058972  0  3.892873  0  0  -0.056528  0  3.910081  0  0.007607  0  -0.056116  -0.060398  0  3.881135  0
C  C40  1  0.48659236  0.06764027  0.12771156  1  0  0.029488  0  3.769473  0  0  0.045241  0  4.001803  0  0  0.042442  0  4.026695  0  -0.022779  0  0.003114  0.046917  0  3.985123  0
C  C41  1  0.51340844  0.93235909  0.87228848  1  0  0.029477  0  3.769418  0  0  0.045225  0  4.001745  0  0  0.042426  0  4.026636  0  -0.022787  0  0.003096  0.0469  0  3.985067  0
C  C42  1  0.58243953  0.93888854  0.19036162  1  0  -0.081692  0  3.716175  0  0  -0.105982  0  3.970376  0  0  -0.108217  0  3.993209  0  0.045352  0  -0.076885  -0.104354  0  3.955218  0
C  C43  1  0.41756126  0.06111082  0.80963758  1  0  -0.081701  0  3.716239  0  0  -0.105991  0  3.970425  0  0  -0.108227  0  3.993256  0  0.04537  0  -0.076871  -0.104367  0  3.955266  0
C  C44  1  0.53610051  0.84839312  0.26600130  1  0  -0.118153  0  3.766327  0  0  -0.139047  0  4.02219  0  0  -0.143811  0  4.047423  0  -0.094691  0  -0.090529  -0.135682  0  4.004544  0
C  C45  1  0.46390028  0.15160624  0.73399875  1  0  -0.118144  0  3.766428  0  0  -0.138997  0  4.022264  0  0  -0.143761  0  4.047498  0  -0.094703  0  -0.090508  -0.135634  0  4.00462  0
C  C46  1  0.39031686  0.88130842  0.28640722  1  0  0.026334  0  3.783517  0  0  0.042856  0  4.011666  0  0  0.040484  0  4.035887  0  -0.028594  0  -0.000197  0.044309  0  3.995219  0
C  C47  1  0.60968298  0.11869095  0.71359293  1  0  0.026383  0  3.783587  0  0  0.042911  0  4.011711  0  0  0.04054  0  4.035932  0  -0.028562  0  -0.000153  0.044365  0  3.995262  0
C  C48  1  0.33706217  0.79285840  0.36566332  1  0  -0.043  0  3.702152  0  0  -0.064616  0  3.944786  0  0  -0.062007  0  3.962913  0  -0.058753  0  -0.060793  -0.066391  0  3.932718  0
C  C49  1  0.66293684  0.20714305  0.63433564  1  0  -0.043136  0  3.702262  0  0  -0.06477  0  3.94488  0  0  -0.062166  0  3.963012  0  -0.058782  0  -0.060861  -0.066545  0  3.932811  0
C  C50  1  0.19500270  0.83382495  0.38395105  1  0  -0.125224  0  3.74547  0  0  -0.138397  0  3.998125  0  0  -0.145647  0  4.019882  0  -0.030525  0  -0.084183  -0.133613  0  3.983673  0
C  C51  1  0.80499536  0.16617650  0.61604886  1  0  -0.12526  0  3.745476  0  0  -0.138404  0  3.998147  0  0  -0.145655  0  4.019907  0  -0.030561  0  -0.084187  -0.13362  0  3.983694  0
C  C52  1  0.10611185  0.96217447  0.32066732  1  0  0.146774  0  3.711152  0  0  0.116423  0  3.9703  0  0  0.123765  0  3.987976  0  0.540023  0  0.05965  0.111712  0  3.958216  0
C  C53  1  0.89388758  0.03782594  0.67933351  1  0  0.146744  0  3.711062  0  0  0.116384  0  3.97021  0  0  0.123724  0  3.987889  0  0.540057  0  0.059634  0.111672  0  3.958128  0
C  C54  1  0.29223459  0.00882205  0.22588314  1  0  0.156672  0  3.725242  0  0  0.151291  0  3.964631  0  0  0.156624  0  3.984393  0  0.498869  0  0.126759  0.147908  0  3.950946  0
C  C55  1  0.70776662  0.99117627  0.77411792  1  0  0.156634  0  3.72526  0  0  0.151252  0  3.964654  0  0  0.156584  0  3.984416  0  0.498868  0  0.126728  0.147868  0  3.950967  0
C  C56  1  0.34127668  0.10230683  0.14369440  1  0  0.141541  0  3.744153  0  0  0.135934  0  3.985587  0  0  0.140226  0  4.006616  0  0.495589  0  0.122646  0.13304  0  3.971353  0
C  C57  1  0.65872275  0.89769357  0.85630557  1  0  0.141526  0  3.744125  0  0  0.135907  0  3.985574  0  0  0.140199  0  4.006604  0  0.495557  0  0.122646  0.133014  0  3.971339  0
C  C58  1  0.92660780  0.01017384  0.02684652  1  0  0.547637  0  3.95115  0  0  0.50805  0  4.249342  0  0  0.537987  0  4.240419  0  1.579681  0  0.21045  0.487694  0  4.254768  0
C  C59  1  0.07339313  0.98982761  0.97315562  1  0  0.547566  0  3.951396  0  0  0.507947  0  4.249625  0  0  0.537885  0  4.240701  0  1.563076  0  0.210409  0.487593  0  4.255049  0
C  C60  1  0.73447169  0.31323299  0.21795905  1  0  0.642639  0  3.927176  0  0  0.597343  0  4.221765  0  0  0.631936  0  4.214031  0  1.554357  0  0.186319  0.574102  0  4.225804  0
C  C61  1  0.26552910  0.68676637  0.78204184  1  0  0.642785  0  3.927169  0  0  0.597459  0  4.221724  0  0  0.632052  0  4.21399  0  1.554457  0  0.186373  0.574217  0  4.225764  0
C  C62  1  0.59971542  0.30845586  0.26884687  1  0  -0.072912  0  3.761373  0  0  -0.050108  0  3.990273  0  0  -0.05979  0  4.014604  0  -0.074783  0  -0.020621  -0.04406  0  3.974019  0
C  C63  1  0.40028525  0.69154142  0.73115278  1  0  -0.073031  0  3.761438  0  0  -0.05009  0  3.990143  0  0  -0.059771  0  4.014471  0  -0.074899  0  -0.020605  -0.04404  0  3.973888  0
C  C64  1  0.59943188  0.20567861  0.36630688  1  0  -0.046435  0  3.752837  0  0  -0.068507  0  3.999374  0  0  -0.066842  0  4.019942  0  0.026702  0  -0.082294  -0.069253  0  3.985254  0
C  C65  1  0.40056742  0.79431971  0.63369270  1  0  -0.046418  0  3.752802  0  0  -0.068529  0  3.999285  0  0  -0.066857  0  4.019856  0  0.026454  0  -0.082305  -0.069273  0  3.985163  0
C  C66  1  0.47533818  0.19579996  0.41195186  1  0  -0.190375  0  3.76445  0  0  -0.213312  0  4.022335  0  0  -0.219559  0  4.042447  0  -0.043815  0  -0.102552  -0.209125  0  4.008556  0
C  C67  1  0.52466152  0.80419732  0.58804789  1  0  -0.190348  0  3.764455  0  0  -0.213284  0  4.022354  0  0  -0.219532  0  4.042463  0  -0.043583  0  -0.102542  -0.209097  0  4.008574  0
C  C68  1  0.35084546  0.28961017  0.35961166  1  0  0.275031  0  3.786368  0  0  0.26396  0  4.055279  0  0  0.274731  0  4.070607  0  0.391882  0  0.084048  0.256639  0  4.044879  0
C  C69  1  0.64915479  0.71038815  0.64038696  1  0  0.27509  0  3.786359  0  0  0.263988  0  4.055306  0  0  0.274762  0  4.070632  0  0.391896  0  0.084054  0.256666  0  4.044908  0
C  C70  1  0.34844652  0.39226642  0.26223496  1  0  -0.172669  0  3.727536  0  0  -0.194593  0  3.982032  0  0  -0.200198  0  4.001838  0  0.009578  0  -0.095105  -0.191101  0  3.969258  0
C  C71  1  0.65155236  0.60773294  0.73776529  1  0  -0.172668  0  3.727536  0  0  -0.194579  0  3.982056  0  0  -0.200185  0  4.00186  0  0.009252  0  -0.095081  -0.191088  0  3.969284  0
C  C72  1  0.47376095  0.40048977  0.21702897  1  0  -0.046282  0  3.741052  0  0  -0.06885  0  3.986877  0  0  -0.067253  0  4.007229  0  -0.058439  0  -0.077053  -0.069919  0  3.973541  0
C  C73  1  0.52623889  0.59950960  0.78297118  1  0  -0.04627  0  3.741125  0  0  -0.06888  0  3.986912  0  0  -0.067282  0  4.007264  0  -0.058136  0  -0.077082  -0.069948  0  3.973575  0
C  C74  1  0.17732563  0.31860466  0.50845905  1  0  0.292304  0  3.790947  0  0  0.281705  0  4.054676  0  0  0.294343  0  4.06948  0  0.480625  0  0.091914  0.2732  0  4.044454  0
C  C75  1  0.82267435  0.68139679  0.49153981  1  0  0.292377  0  3.790904  0  0  0.281752  0  4.054665  0  0  0.29439  0  4.069469  0  0.480648  0  0.09191  0.273245  0  4.044447  0
C  C76  1  0.18408606  0.43773995  0.53270649  1  0  -0.209629  0  3.77834  0  0  -0.228409  0  4.031346  0  0  -0.236277  0  4.052387  0  -0.100295  0  -0.106775  -0.223112  0  4.017119  0
C  C77  1  0.81591474  0.56225942  0.46729356  1  0  -0.209666  0  3.778434  0  0  -0.228449  0  4.03146  0  0  -0.236318  0  4.052505  0  -0.09987  0  -0.106759  -0.223165  0  4.017229  0
C  C78  1  0.12708462  0.47924261  0.63713151  1  0  -0.030876  0  3.727043  0  0  -0.052939  0  3.972276  0  0  -0.048776  0  3.989467  0  -0.01934  0  -0.075978  -0.055467  0  3.960522  0
C  C79  1  0.87291399  0.52075988  0.36286728  1  0  -0.0309  0  3.727219  0  0  -0.052976  0  3.972443  0  0  -0.048825  0  3.989645  0  -0.019327  0  -0.076048  -0.055508  0  3.960697  0
C  C80  1  0.06513194  0.40168614  0.71859494  1  0  -0.104023  0  3.754392  0  0  -0.084582  0  3.990204  0  0  -0.095093  0  4.012938  0  -0.003444  0  -0.025378  -0.077777  0  3.975095  0
C  C81  1  0.93486517  0.59831531  0.28140423  1  0  -0.10398  0  3.754325  0  0  -0.084485  0  3.990119  0  0  -0.094989  0  4.012858  0  -0.003474  0  -0.025367  -0.077686  0  3.975003  0
C  C82  1  0.05980378  0.28231095  0.69313381  1  0  -0.037995  0  3.746892  0  0  -0.061705  0  3.997687  0  0  -0.058158  0  4.016868  0  -0.009707  0  -0.07752  -0.063812  0  3.984863  0
C  C83  1  0.94019387  0.71769154  0.30686509  1  0  -0.037989  0  3.746899  0  0  -0.061698  0  3.997676  0  0  -0.058149  0  4.016857  0  -0.009681  0  -0.077502  -0.063802  0  3.984847  0
C  C84  1  0.11500012  0.24094493  0.58828750  1  0  -0.188808  0  3.747831  0  0  -0.210484  0  4.005156  0  0  -0.217436  0  4.024234  0  -0.05026  0  -0.100155  -0.206089  0  3.992349  0
C  C85  1  0.88499753  0.75905757  0.41171055  1  0  -0.18884  0  3.74792  0  0  -0.210514  0  4.005254  0  0  -0.217467  0  4.024334  0  -0.050225  0  -0.100178  -0.20612  0  3.992447  0
C  C86  1  0.00941440  0.44449991  0.83213745  1  0  0.726197  0  3.861654  0  0  0.677124  0  4.158468  0  0  0.713688  0  4.14656  0  1.553648  0  0.237989  0.652138  0  4.166115  0
C  C87  1  0.99058489  0.55550572  0.16786062  1  0  0.726263  0  3.86161  0  0  0.677103  0  4.158548  0  0  0.713654  0  4.146667  0  1.553645  0  0.238077  0.652139  0  4.166163  0
N  N88  1  0.24540085  0.22177485  0.08490294  1  0  -0.41638  0  3.231191  0  0  -0.370918  0  3.499136  0  0  -0.387678  0  3.517591  0  -1.247114  0  -0.372517  -0.359005  0  3.486472  0
N  N89  1  0.75459953  0.77822556  0.91509863  1  0  -0.41633  0  3.231149  0  0  -0.370862  0  3.499096  0  0  -0.387624  0  3.517555  0  -1.247129  0  -0.372519  -0.358948  0  3.486432  0
N  N90  1  0.15254363  0.04667303  0.24311163  1  0  -0.419596  0  3.234611  0  0  -0.374267  0  3.501027  0  0  -0.390494  0  3.519043  0  -1.234835  0  -0.374715  -0.362753  0  3.488389  0
N  N91  1  0.84745621  0.95332634  0.75688851  1  0  -0.419504  0  3.234528  0  0  -0.374169  0  3.500948  0  0  -0.390395  0  3.518962  0  -1.23486  0  -0.374655  -0.362653  0  3.488309  0
O  O92  1  0.84620479  0.23740797  0.27438280  1  0  -0.704369  0  1.967811  0  0  -0.663285  0  2.209606  0  0  -0.689251  0  2.199056  0  -1.188716  0  -0.39347  -0.64482  0  2.216173  0
O  O93  1  0.15379601  0.76259139  0.72561724  1  0  -0.704405  0  1.967796  0  0  -0.663327  0  2.209602  0  0  -0.689294  0  2.199046  0  -1.188682  0  -0.393475  -0.644861  0  2.21617  0
O  O94  1  0.73823079  0.38751014  0.11754536  1  0  -0.668738  0  1.947587  0  0  -0.624878  0  2.179449  0  0  -0.650547  0  2.170684  0  -1.182945  0  -0.371252  -0.606526  0  2.184889  0
O  O95  1  0.26176864  0.61249026  0.88245631  1  0  -0.668798  0  1.947565  0  0  -0.624937  0  2.179437  0  0  -0.65061  0  2.170673  0  -1.182982  0  -0.37128  -0.606584  0  2.184878  0
O  O96  1  0.22789801  0.27510457  0.40451639  1  0  -0.301502  0  2.295487  0  0  -0.238096  0  2.521583  0  0  -0.25481  0  2.522251  0  -1.094369  0  -0.157676  -0.226191  0  2.520518  0
O  O97  1  0.77210128  0.72489375  0.59548403  1  0  -0.301578  0  2.295551  0  0  -0.238149  0  2.521651  0  0  -0.25486  0  2.522314  0  -1.094353  0  -0.157665  -0.226239  0  2.520583  0
O  O98  1  0.01126036  0.55689505  0.84823990  1  0  -0.743  0  2.122995  0  0  -0.699316  0  2.397217  0  0  -0.72586  0  2.382302  0  -1.212662  0  -0.414244  -0.680264  0  2.407305  0
O  O99  1  0.98873989  0.44310327  0.15175873  1  0  -0.743128  0  2.122872  0  0  -0.699425  0  2.397137  0  0  -0.725966  0  2.382235  0  -1.212655  0  -0.414315  -0.680371  0  2.407196  0
O  O100  1  0.96349528  0.36654812  0.90852268  1  0  -0.727696  0  2.018895  0  0  -0.6794  0  2.273061  0  0  -0.705924  0  2.259325  0  -1.20529  0  -0.409941  -0.660316  0  2.282426  0
O  O101  1  0.03650183  0.63345333  0.09147818  1  0  -0.727668  0  2.019128  0  0  -0.679348  0  2.273351  0  0  -0.70585  0  2.25958  0  -1.205346  0  -0.409958  -0.660271  0  2.282706  0
O  O102  1  0.87421564  0.92955852  0.00898061  1  0  -0.648698  0  2.092124  0  0  -0.61201  0  2.340211  0  0  -0.636437  0  2.333554  0  -1.177896  0  -0.363978  -0.594526  0  2.344687  0
O  O103  1  0.12578611  0.07044084  0.99101763  1  0  -0.648583  0  2.092214  0  0  -0.611909  0  2.340327  0  0  -0.636331  0  2.333669  0  -1.177958  0  -0.363902  -0.594423  0  2.344798  0
O  O104  1  0.87051733  0.10655828  0.08455633  1  0  -0.647502  0  2.062759  0  0  -0.602798  0  2.299468  0  0  -0.627609  0  2.291152  0  -1.173669  0  -0.369209  -0.585211  0  2.305137  0
O  O105  1  0.12948375  0.89343796  0.91545110  1  0  -0.647535  0  2.062862  0  0  -0.60282  0  2.299596  0  0  -0.627633  0  2.291281  0  -1.173626  0  -0.369233  -0.585234  0  2.305264  0
