# generated using pymatgen
data_CdH16C16(NO)4
_symmetry_space_group_name_H-M   'P 1'
_cell_length_a   8.96719322
_cell_length_b   9.83749051
_cell_length_c   12.01152311
_cell_angle_alpha   79.06328812
_cell_angle_beta   86.54115596
_cell_angle_gamma   65.54150498
_symmetry_Int_Tables_number   1
_chemical_formula_structural   CdH16C16(NO)4
_chemical_formula_sum   'Cd2 H32 C32 N8 O8'
_cell_volume   946.79150350
_cell_formula_units_Z   2
loop_
 _symmetry_equiv_pos_site_id
 _symmetry_equiv_pos_as_xyz
  1  'x, y, z'
loop_
 _atom_site_type_symbol
 _atom_site_label
 _atom_site_symmetry_multiplicity
 _atom_site_fract_x
 _atom_site_fract_y
 _atom_site_fract_z
 _atom_site_occupancy
 _atom_site_hle17_bader_spin_density
 _atom_site_hle17_ddec_charge
 _atom_site_hle17_ddec_spin_density
 _atom_site_hle17_ddec_sum_bond_order
 _atom_site_hle17_magmom
 _atom_site_hse06_10hf_bader_spin_density
 _atom_site_hse06_10hf_ddec_charge
 _atom_site_hse06_10hf_ddec_spin_density
 _atom_site_hse06_10hf_ddec_sum_bond_order
 _atom_site_hse06_10hf_magmom
 _atom_site_hse06_bader_spin_density
 _atom_site_hse06_ddec_charge
 _atom_site_hse06_ddec_spin_density
 _atom_site_hse06_ddec_sum_bond_order
 _atom_site_hse06_magmom
 _atom_site_pbe_bader_spin_density
 _atom_site_pbe_cm5_charge
 _atom_site_pbe_ddec_charge
 _atom_site_pbe_ddec_spin_density
 _atom_site_pbe_ddec_sum_bond_order
 _atom_site_pbe_magmom
Cd  Cd0  1  0.83996605  0.13421402  0.38415617  1  0  1.108231  0  1.698577  0  0  0.912297  0  2.147711  0  0  0.973788  0  2.094269  0  0  0.763248  0.868682  0  2.183901  0
Cd  Cd1  1  0.16003673  0.86578642  0.61584393  1  0  1.108258  0  1.698543  0  0  0.912336  0  2.147652  0  0  0.973819  0  2.094229  0  0  0.763247  0.868721  0  2.183843  0
H  H2  1  0.03941124  0.20872039  0.18357411  1  0  0.092469  0  0.936411  0  0  0.101771  0  0.998162  0  0  0.104581  0  0.995611  0  0  0.121006  0.099769  0  0.999873  0
H  H3  1  0.96059270  0.79127996  0.81643344  1  0  0.092525  0  0.936431  0  0  0.10182  0  0.998174  0  0  0.104609  0  0.995646  0  0  0.121028  0.099817  0  0.999884  0
H  H4  1  0.26649600  0.84603932  0.99198068  1  0  0.117137  0  0.925823  0  0  0.126429  0  0.986155  0  0  0.129626  0  0.983473  0  0  0.117698  0.123938  0  0.988278  0
H  H5  1  0.73351220  0.15396670  0.00801668  1  0  0.117183  0  0.925757  0  0  0.126425  0  0.986136  0  0  0.129622  0  0.983455  0  0  0.117672  0.123935  0  0.988257  0
H  H6  1  0.15138681  0.69140964  0.13263739  1  0  0.107  0  0.930768  0  0  0.123525  0  0.976354  0  0  0.126198  0  0.976381  0  0  0.114168  0.121664  0  0.976305  0
H  H7  1  0.84862881  0.30858950  0.86736066  1  0  0.106992  0  0.930761  0  0  0.123549  0  0.976309  0  0  0.126187  0  0.976375  0  0  0.114196  0.121686  0  0.976263  0
H  H8  1  0.98442708  0.80777291  0.29223950  1  0  0.079431  0  0.927151  0  0  0.090566  0  0.987387  0  0  0.092595  0  0.985599  0  0  0.119513  0.088975  0  0.988798  0
H  H9  1  0.01557811  0.19222190  0.70775717  1  0  0.079441  0  0.92713  0  0  0.090579  0  0.987358  0  0  0.092608  0  0.985569  0  0  0.119508  0.088987  0  0.988769  0
H  H10  1  0.18936699  0.25390689  0.01614541  1  0  0.073133  0  0.920881  0  0  0.084848  0  0.98242  0  0  0.088482  0  0.977764  0  0  0.11835  0.082475  0  0.985081  0
H  H11  1  0.81063173  0.74610040  0.98385135  1  0  0.073101  0  0.920883  0  0  0.084839  0  0.982425  0  0  0.088462  0  0.977781  0  0  0.118353  0.082466  0  0.985086  0
H  H12  1  0.43810188  0.05908395  0.73567951  1  0  0.089107  0  0.973072  0  0  0.095825  0  1.042632  0  0  0.0993  0  1.039176  0  0  0.116005  0.093606  0  1.044677  0
H  H13  1  0.56189706  0.94090981  0.26431843  1  0  0.089115  0  0.973003  0  0  0.095813  0  1.042613  0  0  0.099284  0  1.039164  0  0  0.116041  0.093596  0  1.044659  0
H  H14  1  0.43892757  0.43918135  0.77863484  1  0  0.123247  0  0.93214  0  0  0.12996  0  0.995077  0  0  0.134405  0  0.990233  0  0  0.11592  0.126786  0  0.998324  0
H  H15  1  0.56106414  0.56081362  0.22136574  1  0  0.123275  0  0.932158  0  0  0.129968  0  0.995096  0  0  0.134413  0  0.990251  0  0  0.115916  0.126787  0  0.998352  0
H  H16  1  0.59727798  0.56038197  0.65028171  1  0  0.105847  0  0.968182  0  0  0.118137  0  1.025331  0  0  0.119826  0  1.026798  0  0  0.110011  0.117124  0  1.024046  0
H  H17  1  0.40271453  0.43961635  0.34972083  1  0  0.105816  0  0.968161  0  0  0.118094  0  1.025336  0  0  0.119784  0  1.026803  0  0  0.109988  0.117081  0  1.024053  0
H  H18  1  0.75859068  0.43111557  0.49343154  1  0  0.080646  0  0.952072  0  0  0.090347  0  1.014625  0  0  0.092239  0  1.013423  0  0  0.115991  0.088628  0  1.016195  0
H  H19  1  0.24140327  0.56888722  0.50657194  1  0  0.080634  0  0.952094  0  0  0.09034  0  1.014638  0  0  0.092233  0  1.013435  0  0  0.11597  0.088626  0  1.016195  0
H  H20  1  0.61425931  0.07720194  0.58351876  1  0  0.094791  0  0.926666  0  0  0.10397  0  0.989657  0  0  0.106527  0  0.987475  0  0  0.123805  0.101738  0  0.991894  0
H  H21  1  0.38574104  0.92279633  0.41647678  1  0  0.094846  0  0.926631  0  0  0.104027  0  0.989621  0  0  0.106582  0  0.987439  0  0  0.123844  0.101794  0  0.991859  0
H  H22  1  0.37996882  0.38417375  0.12638499  1  0  0.129272  0  0.937075  0  0  0.150105  0  0.991913  0  0  0.152939  0  0.99013  0  0  0.092785  0.148158  0  0.993006  0
H  H23  1  0.62002421  0.61582338  0.87362271  1  0  0.129291  0  0.937182  0  0  0.150107  0  0.992044  0  0  0.152922  0  0.990281  0  0  0.092782  0.148159  0  0.993138  0
H  H24  1  0.31558398  0.25119450  0.21764417  1  0  0.126565  0  0.951014  0  0  0.145769  0  1.010832  0  0  0.147674  0  1.010835  0  0  0.090828  0.144427  0  1.010888  0
H  H25  1  0.68441485  0.74879691  0.78236328  1  0  0.126543  0  0.950959  0  0  0.145767  0  1.010764  0  0  0.147672  0  1.010766  0  0  0.090786  0.144424  0  1.010822  0
H  H26  1  0.45698237  0.19234321  0.10750233  1  0  0.135855  0  0.967307  0  0  0.145298  0  1.046034  0  0  0.148707  0  1.044214  0  0  0.094965  0.14293  0  1.047322  0
H  H27  1  0.54301710  0.80764931  0.89250576  1  0  0.135929  0  0.967317  0  0  0.145386  0  1.046018  0  0  0.148791  0  1.044195  0  0  0.094993  0.14302  0  1.047305  0
H  H28  1  0.19230550  0.38531953  0.45016382  1  0  0.125472  0  0.960163  0  0  0.145603  0  1.018341  0  0  0.147948  0  1.017513  0  0  0.091018  0.143801  0  1.019246  0
H  H29  1  0.80769594  0.61468663  0.54983049  1  0  0.125475  0  0.960186  0  0  0.145621  0  1.018347  0  0  0.147967  0  1.017519  0  0  0.091003  0.143818  0  1.019251  0
H  H30  1  0.33585953  0.19276427  0.45506565  1  0  0.148983  0  0.947321  0  0  0.16479  0  1.013019  0  0  0.167915  0  1.01164  0  0  0.098626  0.16226  0  1.014578  0
H  H31  1  0.66414064  0.80723963  0.54492988  1  0  0.148987  0  0.947365  0  0  0.164791  0  1.013054  0  0  0.167917  0  1.011677  0  0  0.098636  0.162262  0  1.014611  0
H  H32  1  0.21988617  0.24541880  0.57632764  1  0  0.130665  0  0.950142  0  0  0.148889  0  1.012236  0  0  0.151514  0  1.011069  0  0  0.093604  0.14707  0  1.012958  0
H  H33  1  0.78011543  0.75458960  0.42366716  1  0  0.130678  0  0.950165  0  0  0.148902  0  1.01225  0  0  0.151527  0  1.011084  0  0  0.093601  0.147084  0  1.012972  0
C  C34  1  0.06782293  0.09448237  0.16859716  1  0  0.089065  0  3.663658  0  0  0.053321  0  3.907037  0  0  0.058223  0  3.928205  0  0  0.056329  0.049725  0  3.893324  0
C  C35  1  0.93217872  0.90551810  0.83140215  1  0  0.08905  0  3.663806  0  0  0.053317  0  3.90719  0  0  0.058235  0  3.928363  0  0  0.056367  0.049725  0  3.893472  0
C  C36  1  0.16295835  0.03962668  0.07694842  1  0  -0.004561  0  3.815115  0  0  0.015905  0  4.054606  0  0  0.009254  0  4.080858  0  0  -0.005459  0.019909  0  4.037223  0
C  C37  1  0.83705055  0.96037252  0.92305408  1  0  -0.004555  0  3.815239  0  0  0.015936  0  4.054705  0  0  0.009287  0  4.080946  0  0  -0.00544  0.019937  0  4.037323  0
C  C38  1  0.19430621  0.89133029  0.06317254  1  0  -0.020215  0  3.650302  0  0  -0.049744  0  3.901372  0  0  -0.045371  0  3.918754  0  0  -0.052368  -0.051898  0  3.889479  0
C  C39  1  0.80570330  0.10867007  0.93682560  1  0  -0.020213  0  3.650351  0  0  -0.049684  0  3.90137  0  0  -0.045311  0  3.918743  0  0  -0.052335  -0.051836  0  3.889477  0
C  C40  1  0.13038306  0.80646777  0.14051574  1  0  -0.12229  0  3.75616  0  0  -0.132842  0  4.010135  0  0  -0.141156  0  4.033121  0  0  -0.079459  -0.127666  0  3.994641  0
C  C41  1  0.86962758  0.19353257  0.85948235  1  0  -0.122242  0  3.756226  0  0  -0.132834  0  4.010161  0  0  -0.141118  0  4.033155  0  0  -0.079442  -0.127659  0  3.994667  0
C  C42  1  0.03702857  0.87037410  0.22960752  1  0  0.144937  0  3.687495  0  0  0.10764  0  3.949261  0  0  0.116168  0  3.967441  0  0  0.055914  0.102045  0  3.936798  0
C  C43  1  0.96298177  0.12962171  0.77039293  1  0  0.144856  0  3.68749  0  0  0.107584  0  3.949239  0  0  0.116114  0  3.967404  0  0  0.055907  0.101988  0  3.936777  0
C  C44  1  0.22560268  0.13737023  0.00165861  1  0  0.083766  0  3.705686  0  0  0.047921  0  3.971266  0  0  0.055122  0  3.985717  0  0  0.073996  0.043242  0  3.961539  0
C  C45  1  0.77439589  0.86263479  0.99834016  1  0  0.083811  0  3.705591  0  0  0.047906  0  3.971236  0  0  0.055115  0  3.985688  0  0  0.073952  0.043226  0  3.961512  0
C  C46  1  0.44050213  0.15760620  0.76524136  1  0  0.083926  0  3.673056  0  0  0.050178  0  3.933117  0  0  0.057274  0  3.948226  0  0  0.071799  0.045362  0  3.922835  0
C  C47  1  0.55949357  0.84238988  0.23475472  1  0  0.084101  0  3.672943  0  0  0.050334  0  3.933059  0  0  0.057432  0  3.948165  0  0  0.071854  0.045518  0  3.922779  0
C  C48  1  0.51814780  0.24503414  0.69329863  1  0  -0.004889  0  3.797974  0  0  0.018682  0  4.03138  0  0  0.011719  0  4.056949  0  0  -0.003429  0.023032  0  4.014371  0
C  C49  1  0.48184757  0.75496533  0.30669779  1  0  -0.004965  0  3.797826  0  0  0.018583  0  4.031257  0  0  0.011621  0  4.056822  0  0  -0.003473  0.022934  0  4.014246  0
C  C50  1  0.51227324  0.38434736  0.71118033  1  0  -0.019792  0  3.641679  0  0  -0.04673  0  3.885586  0  0  -0.042407  0  3.902203  0  0  -0.050854  -0.048834  0  3.874103  0
C  C51  1  0.48772022  0.61564874  0.28881750  1  0  -0.019744  0  3.641473  0  0  -0.046609  0  3.885307  0  0  -0.042285  0  3.901923  0  0  -0.050757  -0.048705  0  3.873827  0
C  C52  1  0.60000589  0.45198059  0.63987068  1  0  -0.125629  0  3.754717  0  0  -0.137739  0  4.007872  0  0  -0.146276  0  4.032264  0  0  -0.084128  -0.132243  0  3.990942  0
C  C53  1  0.39998951  0.54801883  0.36013073  1  0  -0.125581  0  3.754773  0  0  -0.13771  0  4.007923  0  0  -0.146248  0  4.032317  0  0  -0.084123  -0.132214  0  3.990992  0
C  C54  1  0.68920259  0.38159779  0.55227043  1  0  0.120182  0  3.714014  0  0  0.087147  0  3.96798  0  0  0.094362  0  3.987888  0  0  0.047716  0.082117  0  3.954578  0
C  C55  1  0.31078973  0.61840620  0.44772877  1  0  0.12021  0  3.714149  0  0  0.087159  0  3.968107  0  0  0.094374  0  3.988016  0  0  0.047749  0.08213  0  3.954703  0
C  C56  1  0.60853087  0.18384175  0.60166706  1  0  0.10214  0  3.652522  0  0  0.064691  0  3.900834  0  0  0.070832  0  3.920982  0  0  0.060208  0.060577  0  3.887488  0
C  C57  1  0.39146949  0.81615652  0.39832847  1  0  0.10207  0  3.65265  0  0  0.06462  0  3.900945  0  0  0.070762  0  3.921092  0  0  0.06012  0.060507  0  3.887596  0
C  C58  1  0.56374962  0.22025758  0.24962932  1  0  0.713577  0  3.89343  0  0  0.673132  0  4.191533  0  0  0.706982  0  4.185459  0  0  0.181181  0.650582  0  4.193825  0
C  C59  1  0.43625276  0.77972816  0.75037632  1  0  0.713916  0  3.893366  0  0  0.673423  0  4.191492  0  0  0.707273  0  4.185417  0  0  0.181406  0.650873  0  4.193783  0
C  C60  1  0.41821993  0.26669122  0.17123030  1  0  -0.458587  0  3.677851  0  0  -0.53158  0  3.912956  0  0  -0.539006  0  3.914969  0  0  -0.252153  -0.526321  0  3.911219  0
C  C61  1  0.58177794  0.73330245  0.82877852  1  0  -0.458709  0  3.678011  0  0  -0.531709  0  3.913097  0  0  -0.539106  0  3.915132  0  0  -0.252157  -0.526452  0  3.911359  0
C  C62  1  0.08410091  0.22889888  0.44118182  1  0  0.737704  0  3.865015  0  0  0.698377  0  4.156517  0  0  0.732217  0  4.150205  0  0  0.193131  0.675345  0  4.159785  0
C  C63  1  0.91589605  0.77110730  0.55881685  1  0  0.737583  0  3.864978  0  0  0.69824  0  4.156513  0  0  0.732077  0  4.150207  0  0  0.193096  0.675206  0  4.159782  0
C  C64  1  0.21518317  0.26676581  0.48328038  1  0  -0.454688  0  3.65329  0  0  -0.528121  0  3.882777  0  0  -0.535747  0  3.885285  0  0  -0.250259  -0.522565  0  3.881126  0
C  C65  1  0.78481666  0.73324149  0.51671467  1  0  -0.45469  0  3.653446  0  0  -0.528138  0  3.882958  0  0  -0.535767  0  3.885469  0  0  -0.250251  -0.522582  0  3.881305  0
N  N66  1  0.00729838  0.01142693  0.24337432  1  0  -0.313803  0  3.264699  0  0  -0.237513  0  3.533728  0  0  -0.257769  0  3.553652  0  0  -0.322749  -0.223784  0  3.520206  0
N  N67  1  0.99270489  0.98857237  0.75662676  1  0  -0.313833  0  3.264686  0  0  -0.237582  0  3.533744  0  0  -0.257836  0  3.553661  0  0  -0.322816  -0.223854  0  3.520223  0
N  N68  1  0.32310363  0.08817813  0.92071844  1  0  -0.1946  0  3.069806  0  0  -0.162857  0  3.361216  0  0  -0.173449  0  3.38135  0  0  -0.206168  -0.155696  0  3.347629  0
N  N69  1  0.67689481  0.91182462  0.07928317  1  0  -0.194614  0  3.069727  0  0  -0.16285  0  3.361143  0  0  -0.173441  0  3.381272  0  0  -0.206164  -0.155688  0  3.347557  0
N  N70  1  0.37957102  0.19214874  0.86186413  1  0  -0.210593  0  3.030781  0  0  -0.182216  0  3.319712  0  0  -0.193255  0  3.337656  0  0  -0.213789  -0.174624  0  3.307217  0
N  N71  1  0.62042886  0.80785065  0.13813293  1  0  -0.21077  0  3.030912  0  0  -0.182382  0  3.319849  0  0  -0.19342  0  3.337789  0  0  -0.213871  -0.17479  0  3.307356  0
N  N72  1  0.69192190  0.25032462  0.53310590  1  0  -0.324167  0  3.282327  0  0  -0.247518  0  3.552274  0  0  -0.268338  0  3.572886  0  0  -0.327949  -0.233101  0  3.537582  0
N  N73  1  0.30807540  0.74967817  0.46689243  1  0  -0.324238  0  3.282433  0  0  -0.247562  0  3.552371  0  0  -0.268381  0  3.572983  0  0  -0.327959  -0.233152  0  3.5377  0
O  O74  1  0.66108243  0.28599349  0.22575831  1  0  -0.659922  0  1.90099  0  0  -0.59956  0  2.131015  0  0  -0.628273  0  2.120906  0  0  -0.346385  -0.579377  0  2.136673  0
O  O75  1  0.33891107  0.71400253  0.77424703  1  0  -0.660038  0  1.901121  0  0  -0.599657  0  2.131148  0  0  -0.62837  0  2.121038  0  0  -0.346442  -0.579477  0  2.13681  0
O  O76  1  0.58602188  0.11478647  0.33598360  1  0  -0.672019  0  1.906493  0  0  -0.610632  0  2.140451  0  0  -0.638892  0  2.130567  0  0  -0.345488  -0.590889  0  2.145862  0
O  O77  1  0.41397871  0.88520603  0.66402444  1  0  -0.672172  0  1.906347  0  0  -0.610797  0  2.140363  0  0  -0.639059  0  2.130481  0  0  -0.345626  -0.591053  0  2.145773  0
O  O78  1  0.07597263  0.10315931  0.48880349  1  0  -0.705951  0  2.063733  0  0  -0.628819  0  2.33543  0  0  -0.662508  0  2.324441  0  0  -0.350792  -0.605164  0  2.342102  0
O  O79  1  0.92402500  0.89684794  0.51119915  1  0  -0.705864  0  2.063741  0  0  -0.628677  0  2.335355  0  0  -0.662363  0  2.32437  0  0  -0.350744  -0.605021  0  2.342025  0
O  O80  1  0.98596955  0.31782493  0.36170319  1  0  -0.651453  0  1.846738  0  0  -0.599271  0  2.059929  0  0  -0.623984  0  2.04876  0  0  -0.346398  -0.58182  0  2.066993  0
O  O81  1  0.01403432  0.68217556  0.63829019  1  0  -0.651444  0  1.846681  0  0  -0.599258  0  2.05988  0  0  -0.623968  0  2.048706  0  0  -0.346402  -0.581807  0  2.066944  0
