# generated using pymatgen
data_Cd2H14C6NCl5O
_symmetry_space_group_name_H-M   'P 1'
_cell_length_a   6.69497011
_cell_length_b   9.60751481
_cell_length_c   11.38342037
_cell_angle_alpha   76.05373815
_cell_angle_beta   90.25431073
_cell_angle_gamma   89.36180982
_symmetry_Int_Tables_number   1
_chemical_formula_structural   Cd2H14C6NCl5O
_chemical_formula_sum   'Cd4 H28 C12 N2 Cl10 O2'
_cell_volume   710.55763991
_cell_formula_units_Z   2
loop_
 _symmetry_equiv_pos_site_id
 _symmetry_equiv_pos_as_xyz
  1  'x, y, z'
loop_
 _atom_site_type_symbol
 _atom_site_label
 _atom_site_symmetry_multiplicity
 _atom_site_fract_x
 _atom_site_fract_y
 _atom_site_fract_z
 _atom_site_occupancy
 _atom_site_hle17_bader_spin_density
 _atom_site_hle17_ddec_charge
 _atom_site_hle17_ddec_spin_density
 _atom_site_hle17_ddec_sum_bond_order
 _atom_site_hle17_magmom
 _atom_site_hse06_10hf_bader_spin_density
 _atom_site_hse06_10hf_ddec_charge
 _atom_site_hse06_10hf_ddec_spin_density
 _atom_site_hse06_10hf_ddec_sum_bond_order
 _atom_site_hse06_10hf_magmom
 _atom_site_hse06_bader_spin_density
 _atom_site_hse06_ddec_charge
 _atom_site_hse06_ddec_spin_density
 _atom_site_hse06_ddec_sum_bond_order
 _atom_site_hse06_magmom
 _atom_site_pbe_bader_spin_density
 _atom_site_pbe_cm5_charge
 _atom_site_pbe_ddec_charge
 _atom_site_pbe_ddec_spin_density
 _atom_site_pbe_ddec_sum_bond_order
 _atom_site_pbe_magmom
Cd  Cd0  1  0.74325971  0.23311305  0.75934685  1  0  1.010023  0  1.912833  0  0  0.864143  0  2.371506  0  0  0.911907  0  2.327134  0  0  0.546244  0.829725  0  2.402335  0
Cd  Cd1  1  0.25673822  0.76688442  0.24065501  1  0  1.009988  0  1.91289  0  0  0.864112  0  2.371556  0  0  0.911869  0  2.327192  0  0  0.546235  0.829692  0  2.402389  0
Cd  Cd2  1  0.24559438  0.07580055  0.91779233  1  0  0.963774  0  2.024803  0  0  0.825523  0  2.484879  0  0  0.869032  0  2.445882  0  0  0.507256  0.794374  0  2.511893  0
Cd  Cd3  1  0.75440650  0.92419691  0.08220776  1  0  0.963816  0  2.024725  0  0  0.825568  0  2.484799  0  0  0.869077  0  2.445801  0  0  0.507279  0.79442  0  2.511815  0
H  H4  1  0.70492202  0.48698682  0.88619607  1  0  0.104285  0  0.952376  0  0  0.119556  0  1.012892  0  0  0.120822  0  1.012806  0  0  0.088015  0.118609  0  1.012986  0
H  H5  1  0.29507278  0.51301388  0.11379988  1  0  0.104229  0  0.952339  0  0  0.119525  0  1.012851  0  0  0.120793  0  1.012768  0  0  0.087998  0.118579  0  1.012946  0
H  H6  1  0.81609237  0.64117595  0.91485052  1  0  0.09166  0  0.947745  0  0  0.102458  0  1.020653  0  0  0.103721  0  1.02032  0  0  0.086827  0.101581  0  1.02091  0
H  H7  1  0.18390252  0.35882260  0.08514938  1  0  0.09169  0  0.947766  0  0  0.102475  0  1.020724  0  0  0.10374  0  1.020391  0  0  0.086842  0.101598  0  1.020981  0
H  H8  1  0.65133713  0.61577677  0.66681425  1  0  0.101351  0  0.904234  0  0  0.114775  0  0.964576  0  0  0.116075  0  0.964246  0  0  0.113252  0.1138  0  0.964793  0
H  H9  1  0.34866359  0.38422928  0.33318145  1  0  0.101342  0  0.904287  0  0  0.114783  0  0.964611  0  0  0.116083  0  0.96428  0  0  0.113241  0.113808  0  0.96483  0
H  H10  1  0.54277122  0.71363789  0.76616243  1  0  0.085659  0  0.930067  0  0  0.101179  0  0.990057  0  0  0.101998  0  0.990146  0  0  0.108833  0.100521  0  0.990088  0
H  H11  1  0.45722954  0.28636709  0.23383526  1  0  0.085726  0  0.930041  0  0  0.101253  0  0.990009  0  0  0.102071  0  0.990098  0  0  0.108848  0.100595  0  0.990043  0
H  H12  1  0.08279286  0.85290426  0.59610212  1  0  0.079574  0  0.94182  0  0  0.093754  0  1.006098  0  0  0.094662  0  1.005907  0  0  0.102122  0.092942  0  1.006796  0
H  H13  1  0.91721247  0.14709104  0.40389575  1  0  0.079583  0  0.941836  0  0  0.09375  0  1.006103  0  0  0.094659  0  1.005912  0  0  0.102106  0.092938  0  1.006803  0
H  H14  1  0.96824606  0.69856640  0.56617049  1  0  0.101524  0  0.903548  0  0  0.114821  0  0.962041  0  0  0.116405  0  0.960951  0  0  0.113683  0.113423  0  0.963175  0
H  H15  1  0.03174885  0.30143001  0.43382984  1  0  0.101501  0  0.903581  0  0  0.114711  0  0.962189  0  0  0.116298  0  0.961098  0  0  0.113661  0.113317  0  0.963313  0
H  H16  1  0.16489799  0.72527774  0.80577941  1  0  0.094438  0  0.944941  0  0  0.108987  0  1.009733  0  0  0.110206  0  1.009503  0  0  0.085852  0.107467  0  1.011445  0
H  H17  1  0.83510736  0.27471757  0.19421934  1  0  0.094402  0  0.944806  0  0  0.108953  0  1.009623  0  0  0.110171  0  1.00939  0  0  0.085857  0.107435  0  1.011333  0
H  H18  1  0.25539728  0.62434548  0.70478243  1  0  0.104594  0  0.941793  0  0  0.119226  0  1.004717  0  0  0.120418  0  1.005007  0  0  0.095931  0.118537  0  1.004373  0
H  H19  1  0.74460061  0.37564770  0.29521591  1  0  0.104618  0  0.941778  0  0  0.119242  0  1.004714  0  0  0.120433  0  1.005  0  0  0.095922  0.118552  0  1.004373  0
H  H20  1  0.78216226  0.99858394  0.55128266  1  0  0.10956  0  0.960456  0  0  0.12403  0  1.032565  0  0  0.125412  0  1.032056  0  0  0.097998  0.12297  0  1.032934  0
H  H21  1  0.21785061  0.00142315  0.44872332  1  0  0.109621  0  0.960446  0  0  0.124078  0  1.032543  0  0  0.125461  0  1.032033  0  0  0.097968  0.123019  0  1.032909  0
H  H22  1  0.55313518  0.93087613  0.61984927  1  0  0.117428  0  0.930311  0  0  0.139704  0  0.98664  0  0  0.140559  0  0.987041  0  0  0.104799  0.138931  0  0.986617  0
H  H23  1  0.44687619  0.06912989  0.38015606  1  0  0.11748  0  0.930246  0  0  0.139735  0  0.986593  0  0  0.140589  0  0.986993  0  0  0.104806  0.138962  0  0.98657  0
H  H24  1  0.66288987  0.84933716  0.50845961  1  0  0.123847  0  0.961407  0  0  0.139659  0  1.027544  0  0  0.141644  0  1.026618  0  0  0.096804  0.138266  0  1.028051  0
H  H25  1  0.33711542  0.15067317  0.49154223  1  0  0.123943  0  0.961522  0  0  0.139758  0  1.027613  0  0  0.141743  0  1.026685  0  0  0.096848  0.138366  0  1.028117  0
H  H26  1  0.10482902  0.39422997  0.72264503  1  0  0.3782  0  0.852876  0  0  0.355899  0  0.921542  0  0  0.364973  0  0.91139  0  0  0.29896  0.349169  0  0.92946  0
H  H27  1  0.89516891  0.60576643  0.27735617  1  0  0.378178  0  0.852879  0  0  0.355888  0  0.921528  0  0  0.364956  0  0.911382  0  0  0.29899  0.349159  0  0.929445  0
H  H28  1  0.83592896  0.85681904  0.74537788  1  0  0.261905  0  0.861829  0  0  0.250438  0  0.917537  0  0  0.256051  0  0.914009  0  0  0.30016  0.246385  0  0.920332  0
H  H29  1  0.16408243  0.14317947  0.25462547  1  0  0.261958  0  0.861811  0  0  0.250503  0  0.917493  0  0  0.25612  0  0.913958  0  0  0.300188  0.24645  0  0.920289  0
H  H30  1  0.08241188  0.47773549  0.89236360  1  0  0.032137  0  0.938253  0  0  0.04413  0  1.001699  0  0  0.044296  0  1.001817  0  0  0.090802  0.043894  0  1.001771  0
H  H31  1  0.91758301  0.52226306  0.10763630  1  0  0.032163  0  0.938267  0  0  0.044153  0  1.001717  0  0  0.044319  0  1.001836  0  0  0.090813  0.043917  0  1.00179  0
C  C32  1  0.00024600  0.53332791  0.81036401  1  0  0.26455  0  3.583351  0  0  0.237745  0  3.844244  0  0  0.244834  0  3.855252  0  0  -0.011773  0.232623  0  3.836911  0
C  C33  1  0.99975186  0.46666956  0.18963433  1  0  0.264478  0  3.583366  0  0  0.237699  0  3.844248  0  0  0.244781  0  3.855255  0  0  -0.011788  0.232575  0  3.836919  0
C  C34  1  0.79586623  0.58029950  0.84524540  1  0  -0.203944  0  3.651179  0  0  -0.245929  0  3.902485  0  0  -0.248551  0  3.91496  0  0  -0.173763  -0.243724  0  3.893581  0
C  C35  1  0.20413011  0.41970013  0.15475251  1  0  -0.20382  0  3.651071  0  0  -0.245902  0  3.902538  0  0  -0.248529  0  3.915017  0  0  -0.173747  -0.243699  0  3.893635  0
C  C36  1  0.68305352  0.67243273  0.73785392  1  0  0.011436  0  3.509762  0  0  -0.04578  0  3.759943  0  0  -0.042353  0  3.770719  0  0  -0.061643  -0.048076  0  3.751976  0
C  C37  1  0.31694577  0.32757010  0.26214333  1  0  0.0113  0  3.509919  0  0  -0.04589  0  3.760084  0  0  -0.042468  0  3.770878  0  0  -0.061636  -0.048188  0  3.75212  0
C  C38  1  0.00186494  0.75497030  0.63681675  1  0  0.008164  0  3.53407  0  0  -0.050192  0  3.788385  0  0  -0.046267  0  3.798303  0  0  -0.065745  -0.053163  0  3.78264  0
C  C39  1  0.99813139  0.24502824  0.36318050  1  0  0.008228  0  3.534044  0  0  -0.050042  0  3.788347  0  0  -0.046119  0  3.798262  0  0  -0.065678  -0.053012  0  3.782606  0
C  C40  1  0.11937797  0.66170698  0.74177911  1  0  -0.214208  0  3.65533  0  0  -0.258462  0  3.909356  0  0  -0.260904  0  3.921248  0  0  -0.173412  -0.256609  0  3.90205  0
C  C41  1  0.88062134  0.33829049  0.25821747  1  0  -0.214189  0  3.655187  0  0  -0.258448  0  3.909208  0  0  -0.260881  0  3.92109  0  0  -0.173402  -0.256593  0  3.901898  0
C  C42  1  0.69303373  0.90206174  0.58176283  1  0  -0.183699  0  3.540653  0  0  -0.287039  0  3.791084  0  0  -0.285226  0  3.79908  0  0  -0.146324  -0.287707  0  3.785077  0
C  C43  1  0.30696857  0.09794645  0.41823771  1  0  -0.18393  0  3.540791  0  0  -0.287204  0  3.791137  0  0  -0.285392  0  3.799132  0  0  -0.146335  -0.287874  0  3.785132  0
N  N44  1  0.80549379  0.80093126  0.68001123  1  0  -0.061381  0  3.395068  0  0  0.029447  0  3.601826  0  0  0.017245  0  3.621453  0  0  -0.35815  0.037483  0  3.588491  0
N  N45  1  0.19451003  0.19907156  0.31998864  1  0  -0.061483  0  3.395175  0  0  0.029304  0  3.601983  0  0  0.017102  0  3.621609  0  0  -0.358249  0.037338  0  3.588653  0
Cl  Cl46  1  0.58817521  0.96271816  0.86037328  1  0  -0.552189  0  1.183169  0  0  -0.487909  0  1.48826  0  0  -0.508131  0  1.467516  0  0  -0.260972  -0.473025  0  1.502863  0
Cl  Cl47  1  0.41182420  0.03727931  0.13962770  1  0  -0.552201  0  1.183174  0  0  -0.487911  0  1.488234  0  0  -0.50814  0  1.467507  0  0  -0.260979  -0.473023  0  1.502833  0
Cl  Cl48  1  0.41581851  0.32263566  0.85229057  1  0  -0.550683  0  1.045532  0  0  -0.483114  0  1.31969  0  0  -0.503009  0  1.299267  0  0  -0.278795  -0.468831  0  1.33372  0
Cl  Cl49  1  0.58417794  0.67736182  0.14771217  1  0  -0.550691  0  1.045532  0  0  -0.483147  0  1.319722  0  0  -0.503041  0  1.299301  0  0  -0.278811  -0.468863  0  1.333753  0
Cl  Cl50  1  0.90793028  0.18380507  0.98904388  1  0  -0.537839  0  1.16482  0  0  -0.470225  0  1.468294  0  0  -0.491527  0  1.448028  0  0  -0.259628  -0.45486  0  1.48255  0
Cl  Cl51  1  0.09206910  0.81619240  0.01095622  1  0  -0.537862  0  1.164838  0  0  -0.470241  0  1.468294  0  0  -0.491544  0  1.448033  0  0  -0.259636  -0.454875  0  1.482549  0
Cl  Cl52  1  0.62578118  0.30381321  0.54945853  1  0  -0.60221  0  0.851506  0  0  -0.546251  0  1.100608  0  0  -0.564979  0  1.081699  0  0  -0.355606  -0.5333  0  1.114214  0
Cl  Cl53  1  0.37422119  0.69619069  0.45054376  1  0  -0.602199  0  0.851528  0  0  -0.546239  0  1.100626  0  0  -0.564964  0  1.081719  0  0  -0.355593  -0.533284  0  1.114233  0
Cl  Cl54  1  0.06836124  0.08836754  0.71402740  1  0  -0.559456  0  1.013092  0  0  -0.497793  0  1.293566  0  0  -0.517145  0  1.274044  0  0  -0.292591  -0.483188  0  1.307844  0
Cl  Cl55  1  0.93163816  0.91162993  0.28597357  1  0  -0.559456  0  1.013061  0  0  -0.49779  0  1.293523  0  0  -0.517142  0  1.274003  0  0  -0.292597  -0.483194  0  1.307817  0
O  O56  1  0.97229944  0.43387002  0.73379913  1  0  -0.578498  0  2.108007  0  0  -0.512775  0  2.340946  0  0  -0.532167  0  2.329714  0  0  -0.399128  -0.498214  0  2.349152  0
O  O57  1  0.02768951  0.56612534  0.26620144  1  0  -0.578416  0  2.107977  0  0  -0.512678  0  2.340883  0  0  -0.532048  0  2.329643  0  0  -0.399157  -0.498116  0  2.349089  0
