# generated using pymatgen
data_ZrP4H18C8(NO8)2
_symmetry_space_group_name_H-M   'P 1'
_cell_length_a   5.49917016
_cell_length_b   13.49241173
_cell_length_c   14.74785850
_cell_angle_alpha   89.99969277
_cell_angle_beta   90.00006807
_cell_angle_gamma   97.74346884
_symmetry_Int_Tables_number   1
_chemical_formula_structural   ZrP4H18C8(NO8)2
_chemical_formula_sum   'Zr2 P8 H36 C16 N4 O32'
_cell_volume   1084.26970083
_cell_formula_units_Z   2
loop_
 _symmetry_equiv_pos_site_id
 _symmetry_equiv_pos_as_xyz
  1  'x, y, z'
loop_
 _atom_site_type_symbol
 _atom_site_label
 _atom_site_symmetry_multiplicity
 _atom_site_fract_x
 _atom_site_fract_y
 _atom_site_fract_z
 _atom_site_occupancy
 _atom_site_hle17_bader_spin_density
 _atom_site_hle17_ddec_charge
 _atom_site_hle17_ddec_spin_density
 _atom_site_hle17_ddec_sum_bond_order
 _atom_site_hle17_magmom
 _atom_site_hse06_10hf_bader_spin_density
 _atom_site_hse06_10hf_ddec_charge
 _atom_site_hse06_10hf_ddec_spin_density
 _atom_site_hse06_10hf_ddec_sum_bond_order
 _atom_site_hse06_10hf_magmom
 _atom_site_hse06_bader_spin_density
 _atom_site_hse06_ddec_charge
 _atom_site_hse06_ddec_spin_density
 _atom_site_hse06_ddec_sum_bond_order
 _atom_site_hse06_magmom
 _atom_site_pbe_bader_spin_density
 _atom_site_pbe_cm5_charge
 _atom_site_pbe_ddec_charge
 _atom_site_pbe_ddec_spin_density
 _atom_site_pbe_ddec_sum_bond_order
 _atom_site_pbe_magmom
Zr  Zr0  1  0.50000112  0.49999461  0.50000163  1  0  2.62436  0  2.441893  0  0  2.517043  0  2.894889  0  0  2.612996  0  2.8193  0  0  1.722765  2.44834  0  2.947021  0
Zr  Zr1  1  0.99999421  0.00000238  0.00000839  1  0  2.624592  0  2.441696  0  0  2.517183  0  2.894917  0  0  2.613147  0  2.819292  0  0  1.722896  2.448465  0  2.947094  0
P  P2  1  0.00798066  0.49530017  0.64783180  1  0  1.583798  0  4.78495  0  0  1.425048  0  5.305115  0  0  1.480293  0  5.259476  0  0  0.375248  1.38631  0  5.336175  0
P  P3  1  0.49200631  0.00470095  0.14782971  1  0  1.583696  0  4.784823  0  0  1.42497  0  5.304946  0  0  1.480212  0  5.25932  0  0  0.375347  1.386238  0  5.335987  0
P  P4  1  0.99201704  0.50469871  0.35216740  1  0  1.583832  0  4.785037  0  0  1.425114  0  5.305215  0  0  1.480354  0  5.25958  0  0  0.375282  1.386379  0  5.33627  0
P  P5  1  0.50798088  0.99529933  0.85216948  1  0  1.584028  0  4.78499  0  0  1.425312  0  5.305136  0  0  1.480556  0  5.259496  0  0  0.375349  1.386577  0  5.336195  0
P  P6  1  0.19861341  0.25351834  0.94077193  1  0  1.563133  0  4.770055  0  0  1.400643  0  5.286834  0  0  1.453758  0  5.242256  0  0  0.385335  1.363502  0  5.317228  0
P  P7  1  0.30138583  0.24648494  0.44077667  1  0  1.563004  0  4.769925  0  0  1.400479  0  5.286728  0  0  1.4536  0  5.242148  0  0  0.385386  1.363338  0  5.317112  0
P  P8  1  0.80138269  0.74648127  0.05922794  1  0  1.56293  0  4.770299  0  0  1.400401  0  5.287139  0  0  1.453515  0  5.242556  0  0  0.385219  1.363257  0  5.317528  0
P  P9  1  0.69861688  0.75352517  0.55922117  1  0  1.563223  0  4.770475  0  0  1.400697  0  5.287286  0  0  1.453809  0  5.242707  0  0  0.385316  1.363549  0  5.317691  0
H  H10  1  0.46609304  0.17652874  0.85300216  1  0  0.451284  0  0.856092  0  0  0.413909  0  0.928508  0  0  0.426401  0  0.910991  0  0  0.303479  0.405199  0  0.94068  0
H  H11  1  0.03390806  0.32346909  0.35300977  1  0  0.451308  0  0.856083  0  0  0.41395  0  0.928469  0  0  0.426442  0  0.910951  0  0  0.303543  0.405244  0  0.940637  0
H  H12  1  0.53390241  0.82346863  0.14700178  1  0  0.451244  0  0.856156  0  0  0.413883  0  0.92855  0  0  0.426376  0  0.911033  0  0  0.303472  0.405173  0  0.940722  0
H  H13  1  0.96609736  0.67653134  0.64698942  1  0  0.451244  0  0.856128  0  0  0.413857  0  0.92856  0  0  0.426347  0  0.911046  0  0  0.303477  0.405147  0  0.940731  0
H  H14  1  0.71954087  0.40165057  0.74913844  1  0  0.159969  0  0.921682  0  0  0.169545  0  0.980085  0  0  0.173055  0  0.977744  0  0  0.132838  0.167007  0  0.981885  0
H  H15  1  0.78045126  0.09834572  0.24913917  1  0  0.159966  0  0.921615  0  0  0.16951  0  0.980045  0  0  0.173021  0  0.977707  0  0  0.132832  0.166978  0  0.981838  0
H  H16  1  0.28045930  0.59835057  0.25086414  1  0  0.159876  0  0.921654  0  0  0.169503  0  0.98006  0  0  0.173015  0  0.977718  0  0  0.13281  0.166961  0  0.981861  0
H  H17  1  0.21955352  0.90165246  0.75086138  1  0  0.159883  0  0.921642  0  0  0.169474  0  0.980089  0  0  0.172982  0  0.977751  0  0  0.13284  0.166939  0  0.981885  0
H  H18  1  0.90046769  0.32320530  0.68788572  1  0  0.151952  0  0.892895  0  0  0.167936  0  0.936993  0  0  0.170514  0  0.936119  0  0  0.1368  0.166013  0  0.937849  0
H  H19  1  0.59953155  0.17679736  0.18788393  1  0  0.151935  0  0.892889  0  0  0.167923  0  0.936956  0  0  0.170505  0  0.936077  0  0  0.136781  0.165982  0  0.937839  0
H  H20  1  0.09952238  0.67679874  0.31211482  1  0  0.151885  0  0.892861  0  0  0.167879  0  0.937008  0  0  0.170456  0  0.936136  0  0  0.136777  0.165958  0  0.937853  0
H  H21  1  0.40046959  0.82320079  0.81211526  1  0  0.151895  0  0.892825  0  0  0.167908  0  0.936962  0  0  0.170487  0  0.936088  0  0  0.136797  0.165986  0  0.937813  0
H  H22  1  0.97972319  0.22916239  0.80126922  1  0  0.150881  0  0.902702  0  0  0.164326  0  0.951653  0  0  0.16711  0  0.950457  0  0  0.133046  0.162271  0  0.952666  0
H  H23  1  0.52026543  0.27084029  0.30126827  1  0  0.150885  0  0.902604  0  0  0.164281  0  0.951612  0  0  0.167068  0  0.950411  0  0  0.13302  0.162231  0  0.952621  0
H  H24  1  0.02028986  0.77083288  0.19872658  1  0  0.150885  0  0.902752  0  0  0.164358  0  0.951688  0  0  0.167142  0  0.950491  0  0  0.133088  0.162303  0  0.952705  0
H  H25  1  0.47975156  0.72916247  0.69873024  1  0  0.150926  0  0.902541  0  0  0.164377  0  0.951514  0  0  0.167169  0  0.950304  0  0  0.133049  0.162318  0  0.952537  0
H  H26  1  0.80625603  0.28720030  0.88250184  1  0  0.171741  0  0.953667  0  0  0.180698  0  1.008362  0  0  0.18425  0  1.006947  0  0  0.131693  0.178046  0  1.009623  0
H  H27  1  0.69373932  0.21279973  0.38249653  1  0  0.171708  0  0.953764  0  0  0.180652  0  1.008461  0  0  0.184205  0  1.007046  0  0  0.131693  0.177991  0  1.009739  0
H  H28  1  0.19374125  0.71279708  0.11749532  1  0  0.171686  0  0.95362  0  0  0.180652  0  1.008322  0  0  0.184203  0  1.006908  0  0  0.131679  0.177998  0  1.009586  0
H  H29  1  0.30627318  0.78720001  0.61750334  1  0  0.171584  0  0.953881  0  0  0.180579  0  1.008554  0  0  0.184128  0  1.007144  0  0  0.131687  0.177957  0  1.009768  0
H  H30  1  0.24696424  0.39448471  0.78957133  1  0  0.263723  0  0.858165  0  0  0.24991  0  0.912846  0  0  0.257883  0  0.907185  0  0  0.323574  0.24417  0  0.917037  0
H  H31  1  0.25302447  0.10551487  0.28957065  1  0  0.263922  0  0.857941  0  0  0.250056  0  0.912678  0  0  0.258031  0  0.907012  0  0  0.323615  0.24432  0  0.916869  0
H  H32  1  0.75303389  0.60551567  0.21042650  1  0  0.263769  0  0.858151  0  0  0.249941  0  0.912849  0  0  0.257915  0  0.907184  0  0  0.323566  0.2442  0  0.917038  0
H  H33  1  0.74698116  0.89448630  0.71043125  1  0  0.263888  0  0.857945  0  0  0.250036  0  0.912655  0  0  0.258008  0  0.906992  0  0  0.323623  0.244295  0  0.916844  0
H  H34  1  0.94302375  0.52664402  0.84399874  1  0  0.157263  0  0.915948  0  0  0.164883  0  0.976347  0  0  0.168798  0  0.973439  0  0  0.131776  0.162049  0  0.978564  0
H  H35  1  0.55696022  0.97335620  0.34399747  1  0  0.157239  0  0.915939  0  0  0.164853  0  0.976265  0  0  0.168759  0  0.97336  0  0  0.131779  0.162006  0  0.978495  0
H  H36  1  0.05697493  0.47335188  0.15600181  1  0  0.157297  0  0.915862  0  0  0.164879  0  0.976244  0  0  0.168833  0  0.973287  0  0  0.131777  0.162009  0  0.978498  0
H  H37  1  0.44304541  0.02664498  0.65600105  1  0  0.157287  0  0.915973  0  0  0.164891  0  0.976306  0  0  0.168798  0  0.973403  0  0  0.131801  0.162044  0  0.978539  0
H  H38  1  0.97512039  0.44494068  0.93714400  1  0  0.14426  0  0.930573  0  0  0.151086  0  0.996615  0  0  0.154297  0  0.994928  0  0  0.129808  0.148757  0  0.997949  0
H  H39  1  0.52487072  0.05505677  0.43714482  1  0  0.144274  0  0.930456  0  0  0.151055  0  0.99648  0  0  0.154257  0  0.994795  0  0  0.129798  0.148731  0  0.997807  0
H  H40  1  0.02488354  0.55505451  0.06285452  1  0  0.144225  0  0.930535  0  0  0.151025  0  0.996577  0  0  0.154233  0  0.994895  0  0  0.129762  0.1487  0  0.997901  0
H  H41  1  0.47513589  0.94494143  0.56285506  1  0  0.144291  0  0.93043  0  0  0.151097  0  0.996448  0  0  0.154302  0  0.994762  0  0  0.129811  0.148771  0  0.997784  0
H  H42  1  0.52478502  0.62495700  0.95853162  1  0  0.429212  0  0.876163  0  0  0.392002  0  0.950069  0  0  0.405005  0  0.931962  0  0  0.301935  0.382925  0  0.962668  0
H  H43  1  0.97521364  0.87504268  0.45852902  1  0  0.429222  0  0.876233  0  0  0.391995  0  0.950115  0  0  0.404996  0  0.932011  0  0  0.301925  0.382919  0  0.962713  0
H  H44  1  0.47521624  0.37503519  0.04147299  1  0  0.429246  0  0.876262  0  0  0.391997  0  0.950117  0  0  0.405002  0  0.932009  0  0  0.30195  0.38292  0  0.962718  0
H  H45  1  0.02479767  0.12495929  0.54146881  1  0  0.429143  0  0.876238  0  0  0.391928  0  0.950174  0  0  0.404931  0  0.932069  0  0  0.301902  0.382852  0  0.962773  0
C  C46  1  0.90528171  0.39332774  0.72605719  1  0  -0.34011  0  3.476426  0  0  -0.379936  0  3.726144  0  0  -0.384992  0  3.729542  0  0  -0.060458  -0.376482  0  3.724168  0
C  C47  1  0.59470523  0.10667610  0.22606253  1  0  -0.340003  0  3.476485  0  0  -0.379801  0  3.726152  0  0  -0.38486  0  3.729561  0  0  -0.060437  -0.376329  0  3.724171  0
C  C48  1  0.09471621  0.60667188  0.27394810  1  0  -0.339765  0  3.476221  0  0  -0.37979  0  3.72616  0  0  -0.384847  0  3.729562  0  0  -0.060432  -0.376328  0  3.724159  0
C  C49  1  0.40529116  0.89333098  0.77394751  1  0  -0.339769  0  3.475979  0  0  -0.379834  0  3.726017  0  0  -0.384891  0  3.72942  0  0  -0.060499  -0.376392  0  3.724043  0
C  C50  1  0.99009561  0.28738431  0.85369771  1  0  -0.368506  0  3.495414  0  0  -0.406608  0  3.745663  0  0  -0.412374  0  3.749679  0  0  -0.069817  -0.402548  0  3.743132  0
C  C51  1  0.50989479  0.21261137  0.35369366  1  0  -0.368406  0  3.495528  0  0  -0.406445  0  3.745718  0  0  -0.412215  0  3.749742  0  0  -0.069834  -0.402374  0  3.743195  0
C  C52  1  0.00990188  0.71261381  0.14629606  1  0  -0.368267  0  3.495322  0  0  -0.406443  0  3.745644  0  0  -0.412208  0  3.749658  0  0  -0.069821  -0.402389  0  3.743125  0
C  C53  1  0.49011762  0.78738166  0.64629604  1  0  -0.368316  0  3.495349  0  0  -0.406476  0  3.745581  0  0  -0.412244  0  3.749606  0  0  -0.069755  -0.402436  0  3.743035  0
C  C54  1  0.05511293  0.47308738  0.87262179  1  0  -0.198931  0  3.483675  0  0  -0.256821  0  3.72671  0  0  -0.259819  0  3.731832  0  0  -0.05985  -0.25471  0  3.723239  0
C  C55  1  0.44489748  0.02692384  0.37261414  1  0  -0.199002  0  3.483826  0  0  -0.256521  0  3.726211  0  0  -0.259483  0  3.731313  0  0  -0.059814  -0.254445  0  3.72284  0
C  C56  1  0.94489719  0.52691682  0.12738215  1  0  -0.198931  0  3.483622  0  0  -0.256631  0  3.726365  0  0  -0.259652  0  3.731459  0  0  -0.059804  -0.254525  0  3.722985  0
C  C57  1  0.55511875  0.97308264  0.62738166  1  0  -0.198945  0  3.483861  0  0  -0.256645  0  3.726634  0  0  -0.259627  0  3.731758  0  0  -0.059766  -0.254537  0  3.723181  0
C  C58  1  0.31795780  0.52194144  0.88488182  1  0  0.700499  0  3.797978  0  0  0.646347  0  4.114136  0  0  0.679657  0  4.105337  0  0  0.235083  0.623704  0  4.119547  0
C  C59  1  0.18203199  0.97805617  0.38488330  1  0  0.700512  0  3.797417  0  0  0.646315  0  4.113572  0  0  0.679614  0  4.104783  0  0  0.235092  0.623685  0  4.118953  0
C  C60  1  0.68204312  0.47805597  0.11511399  1  0  0.700553  0  3.797207  0  0  0.646362  0  4.113317  0  0  0.67967  0  4.104528  0  0  0.235193  0.623727  0  4.118709  0
C  C61  1  0.81796304  0.02193970  0.61511793  1  0  0.700506  0  3.797566  0  0  0.646276  0  4.113771  0  0  0.679575  0  4.104986  0  0  0.235056  0.623646  0  4.119165  0
N  N62  1  0.06104527  0.38657867  0.80845337  1  0  0.030925  0  3.399691  0  0  0.108751  0  3.607632  0  0  0.099072  0  3.627195  0  0  -0.328517  0.115353  0  3.594277  0
N  N63  1  0.43893863  0.11342300  0.30845410  1  0  0.030676  0  3.400523  0  0  0.108424  0  3.608466  0  0  0.098738  0  3.628044  0  0  -0.328593  0.115032  0  3.59509  0
N  N64  1  0.93896015  0.61342176  0.19154650  1  0  0.030647  0  3.399948  0  0  0.108506  0  3.607825  0  0  0.098826  0  3.627391  0  0  -0.328528  0.115114  0  3.594456  0
N  N65  1  0.56106281  0.88658262  0.69154509  1  0  0.030524  0  3.399642  0  0  0.108397  0  3.60762  0  0  0.098709  0  3.627189  0  0  -0.328657  0.115007  0  3.594261  0
O  O66  1  0.25999397  0.47475941  0.61176091  1  0  -0.94272  0  1.948038  0  0  -0.881134  0  2.228162  0  0  -0.913126  0  2.20357  0  0  -0.44721  -0.858312  0  2.244454  0
O  O67  1  0.23999402  0.02524565  0.11175792  1  0  -0.942759  0  1.948069  0  0  -0.881132  0  2.228179  0  0  -0.913124  0  2.203587  0  0  -0.447266  -0.85831  0  2.244478  0
O  O68  1  0.74001594  0.52524404  0.38824099  1  0  -0.942759  0  1.948013  0  0  -0.881191  0  2.228153  0  0  -0.913181  0  2.203561  0  0  -0.447198  -0.858371  0  2.244449  0
O  O69  1  0.75998223  0.97475455  0.88824534  1  0  -0.942785  0  1.947953  0  0  -0.881215  0  2.228121  0  0  -0.913208  0  2.203532  0  0  -0.447193  -0.858379  0  2.24439  0
O  O70  1  0.80467329  0.47641144  0.57540322  1  0  -0.949568  0  2.009083  0  0  -0.882923  0  2.294515  0  0  -0.917071  0  2.271035  0  0  -0.449715  -0.85858  0  2.30999  0
O  O71  1  0.69532178  0.02359034  0.07540360  1  0  -0.949563  0  2.009001  0  0  -0.882942  0  2.294477  0  0  -0.917085  0  2.270991  0  0  -0.449777  -0.858598  0  2.309952  0
O  O72  1  0.19531831  0.52358515  0.42459801  1  0  -0.949603  0  2.008951  0  0  -0.882914  0  2.294297  0  0  -0.917063  0  2.270821  0  0  -0.449713  -0.858571  0  2.30977  0
O  O73  1  0.30466520  0.97640920  0.92459695  1  0  -0.949722  0  2.008937  0  0  -0.883029  0  2.29434  0  0  -0.917177  0  2.270858  0  0  -0.449769  -0.858684  0  2.309814  0
O  O74  1  0.01778703  0.59522564  0.69586089  1  0  -0.818378  0  1.892534  0  0  -0.745924  0  2.123865  0  0  -0.77184  0  2.10247  0  0  -0.36785  -0.727574  0  2.138157  0
O  O75  1  0.48219979  0.90477601  0.19586357  1  0  -0.818282  0  1.892529  0  0  -0.745914  0  2.123906  0  0  -0.771828  0  2.10251  0  0  -0.36783  -0.727557  0  2.138191  0
O  O76  1  0.98220240  0.40477615  0.30413830  1  0  -0.818431  0  1.892483  0  0  -0.745978  0  2.123802  0  0  -0.771894  0  2.102407  0  0  -0.367909  -0.727627  0  2.13809  0
O  O77  1  0.51780135  0.09522215  0.80413766  1  0  -0.818525  0  1.892579  0  0  -0.746021  0  2.123859  0  0  -0.771936  0  2.102459  0  0  -0.36786  -0.727674  0  2.138151  0
O  O78  1  0.23794931  0.33199786  0.01397888  1  0  -0.809759  0  1.910411  0  0  -0.740196  0  2.14623  0  0  -0.765438  0  2.124618  0  0  -0.363799  -0.722407  0  2.160701  0
O  O79  1  0.26206136  0.16799824  0.51398071  1  0  -0.809777  0  1.910509  0  0  -0.74018  0  2.146315  0  0  -0.765423  0  2.124701  0  0  -0.36378  -0.722385  0  2.160781  0
O  O80  1  0.76205361  0.66801300  0.98601828  1  0  -0.809692  0  1.910568  0  0  -0.740124  0  2.146405  0  0  -0.765362  0  2.124785  0  0  -0.363703  -0.722335  0  2.160873  0
O  O81  1  0.73794525  0.83199996  0.48602188  1  0  -0.80987  0  1.910763  0  0  -0.740255  0  2.146565  0  0  -0.765496  0  2.124955  0  0  -0.3638  -0.722469  0  2.161035  0
O  O82  1  0.44425992  0.24384275  0.89039047  1  0  -0.786312  0  2.026229  0  0  -0.710874  0  2.259257  0  0  -0.733967  0  2.233266  0  0  -0.37987  -0.69463  0  2.276932  0
O  O83  1  0.05572918  0.25616373  0.39039639  1  0  -0.786231  0  2.026265  0  0  -0.710815  0  2.259316  0  0  -0.733913  0  2.23333  0  0  -0.379873  -0.694561  0  2.276979  0
O  O84  1  0.55573392  0.75615535  0.10961280  1  0  -0.786273  0  2.026241  0  0  -0.710761  0  2.259206  0  0  -0.733851  0  2.233217  0  0  -0.379831  -0.694516  0  2.276874  0
O  O85  1  0.94427247  0.74384264  0.60959874  1  0  -0.786312  0  2.026214  0  0  -0.710836  0  2.259253  0  0  -0.733923  0  2.233264  0  0  -0.379907  -0.694602  0  2.276927  0
O  O86  1  0.06741580  0.15110675  0.97053038  1  0  -0.941637  0  2.017456  0  0  -0.874576  0  2.301863  0  0  -0.907362  0  2.276982  0  0  -0.450086  -0.851265  0  2.318295  0
O  O87  1  0.43259580  0.34889498  0.47053602  1  0  -0.941507  0  2.017477  0  0  -0.874452  0  2.301868  0  0  -0.907237  0  2.276987  0  0  -0.45007  -0.851145  0  2.318305  0
O  O88  1  0.93258093  0.84889511  0.02947695  1  0  -0.941616  0  2.017439  0  0  -0.874536  0  2.301843  0  0  -0.907335  0  2.276986  0  0  -0.450107  -0.851217  0  2.318257  0
O  O89  1  0.56742226  0.65111152  0.52946385  1  0  -0.941572  0  2.017364  0  0  -0.87453  0  2.301769  0  0  -0.907316  0  2.276893  0  0  -0.450008  -0.851221  0  2.3182  0
O  O90  1  0.48487181  0.49313003  0.83956416  1  0  -0.567491  0  1.91848  0  0  -0.52604  0  2.134301  0  0  -0.548083  0  2.125641  0  0  -0.290221  -0.51103  0  2.140181  0
O  O91  1  0.01511822  0.00687376  0.33956725  1  0  -0.567513  0  1.918267  0  0  -0.526059  0  2.134099  0  0  -0.548111  0  2.125457  0  0  -0.290218  -0.511048  0  2.139982  0
O  O92  1  0.51511987  0.50687328  0.16043232  1  0  -0.567556  0  1.918095  0  0  -0.526106  0  2.13392  0  0  -0.548156  0  2.125271  0  0  -0.290287  -0.511091  0  2.139796  0
O  O93  1  0.98488978  0.99312296  0.66043194  1  0  -0.567571  0  1.918154  0  0  -0.526066  0  2.133988  0  0  -0.548085  0  2.125307  0  0  -0.290247  -0.511073  0  2.13988  0
O  O94  1  0.33904270  0.59343580  0.94512022  1  0  -0.547409  0  2.07077  0  0  -0.488593  0  2.276643  0  0  -0.512543  0  2.259919  0  0  -0.314667  -0.471956  0  2.287683  0
O  O95  1  0.16093375  0.90655913  0.44511459  1  0  -0.547381  0  2.070738  0  0  -0.488619  0  2.276652  0  0  -0.512564  0  2.259932  0  0  -0.314621  -0.471973  0  2.287687  0
O  O96  1  0.66095856  0.40655639  0.05487694  1  0  -0.547542  0  2.070735  0  0  -0.48864  0  2.276505  0  0  -0.512591  0  2.25978  0  0  -0.314732  -0.472001  0  2.28755  0
O  O97  1  0.83904530  0.09343811  0.55488121  1  0  -0.547367  0  2.070678  0  0  -0.488575  0  2.276631  0  0  -0.512527  0  2.259917  0  0  -0.31467  -0.471938  0  2.287666  0
