# generated using pymatgen
data_MnH28C22S2(N3O)2
_symmetry_space_group_name_H-M   'P 1'
_cell_length_a   6.95241009
_cell_length_b   9.16015311
_cell_length_c   10.26043895
_cell_angle_alpha   72.01393343
_cell_angle_beta   75.80091641
_cell_angle_gamma   75.89597658
_symmetry_Int_Tables_number   1
_chemical_formula_structural   MnH28C22S2(N3O)2
_chemical_formula_sum   'Mn1 H28 C22 S2 N6 O2'
_cell_volume   592.43982948
_cell_formula_units_Z   1
loop_
 _symmetry_equiv_pos_site_id
 _symmetry_equiv_pos_as_xyz
  1  'x, y, z'
loop_
 _atom_site_type_symbol
 _atom_site_label
 _atom_site_symmetry_multiplicity
 _atom_site_fract_x
 _atom_site_fract_y
 _atom_site_fract_z
 _atom_site_occupancy
 _atom_site_hle17_ddec_charge
 _atom_site_hle17_ddec_spin_density
 _atom_site_hle17_ddec_sum_bond_order
 _atom_site_hle17_magmom
 _atom_site_hse06_10hf_ddec_charge
 _atom_site_hse06_10hf_ddec_spin_density
 _atom_site_hse06_10hf_ddec_sum_bond_order
 _atom_site_hse06_10hf_magmom
 _atom_site_hse06_ddec_charge
 _atom_site_hse06_ddec_spin_density
 _atom_site_hse06_ddec_sum_bond_order
 _atom_site_hse06_magmom
 _atom_site_pbe_cm5_charge
 _atom_site_pbe_ddec_charge
 _atom_site_pbe_ddec_spin_density
 _atom_site_pbe_ddec_sum_bond_order
 _atom_site_pbe_magmom
Mn  Mn0  1  0.99999764  0.99999972  0.99999980  1  0.799776  1.152493  2.877781  1.1  0.703586  1.074771  3.445862  1.03  0.749411  1.045326  3.375169  0.998  0.699417  0.678701  1.086115  3.484058  1.039
H  H1  1  0.61391111  0.87523729  0.14745465  1  0.089818  0.000238  0.977548  0.001  0.09709  -0.00025  1.043266  0.0  0.099483  -5.2e-05  1.041325  0.0  0.121683  0.09517  -0.000406  1.045227  0.0
H  H2  1  0.38609245  0.12476697  0.85253947  1  0.089823  0.000238  0.977525  0.001  0.09705  -0.000251  1.04329  0.0  0.099409  -5.2e-05  1.041393  0.0  0.121643  0.095129  -0.000406  1.045253  0.0
H  H3  1  0.51900515  0.86852238  0.38779643  1  0.058499  -0.000331  0.965108  0.0  0.075162  -0.00023  1.029904  0.0  0.074945  -0.000109  1.03056  0.0  0.105716  0.075199  -0.000281  1.029626  0.0
H  H4  1  0.48099374  0.13148299  0.61220599  1  0.058475  -0.000331  0.965127  0.0  0.075184  -0.00023  1.02989  0.0  0.074968  -0.000108  1.030544  0.0  0.105727  0.07522  -0.000281  1.029613  0.0
H  H5  1  0.44655736  0.69197689  0.49390270  1  0.065722  -0.000259  0.938295  0.0  0.086296  -0.000105  0.997522  0.0  0.08666  -0.000158  0.997661  0.0  0.107499  0.086134  -8.9e-05  0.997368  0.0
H  H6  1  0.55344657  0.30802619  0.50610143  1  0.065705  -0.000259  0.938272  0.0  0.086312  -0.000105  0.997501  0.0  0.086676  -0.000159  0.997643  0.0  0.107493  0.086149  -8.9e-05  0.99735  0.0
H  H7  1  0.23841453  0.02015468  0.52751031  1  0.100849  -1.2e-05  0.94222  0.0  0.123015  -6.7e-05  1.002945  0.0  0.124026  -1e-05  1.003128  0.0  0.088401  0.122195  -8.5e-05  1.0028  0.0
H  H8  1  0.76157273  0.97984943  0.47248467  1  0.100739  -1.2e-05  0.942291  0.0  0.122922  -6.7e-05  1.003011  0.0  0.123932  -1e-05  1.003198  0.0  0.088376  0.122102  -8.5e-05  1.002864  0.0
H  H9  1  0.39841324  0.87917279  0.63669588  1  0.103113  -1.9e-05  0.971808  0.0  0.125918  -2.2e-05  1.031435  0.0  0.124938  4e-06  1.035156  0.0  0.090025  0.126557  -7.9e-05  1.028937  0.0
H  H10  1  0.60157262  0.12083714  0.36330651  1  0.1031  -1.9e-05  0.971978  0.0  0.125909  -2.2e-05  1.031608  0.0  0.124927  4e-06  1.035335  0.0  0.090017  0.126546  -7.9e-05  1.029109  0.0
H  H11  1  0.16036281  0.84363352  0.63545284  1  0.105923  -8.4e-05  0.954709  0.0  0.127437  -0.000145  1.017358  0.0  0.128822  -8.2e-05  1.01685  0.0  0.087979  0.126425  -0.000139  1.017631  0.0
H  H12  1  0.83962772  0.15636945  0.36454385  1  0.106003  -8.4e-05  0.954613  0.0  0.127503  -0.000145  1.017265  0.0  0.128912  -8.2e-05  1.016729  0.0  0.088031  0.126493  -0.000139  1.017537  0.0
H  H13  1  0.13491932  0.26506812  0.20278386  1  0.097588  0.000311  0.970083  0.001  0.101288  -0.000516  1.045333  0.0  0.106604  -0.00022  1.038875  0.0  0.098271  0.097558  -0.000559  1.049866  0.0
H  H14  1  0.86507475  0.73492669  0.79721545  1  0.09755  0.000311  0.970051  0.001  0.101287  -0.000517  1.045272  0.0  0.106605  -0.00022  1.038813  0.0  0.098261  0.097556  -0.000559  1.04981  0.0
H  H15  1  0.39572866  0.43598479  0.10032585  1  0.100214  -0.000761  0.972426  -0.001  0.109747  -0.000116  1.03587  0.0  0.112664  -0.000116  1.035218  0.0  0.106144  0.108175  -8.3e-05  1.035677  0.0
H  H16  1  0.60425803  0.56401579  0.89967507  1  0.100324  -0.000761  0.972327  -0.001  0.109843  -0.000116  1.035779  0.0  0.112761  -0.000116  1.035126  0.0  0.106189  0.108269  -8.3e-05  1.035592  0.0
H  H17  1  0.75192301  0.31886052  0.02356668  1  0.079995  0.000176  0.98992  0.001  0.085533  -0.000282  1.060034  0.0  0.0885  -0.000332  1.056554  0.0  0.114013  0.083243  -0.000243  1.06327  0.0
H  H18  1  0.24806787  0.68114712  0.97643452  1  0.080067  0.000177  0.989818  0.001  0.085559  -0.000282  1.059978  0.0  0.088525  -0.000332  1.056499  0.0  0.11402  0.083269  -0.000243  1.063214  0.0
H  H19  1  0.98063558  0.75175010  0.37548496  1  0.078468  -3.6e-05  0.931409  0.0  0.094773  8.9e-05  0.989665  0.0  0.095784  1.6e-05  0.989273  0.0  0.111206  0.093785  0.000174  0.990263  0.0
H  H20  1  0.01937450  0.24824017  0.62451775  1  0.078455  -3.7e-05  0.931479  0.0  0.094759  8.9e-05  0.989746  0.0  0.095766  1.7e-05  0.98935  0.0  0.111195  0.093771  0.000174  0.990336  0.0
H  H21  1  0.09630441  0.66960406  0.52611548  1  0.049283  -4.8e-05  0.967571  0.0  0.063368  -4.2e-05  1.040937  0.0  0.063895  -2.7e-05  1.040324  0.0  0.095574  0.063245  0.00018  1.040582  0.0
H  H22  1  0.90370803  0.33038859  0.47388424  1  0.049244  -4.8e-05  0.967541  0.0  0.063334  -4.3e-05  1.040935  0.0  0.063857  -2.8e-05  1.04032  0.0  0.095542  0.063209  0.00018  1.040577  0.0
H  H23  1  0.25956858  0.59895373  0.24049923  1  0.103786  -0.000158  0.963483  0.0  0.122637  -0.000146  1.029826  0.0  0.122867  -6.8e-05  1.031216  0.0  0.08778  0.122591  -0.00017  1.028577  0.0
H  H24  1  0.74043883  0.40104120  0.75950168  1  0.103798  -0.000158  0.963512  0.0  0.122643  -0.000146  1.029851  0.0  0.122875  -6.7e-05  1.031239  0.0  0.08777  0.122598  -0.00017  1.028604  0.0
H  H25  1  0.14657752  0.47054366  0.39246323  1  0.100224  -0.000117  0.973995  0.0  0.12331  -0.000145  1.034526  0.0  0.123477  -0.000122  1.036384  0.0  0.086486  0.123207  -0.000114  1.032806  0.0
H  H26  1  0.85343137  0.52945129  0.60753645  1  0.10025  -0.000117  0.97397  0.0  0.123301  -0.000145  1.034526  0.0  0.123469  -0.000122  1.036384  0.0  0.086455  0.1232  -0.000114  1.032804  0.0
H  H27  1  0.38367327  0.51847575  0.38536820  1  0.087494  -6.9e-05  0.989034  0.0  0.103414  0.0  1.063643  0.0  0.105235  -5.8e-05  1.063085  0.0  0.076927  0.10196  9e-06  1.06439  0.0
H  H28  1  0.61633709  0.48151921  0.61463025  1  0.087607  -6.8e-05  0.988976  0.0  0.103506  0.0  1.063579  0.0  0.105328  -5.8e-05  1.063018  0.0  0.076954  0.10205  9e-06  1.064333  0.0
C  C29  1  0.88508279  0.66976009  0.12279432  1  0.27445  0.007797  4.01149  0.008  0.261602  0.0092  4.318763  0.009  0.283668  0.008732  4.336143  0.009  0.14069  0.245502  0.008953  4.309339  0.009
C  C30  1  0.11492557  0.33024303  0.87720906  1  0.274329  0.007799  4.011547  0.008  0.261471  0.0092  4.318843  0.009  0.28354  0.008736  4.336219  0.009  0.140654  0.245369  0.008955  4.309412  0.009
C  C31  1  0.38928786  0.81664877  0.45205427  1  0.043069  0.00035  3.675194  0.001  -0.017119  -0.000217  3.937981  0.0  -0.012421  -8.6e-05  3.951688  0.0  -0.06243  -0.020097  -0.000361  3.928084  0.0
C  C32  1  0.61071188  0.18335311  0.54794604  1  0.043099  0.000351  3.675182  0.001  -0.017203  -0.000218  3.938092  0.0  -0.012508  -8.7e-05  3.951809  0.0  -0.062472  -0.020181  -0.000361  3.928196  0.0
C  C33  1  0.29035377  0.89455826  0.56942224  1  -0.300811  -0.000674  3.677098  0.0  -0.378551  -0.00055  3.924013  0.0  -0.380554  -0.000539  3.935256  0.0  -0.246275  -0.376764  -0.000447  3.916076  0.0
C  C34  1  0.70963647  0.10544588  0.43057515  1  -0.300753  -0.000676  3.677145  0.0  -0.378455  -0.00055  3.924033  0.0  -0.380477  -0.00054  3.935269  0.0  -0.246272  -0.376663  -0.000447  3.916093  0.0
C  C35  1  0.56130885  0.99900086  0.13933691  1  0.08271  -0.018804  3.662378  -0.012  0.040596  -0.008872  3.919443  -0.005  0.053349  -0.002021  3.929276  -0.001  0.045666  0.033118  -0.010016  3.913014  -0.006
C  C36  1  0.43869056  0.00100219  0.86065922  1  0.082763  -0.018811  3.662163  -0.012  0.040694  -0.008878  3.91923  -0.005  0.053461  -0.00202  3.929068  -0.001  0.045763  0.033222  -0.01002  3.912798  -0.006
C  C37  1  0.35944904  0.05476179  0.18819880  1  -0.093121  0.011715  3.79063  0.012  -0.069584  0.002426  4.033337  0.004  -0.079564  0.001518  4.051102  0.002  -0.007799  -0.06479  0.001606  4.022977  0.003
C  C38  1  0.64055423  0.94523778  0.81180057  1  -0.093119  0.011717  3.790605  0.012  -0.069615  0.002429  4.033324  0.004  -0.079568  0.00152  4.051048  0.002  -0.007794  -0.064821  0.001607  4.022967  0.003
C  C39  1  0.29294022  0.21525466  0.17161102  1  -0.021472  -0.034556  3.689273  -0.022  -0.049046  -0.015277  3.935852  -0.009  -0.036094  -0.005176  3.942345  -0.003  -0.06744  -0.058294  -0.02034  3.932212  -0.012
C  C40  1  0.70705534  0.78474601  0.82838643  1  -0.021469  -0.034562  3.689362  -0.022  -0.049052  -0.015279  3.935932  -0.009  -0.036108  -0.005178  3.94242  -0.003  -0.067469  -0.058302  -0.020342  3.932299  -0.012
C  C41  1  0.43698736  0.31089417  0.11199399  1  -0.116439  0.012022  3.755034  0.011  -0.12686  0.00147  4.004724  0.002  -0.134533  0.000431  4.021072  0.001  -0.083737  -0.122685  0.000738  3.9947  0.002
C  C42  1  0.56300673  0.68910649  0.88800566  1  -0.116564  0.012023  3.75499  0.011  -0.12699  0.00147  4.004679  0.002  -0.134664  0.000431  4.021029  0.001  -0.083759  -0.122812  0.000738  3.994655  0.002
C  C43  1  0.63622229  0.24690025  0.06739272  1  0.112933  -0.029009  3.656621  -0.018  0.080831  -0.010651  3.910819  -0.006  0.09373  -0.004886  3.920863  -0.003  0.044876  0.072273  -0.013057  3.90548  -0.007
C  C44  1  0.36377211  0.75310509  0.93260461  1  0.112825  -0.029011  3.656544  -0.018  0.080772  -0.010651  3.910746  -0.006  0.093669  -0.004882  3.920787  -0.003  0.04484  0.072215  -0.013057  3.905409  -0.007
C  C45  1  0.21637289  0.94309626  0.24878531  1  0.49057  -0.012862  3.775102  -0.008  0.43739  -0.009605  4.057511  -0.006  0.468024  -0.009393  4.061363  -0.006  0.257521  0.416596  -0.008778  4.053974  -0.005
C  C46  1  0.78363096  0.05690098  0.75121362  1  0.490676  -0.012864  3.775059  -0.008  0.437541  -0.009606  4.057415  -0.006  0.46817  -0.009394  4.061264  -0.006  0.257576  0.416737  -0.008779  4.053896  -0.005
C  C47  1  0.12478704  0.70335505  0.41148035  1  0.048042  0.000428  3.650298  0.001  -0.010145  0.000509  3.91249  0.001  -0.004242  0.000448  3.923368  0.001  -0.064333  -0.014387  0.000604  3.905226  0.001
C  C48  1  0.87522037  0.29663988  0.58852056  1  0.048169  0.000428  3.650355  0.001  -0.010025  0.00051  3.912512  0.001  -0.004102  0.000446  3.923362  0.001  -0.064306  -0.014253  0.000604  3.905222  0.001
C  C49  1  0.23538667  0.56406384  0.35468648  1  -0.309604  -0.000654  3.702845  0.0  -0.386971  -0.000467  3.948269  0.0  -0.390145  -0.000529  3.959879  0.0  -0.248657  -0.384555  -0.000384  3.940048  0.0
C  C50  1  0.76462220  0.43593111  0.64531126  1  -0.309799  -0.000654  3.70291  0.0  -0.387106  -0.000469  3.948334  0.0  -0.390287  -0.000527  3.959935  0.0  -0.24864  -0.384694  -0.000384  3.940118  0.0
S  S51  1  0.80399691  0.50817960  0.20378170  1  -0.366812  0.013953  1.992947  0.012  -0.352871  0.015548  2.286527  0.013  -0.374694  0.009982  2.284603  0.008  -0.167199  -0.337181  0.020324  2.288457  0.016
S  S52  1  0.19602066  0.49181072  0.79623046  1  -0.366698  0.013954  1.993246  0.012  -0.352758  0.015553  2.286814  0.013  -0.374581  0.009984  2.284888  0.008  -0.167159  -0.337068  0.020329  2.288741  0.016
N  N53  1  0.93769599  0.79149390  0.06299827  1  -0.504711  -0.011097  3.145666  -0.015  -0.470981  -0.009258  3.467276  -0.014  -0.495937  -0.013288  3.473814  -0.016  -0.421889  -0.456125  -0.005777  3.464553  -0.012
N  N54  1  0.06229930  0.20850207  0.93700636  1  -0.504692  -0.0111  3.145425  -0.015  -0.470951  -0.009261  3.467038  -0.014  -0.495905  -0.013292  3.473572  -0.016  -0.421898  -0.456087  -0.005778  3.464305  -0.012
N  N55  1  0.70038668  0.09209647  0.07717828  1  -0.247991  -0.013378  3.260223  -0.008  -0.184558  -0.013512  3.538234  -0.01  -0.203194  -0.00969  3.547345  -0.008  -0.315046  -0.173377  -0.01876  3.530078  -0.014
N  N56  1  0.29960921  0.90790889  0.92282075  1  -0.247942  -0.013379  3.260209  -0.008  -0.18451  -0.013513  3.538201  -0.01  -0.203136  -0.009694  3.547294  -0.008  -0.315064  -0.173337  -0.018761  3.530054  -0.014
N  N57  1  0.24701151  0.82665153  0.36379605  1  -0.200787  -0.009231  3.373697  -0.007  -0.108989  -0.006178  3.60574  -0.005  -0.132192  -0.00765  3.630092  -0.006  -0.263093  -0.093324  -0.005514  3.589182  -0.004
N  N58  1  0.75299234  0.17334571  0.63620288  1  -0.200858  -0.009231  3.37368  -0.007  -0.109071  -0.006177  3.605769  -0.005  -0.132283  -0.007649  3.63012  -0.006  -0.263073  -0.093408  -0.005515  3.589211  -0.004
O  O59  1  0.06676338  0.95630749  0.19371811  1  -0.510909  0.008929  2.188505  0.006  -0.455543  0.010026  2.460137  0.008  -0.487831  0.010816  2.455603  0.009  -0.268265  -0.430733  0.010034  2.457586  0.007
O  O60  1  0.93323930  0.04368856  0.80628329  1  -0.510979  0.008933  2.188539  0.006  -0.455629  0.01003  2.460176  0.008  -0.487912  0.010818  2.455634  0.009  -0.268307  -0.430803  0.010037  2.457607  0.007
