# generated using pymatgen
data_CuH9C6N3ClO6
_symmetry_space_group_name_H-M   'P 1'
_cell_length_a   7.49452250
_cell_length_b   7.47965762
_cell_length_c   9.51870194
_cell_angle_alpha   85.12786333
_cell_angle_beta   88.68623575
_cell_angle_gamma   76.74581849
_symmetry_Int_Tables_number   1
_chemical_formula_structural   CuH9C6N3ClO6
_chemical_formula_sum   'Cu2 H18 C12 N6 Cl2 O12'
_cell_volume   517.49148810
_cell_formula_units_Z   2
loop_
 _symmetry_equiv_pos_site_id
 _symmetry_equiv_pos_as_xyz
  1  'x, y, z'
loop_
 _atom_site_type_symbol
 _atom_site_label
 _atom_site_symmetry_multiplicity
 _atom_site_fract_x
 _atom_site_fract_y
 _atom_site_fract_z
 _atom_site_occupancy
 _atom_site_hle17_bader_spin_density
 _atom_site_hle17_ddec_charge
 _atom_site_hle17_ddec_spin_density
 _atom_site_hle17_ddec_sum_bond_order
 _atom_site_hle17_magmom
 _atom_site_hse06_10hf_bader_spin_density
 _atom_site_hse06_10hf_ddec_charge
 _atom_site_hse06_10hf_ddec_spin_density
 _atom_site_hse06_10hf_ddec_sum_bond_order
 _atom_site_hse06_10hf_magmom
 _atom_site_hse06_bader_spin_density
 _atom_site_hse06_ddec_charge
 _atom_site_hse06_ddec_spin_density
 _atom_site_hse06_ddec_sum_bond_order
 _atom_site_hse06_magmom
 _atom_site_pbe_bader_spin_density
 _atom_site_pbe_cm5_charge
 _atom_site_pbe_ddec_charge
 _atom_site_pbe_ddec_spin_density
 _atom_site_pbe_ddec_sum_bond_order
 _atom_site_pbe_magmom
Cu  Cu0  1  0.14914032  0.23873914  0.33649869  1  0  0.83086  0  1.762997  0  0  0.765486  0  2.170835  0  0  0.795403  0  2.124283  0  0  0.712493  0.745852  0  2.202812  0
Cu  Cu1  1  0.85086519  0.76124134  0.66345023  1  0  0.830531  0  1.760824  0  0  0.764519  0  2.168864  0  0  0.794415  0  2.12235  0  0  0.711685  0.745259  0  2.200644  0
H  H2  1  0.29744793  0.94349995  0.47209462  1  0  0.30229  0  0.905101  0  0  0.292577  0  0.962374  0  0  0.297833  0  0.959069  0  0  0.293796  0.2884  0  0.965385  0
H  H3  1  0.70252175  0.05666727  0.52792742  1  0  0.302328  0  0.905309  0  0  0.292388  0  0.962795  0  0  0.297622  0  0.959517  0  0  0.293815  0.288203  0  0.965802  0
H  H4  1  0.10465464  0.92177238  0.40326650  1  0  0.303799  0  0.901813  0  0  0.294736  0  0.958063  0  0  0.300464  0  0.954674  0  0  0.294958  0.290739  0  0.960451  0
H  H5  1  0.89529134  0.07830549  0.59672790  1  0  0.303847  0  0.902041  0  0  0.294861  0  0.958171  0  0  0.300573  0  0.954791  0  0  0.295089  0.290856  0  0.960557  0
H  H6  1  0.25953049  0.39611622  0.82421376  1  0  0.300288  0  0.913908  0  0  0.280829  0  0.975678  0  0  0.288057  0  0.970543  0  0  0.314459  0.275868  0  0.979018  0
H  H7  1  0.74046300  0.60392306  0.17578741  1  0  0.300202  0  0.914331  0  0  0.28094  0  0.975799  0  0  0.288166  0  0.970672  0  0  0.314637  0.276001  0  0.979125  0
H  H8  1  0.35129622  0.70765573  0.30967834  1  0  0.075346  0  0.920406  0  0  0.087638  0  0.98483  0  0  0.087662  0  0.985548  0  0  0.102939  0.087597  0  0.98442  0
H  H9  1  0.64870620  0.29233877  0.69040845  1  0  0.075351  0  0.920892  0  0  0.087559  0  0.985336  0  0  0.087549  0  0.986081  0  0  0.102964  0.087527  0  0.984914  0
H  H10  1  0.46185986  0.88989966  0.26192261  1  0  0.059498  0  0.932203  0  0  0.076971  0  0.994411  0  0  0.076841  0  0.995236  0  0  0.103559  0.077109  0  0.993792  0
H  H11  1  0.53814311  0.11012155  0.73809948  1  0  0.059362  0  0.932108  0  0  0.076901  0  0.994248  0  0  0.076765  0  0.99508  0  0  0.103572  0.077035  0  0.993635  0
H  H12  1  0.29531014  0.78759722  0.06066887  1  0  0.107321  0  0.940191  0  0  0.124998  0  0.996304  0  0  0.126007  0  0.996321  0  0  0.102984  0.123967  0  0.996972  0
H  H13  1  0.70469885  0.21239761  0.93937785  1  0  0.107445  0  0.939784  0  0  0.125105  0  0.995908  0  0  0.126107  0  0.995916  0  0  0.102961  0.124065  0  0.996594  0
H  H14  1  0.08674937  0.87091143  0.14921099  1  0  0.09245  0  0.941834  0  0  0.107285  0  1.005861  0  0  0.108116  0  1.006465  0  0  0.096381  0.106564  0  1.005714  0
H  H15  1  0.91329611  0.12905201  0.85080444  1  0  0.092433  0  0.941402  0  0  0.107198  0  1.005533  0  0  0.108025  0  1.006142  0  0  0.096296  0.106474  0  1.005387  0
H  H16  1  0.27361514  0.05073084  0.83099763  1  0  0.121621  0  0.978112  0  0  0.127869  0  1.044632  0  0  0.131154  0  1.042125  0  0  0.117466  0.125268  0  1.047009  0
H  H17  1  0.72637910  0.94926420  0.16902204  1  0  0.121465  0  0.978338  0  0  0.127744  0  1.044806  0  0  0.131021  0  1.042314  0  0  0.117414  0.125139  0  1.04718  0
H  H18  1  0.19492064  0.51637373  0.06906660  1  0  0.100181  0  0.939782  0  0  0.108941  0  1.003613  0  0  0.111541  0  1.000454  0  0  0.139146  0.106928  0  1.006159  0
H  H19  1  0.80506608  0.48362512  0.93099079  1  0  0.100028  0  0.940154  0  0  0.108808  0  1.003991  0  0  0.111399  0  1.000841  0  0  0.139164  0.106793  0  1.006542  0
C  C20  1  0.32785557  0.85452267  0.27273079  1  0  0.093609  0  3.611091  0  0  0.037208  0  3.884733  0  0  0.04144  0  3.896882  0  0  -0.073386  0.034357  0  3.876448  0
C  C21  1  0.67213865  0.14548393  0.72722302  1  0  0.09437  0  3.612876  0  0  0.038012  0  3.886205  0  0  0.042265  0  3.898364  0  0  -0.073129  0.035153  0  3.877894  0
C  C22  1  0.22731598  0.89027263  0.13202691  1  0  -0.195742  0  3.705909  0  0  -0.240087  0  3.956226  0  0  -0.242082  0  3.969308  0  0  -0.157823  -0.238435  0  3.947674  0
C  C23  1  0.77266505  0.10971584  0.86795349  1  0  -0.196569  0  3.704994  0  0  -0.240742  0  3.955281  0  0  -0.242729  0  3.968375  0  0  -0.157963  -0.239083  0  3.946733  0
C  C24  1  0.22427186  0.07710640  0.06208444  1  0  0.178741  0  3.74068  0  0  0.183743  0  3.997538  0  0  0.186493  0  4.022652  0  0  0.080451  0.18174  0  3.980722  0
C  C25  1  0.77573008  0.92286659  0.93793750  1  0  0.178758  0  3.738992  0  0  0.18349  0  3.996305  0  0  0.18624  0  4.021424  0  0  0.080302  0.181475  0  3.979499  0
C  C26  1  0.25241825  0.12935718  0.92269956  1  0  -0.064346  0  3.643026  0  0  -0.110212  0  3.904674  0  0  -0.110255  0  3.923567  0  0  -0.000722  -0.11017  0  3.892425  0
C  C27  1  0.74757299  0.87058672  0.07733909  1  0  -0.064027  0  3.642514  0  0  -0.109813  0  3.904232  0  0  -0.109861  0  3.923186  0  0  -0.000446  -0.109738  0  3.891998  0
C  C28  1  0.20644784  0.37603277  0.04377185  1  0  0.23841  0  3.662473  0  0  0.172365  0  3.949581  0  0  0.187869  0  3.95937  0  0  0.14437  0.162583  0  3.942622  0
C  C29  1  0.79353839  0.62393312  0.95627289  1  0  0.238209  0  3.662981  0  0  0.172136  0  3.950168  0  0  0.187637  0  3.959997  0  0  0.144217  0.162381  0  3.943224  0
C  C30  1  0.00594264  0.57239212  0.43964203  1  0  0.530863  0  3.919615  0  0  0.482966  0  4.223482  0  0  0.51386  0  4.216012  0  0  0.207428  0.462315  0  4.227907  0
C  C31  1  0.99411133  0.42753372  0.56025475  1  0  0.531038  0  3.919207  0  0  0.482511  0  4.223846  0  0  0.513423  0  4.216362  0  0  0.207309  0.461858  0  4.228261  0
N  N32  1  0.22290309  0.96653743  0.38056077  1  0  -0.576231  0  3.12219  0  0  -0.546504  0  3.398244  0  0  -0.562583  0  3.39419  0  0  -0.64105  -0.53536  0  3.401538  0
N  N33  1  0.77704556  0.03361071  0.61943343  1  0  -0.576695  0  3.124051  0  0  -0.54677  0  3.399916  0  0  -0.562843  0  3.395939  0  0  -0.641236  -0.535543  0  3.403167  0
N  N34  1  0.24047377  0.31666145  0.91406686  1  0  -0.262307  0  3.483021  0  0  -0.196171  0  3.723103  0  0  -0.211473  0  3.738839  0  0  -0.378524  -0.186026  0  3.712086  0
N  N35  1  0.75952055  0.68331569  0.08595182  1  0  -0.262311  0  3.484361  0  0  -0.196261  0  3.724272  0  0  -0.21163  0  3.740103  0  0  -0.378884  -0.186194  0  3.713322  0
N  N36  1  0.19454418  0.23386730  0.13556756  1  0  -0.418248  0  3.315344  0  0  -0.36797  0  3.630465  0  0  -0.385664  0  3.640195  0  0  -0.387426  -0.356687  0  3.62403  0
N  N37  1  0.80545532  0.76607539  0.86445210  1  0  -0.41792  0  3.313598  0  0  -0.367749  0  3.628937  0  0  -0.385398  0  3.63866  0  0  -0.387204  -0.356427  0  3.622479  0
Cl  Cl38  1  0.64725899  0.30229026  0.29434531  1  0  1.380926  0  6.190551  0  0  1.321266  0  6.755914  0  0  1.372688  0  6.733164  0  0  0.72934  1.286066  0  6.769987  0
Cl  Cl39  1  0.35273638  0.69771733  0.70565675  1  0  1.380925  0  6.190601  0  0  1.321215  0  6.755937  0  0  1.372657  0  6.733161  0  0  0.729253  1.28602  0  6.770005  0
O  O40  1  0.08037021  0.51699923  0.32600167  1  0  -0.505264  0  2.076322  0  0  -0.467574  0  2.349613  0  0  -0.491252  0  2.339588  0  0  -0.283142  -0.45211  0  2.356368  0
O  O41  1  0.91966473  0.48292805  0.67388592  1  0  -0.505413  0  2.07554  0  0  -0.467285  0  2.348804  0  0  -0.490933  0  2.338775  0  0  -0.283134  -0.451815  0  2.355552  0
O  O42  1  0.94003698  0.73952482  0.46253099  1  0  -0.512463  0  2.072709  0  0  -0.463262  0  2.328124  0  0  -0.486854  0  2.31721  0  0  -0.288332  -0.447002  0  2.335397  0
O  O43  1  0.06003870  0.26039951  0.53738439  1  0  -0.512449  0  2.07298  0  0  -0.463165  0  2.328762  0  0  -0.486776  0  2.317835  0  0  -0.288369  -0.446935  0  2.336078  0
O  O44  1  0.51329082  0.23090749  0.38385546  1  0  -0.545542  0  1.850401  0  0  -0.520983  0  2.101651  0  0  -0.535008  0  2.084429  0  0  -0.308032  -0.511042  0  2.113273  0
O  O45  1  0.48670588  0.76910011  0.61614552  1  0  -0.545709  0  1.850525  0  0  -0.521049  0  2.101766  0  0  -0.535074  0  2.084542  0  0  -0.30805  -0.511143  0  2.113434  0
O  O46  1  0.82132820  0.16360451  0.30048150  1  0  -0.569001  0  1.898052  0  0  -0.548102  0  2.166254  0  0  -0.562754  0  2.150178  0  0  -0.315569  -0.537832  0  2.177023  0
O  O47  1  0.17866274  0.83639904  0.69950829  1  0  -0.568995  0  1.897947  0  0  -0.548046  0  2.166187  0  0  -0.562696  0  2.150102  0  0  -0.31553  -0.537802  0  2.176981  0
O  O48  1  0.67530507  0.47278699  0.34730176  1  0  -0.546092  0  1.852208  0  0  -0.513569  0  2.089301  0  0  -0.530413  0  2.076949  0  0  -0.307942  -0.501902  0  2.097172  0
O  O49  1  0.32470013  0.52720676  0.65270833  1  0  -0.546129  0  1.852101  0  0  -0.513578  0  2.08923  0  0  -0.530467  0  2.076917  0  0  -0.307941  -0.501905  0  2.097079  0
O  O50  1  0.58336161  0.34106004  0.14956399  1  0  -0.520561  0  1.866316  0  0  -0.489718  0  2.104059  0  0  -0.506305  0  2.093951  0  0  -0.297322  -0.478254  0  2.110981  0
O  O51  1  0.41661494  0.65895987  0.85044501  1  0  -0.52048  0  1.866288  0  0  -0.489656  0  2.104054  0  0  -0.506243  0  2.093938  0  0  -0.297291  -0.47819  0  2.110962  0
