# generated using pymatgen
data_CaH22C12N2(ClO2)2
_symmetry_space_group_name_H-M   'P 1'
_cell_length_a   8.77054464
_cell_length_b   8.77053237
_cell_length_c   11.42149806
_cell_angle_alpha   78.83124854
_cell_angle_beta   78.83128169
_cell_angle_gamma   84.96173398
_symmetry_Int_Tables_number   1
_chemical_formula_structural   CaH22C12N2(ClO2)2
_chemical_formula_sum   'Ca2 H44 C24 N4 Cl4 O8'
_cell_volume   844.44951245
_cell_formula_units_Z   2
loop_
 _symmetry_equiv_pos_site_id
 _symmetry_equiv_pos_as_xyz
  1  'x, y, z'
loop_
 _atom_site_type_symbol
 _atom_site_label
 _atom_site_symmetry_multiplicity
 _atom_site_fract_x
 _atom_site_fract_y
 _atom_site_fract_z
 _atom_site_occupancy
 _atom_site_hle17_bader_spin_density
 _atom_site_hle17_ddec_charge
 _atom_site_hle17_ddec_spin_density
 _atom_site_hle17_ddec_sum_bond_order
 _atom_site_hle17_magmom
 _atom_site_hse06_10hf_bader_spin_density
 _atom_site_hse06_10hf_ddec_charge
 _atom_site_hse06_10hf_ddec_spin_density
 _atom_site_hse06_10hf_ddec_sum_bond_order
 _atom_site_hse06_10hf_magmom
 _atom_site_hse06_bader_spin_density
 _atom_site_hse06_ddec_charge
 _atom_site_hse06_ddec_spin_density
 _atom_site_hse06_ddec_sum_bond_order
 _atom_site_hse06_magmom
 _atom_site_pbe_bader_spin_density
 _atom_site_pbe_cm5_charge
 _atom_site_pbe_ddec_charge
 _atom_site_pbe_ddec_spin_density
 _atom_site_pbe_ddec_sum_bond_order
 _atom_site_pbe_magmom
Ca  Ca0  1  0.56290248  0.43709750  0.25000000  1  0  1.473605  0  1.234235  0  0  1.349077  0  1.594259  0  0  1.389052  0  1.553152  0  0  0.736075  1.318471  0  1.625372  0
Ca  Ca1  1  0.43709783  0.56290217  0.74999949  1  0  1.473626  0  1.23413  0  0  1.349118  0  1.594154  0  0  1.389091  0  1.553048  0  0  0.736077  1.318506  0  1.625256  0
H  H2  1  0.37538152  0.61603884  0.44810675  1  0  0.367578  0  0.914811  0  0  0.342714  0  0.991317  0  0  0.352968  0  0.979852  0  0  0.278806  0.335508  0  0.999541  0
H  H3  1  0.38396071  0.62461861  0.05189237  1  0  0.36757  0  0.914819  0  0  0.342696  0  0.99134  0  0  0.35295  0  0.979878  0  0  0.278795  0.33549  0  0.999565  0
H  H4  1  0.62461873  0.38396199  0.55189345  1  0  0.367572  0  0.914833  0  0  0.342714  0  0.991329  0  0  0.352966  0  0.979867  0  0  0.278797  0.335507  0  0.999551  0
H  H5  1  0.61603837  0.37538221  0.94810626  1  0  0.367609  0  0.914795  0  0  0.342718  0  0.991352  0  0  0.352972  0  0.979884  0  0  0.278796  0.335512  0  0.999575  0
H  H6  1  0.03916257  0.80454701  0.32177897  1  0  0.067015  0  0.968619  0  0  0.082797  0  1.03386  0  0  0.084012  0  1.033651  0  0  0.09058  0.081013  0  1.036153  0
H  H7  1  0.19545291  0.96083730  0.17822094  1  0  0.066986  0  0.968654  0  0  0.082767  0  1.03389  0  0  0.083982  0  1.033684  0  0  0.090566  0.080983  0  1.036183  0
H  H8  1  0.96083768  0.19545382  0.67822036  1  0  0.066991  0  0.968636  0  0  0.08277  0  1.033869  0  0  0.083988  0  1.03366  0  0  0.090571  0.080986  0  1.03616  0
H  H9  1  0.80454740  0.03916236  0.82177942  1  0  0.066986  0  0.968663  0  0  0.08277  0  1.033896  0  0  0.083987  0  1.033687  0  0  0.090564  0.080984  0  1.036189  0
H  H10  1  0.96006278  0.95394245  0.40464344  1  0  0.072947  0  0.928086  0  0  0.094012  0  0.982465  0  0  0.094679  0  0.983407  0  0  0.093751  0.093883  0  0.981047  0
H  H11  1  0.04605786  0.03993650  0.09535659  1  0  0.072951  0  0.928084  0  0  0.094014  0  0.98246  0  0  0.094682  0  0.983402  0  0  0.09375  0.093885  0  0.981042  0
H  H12  1  0.03993631  0.04605838  0.59535606  1  0  0.073007  0  0.928022  0  0  0.094032  0  0.982437  0  0  0.0947  0  0.98338  0  0  0.093757  0.093902  0  0.981019  0
H  H13  1  0.95394355  0.96006432  0.90464256  1  0  0.072954  0  0.928077  0  0  0.094  0  0.982475  0  0  0.094665  0  0.983421  0  0  0.093751  0.093869  0  0.981057  0
H  H14  1  0.89512640  0.60640147  0.47201087  1  0  0.118234  0  0.933265  0  0  0.131583  0  0.994773  0  0  0.134346  0  0.993666  0  0  0.099094  0.129314  0  0.996209  0
H  H15  1  0.39359821  0.10487336  0.02799009  1  0  0.118213  0  0.933289  0  0  0.131569  0  0.994799  0  0  0.13432  0  0.993691  0  0  0.099088  0.129298  0  0.996236  0
H  H16  1  0.10487274  0.39359819  0.52798792  1  0  0.118225  0  0.933293  0  0  0.131587  0  0.994784  0  0  0.13434  0  0.993673  0  0  0.099096  0.129317  0  0.996221  0
H  H17  1  0.60640314  0.89512863  0.97201239  1  0  0.118225  0  0.933303  0  0  0.13156  0  0.994809  0  0  0.134312  0  0.993702  0  0  0.099093  0.12929  0  0.996245  0
H  H18  1  0.93051919  0.72899439  0.56928404  1  0  0.108184  0  0.969286  0  0  0.119151  0  1.036997  0  0  0.121514  0  1.036305  0  0  0.091838  0.117377  0  1.037407  0
H  H19  1  0.27100624  0.06948052  0.93071669  1  0  0.108157  0  0.969325  0  0  0.119122  0  1.037046  0  0  0.121475  0  1.036354  0  0  0.091818  0.117348  0  1.037457  0
H  H20  1  0.06947995  0.27100527  0.43071650  1  0  0.1082  0  0.969246  0  0  0.119167  0  1.036955  0  0  0.121523  0  1.036259  0  0  0.091856  0.117394  0  1.037367  0
H  H21  1  0.72899628  0.93052147  0.06928388  1  0  0.108217  0  0.969256  0  0  0.119171  0  1.036968  0  0  0.121526  0  1.036274  0  0  0.091855  0.117396  0  1.037381  0
H  H22  1  0.32557083  0.83814670  0.30817429  1  0  0.039355  0  0.937663  0  0  0.057779  0  0.999214  0  0  0.05761  0  0.999166  0  0  0.098186  0.057381  0  1.000386  0
H  H23  1  0.16185383  0.67442942  0.19182463  1  0  0.039327  0  0.937709  0  0  0.057754  0  0.999268  0  0  0.057582  0  0.999221  0  0  0.098184  0.057353  0  1.000441  0
H  H24  1  0.67442948  0.16185296  0.69182433  1  0  0.039316  0  0.937671  0  0  0.057743  0  0.999233  0  0  0.05757  0  0.999189  0  0  0.098177  0.057345  0  1.000405  0
H  H25  1  0.83814654  0.32556908  0.80817590  1  0  0.039364  0  0.937645  0  0  0.057803  0  0.999196  0  0  0.057631  0  0.99915  0  0  0.098196  0.057402  0  1.000367  0
H  H26  1  0.51703979  0.80691802  0.22727934  1  0  0.059968  0  0.9349  0  0  0.075122  0  1.000699  0  0  0.075309  0  1.000533  0  0  0.113048  0.07543  0  1.000048  0
H  H27  1  0.19308172  0.48295995  0.27271980  1  0  0.059967  0  0.934882  0  0  0.07511  0  1.0007  0  0  0.075295  0  1.000536  0  0  0.113051  0.075415  0  1.000049  0
H  H28  1  0.48295935  0.19308164  0.77272032  1  0  0.059948  0  0.934876  0  0  0.075106  0  1.000685  0  0  0.075291  0  1.000521  0  0  0.113048  0.07541  0  1.000034  0
H  H29  1  0.80691865  0.51703855  0.72727986  1  0  0.059966  0  0.934887  0  0  0.075122  0  1.000704  0  0  0.075309  0  1.000537  0  0  0.113051  0.075425  0  1.000053  0
H  H30  1  0.78232081  0.99586257  0.26256733  1  0  0.075669  0  0.947276  0  0  0.086421  0  1.018689  0  0  0.087704  0  1.017972  0  0  0.101102  0.085621  0  1.018966  0
H  H31  1  0.00413688  0.21767933  0.23743268  1  0  0.075664  0  0.947272  0  0  0.086414  0  1.018694  0  0  0.087699  0  1.017976  0  0  0.101099  0.085615  0  1.01897  0
H  H32  1  0.21767944  0.00413825  0.73743112  1  0  0.075663  0  0.947297  0  0  0.08642  0  1.018717  0  0  0.087706  0  1.017998  0  0  0.101099  0.085619  0  1.01899  0
H  H33  1  0.99586233  0.78231917  0.76256890  1  0  0.075644  0  0.94732  0  0  0.08639  0  1.018749  0  0  0.087677  0  1.018028  0  0  0.101091  0.085589  0  1.019022  0
H  H34  1  0.79710951  0.79424403  0.25076734  1  0  0.06843  0  0.931732  0  0  0.084473  0  0.994036  0  0  0.084863  0  0.994388  0  0  0.10517  0.084167  0  0.99398  0
H  H35  1  0.20575641  0.20289116  0.24923247  1  0  0.068431  0  0.931732  0  0  0.084473  0  0.994039  0  0  0.084863  0  0.99439  0  0  0.105171  0.084166  0  0.993985  0
H  H36  1  0.20289074  0.20575680  0.74923199  1  0  0.068434  0  0.931718  0  0  0.084484  0  0.994023  0  0  0.084875  0  0.994375  0  0  0.105173  0.084176  0  0.993965  0
H  H37  1  0.79424274  0.79710850  0.75076895  1  0  0.068426  0  0.931691  0  0  0.084467  0  0.993999  0  0  0.084858  0  0.99435  0  0  0.105164  0.084159  0  0.993944  0
H  H38  1  0.49457536  0.01349543  0.35525876  1  0  0.085758  0  0.939198  0  0  0.097938  0  1.00819  0  0  0.09884  0  1.007742  0  0  0.112139  0.096778  0  1.009519  0
H  H39  1  0.98650296  0.50542512  0.14474143  1  0  0.08577  0  0.939175  0  0  0.097925  0  1.00815  0  0  0.098837  0  1.007688  0  0  0.11213  0.096764  0  1.009479  0
H  H40  1  0.50542489  0.98650539  0.64474056  1  0  0.085787  0  0.939186  0  0  0.097958  0  1.008165  0  0  0.09886  0  1.007719  0  0  0.112143  0.096797  0  1.009492  0
H  H41  1  0.01349619  0.49457455  0.85525999  1  0  0.085804  0  0.939144  0  0  0.097946  0  1.008131  0  0  0.098858  0  1.00767  0  0  0.112139  0.096784  0  1.009458  0
H  H42  1  0.42872444  0.87208803  0.48751859  1  0  0.084156  0  0.952441  0  0  0.094057  0  1.024089  0  0  0.095685  0  1.022947  0  0  0.112641  0.092776  0  1.025296  0
H  H43  1  0.12791144  0.57127411  0.01248250  1  0  0.084152  0  0.952533  0  0  0.094028  0  1.02418  0  0  0.095643  0  1.023049  0  0  0.112619  0.092746  0  1.025387  0
H  H44  1  0.57127581  0.12791280  0.51248074  1  0  0.084169  0  0.95245  0  0  0.094052  0  1.024104  0  0  0.095681  0  1.022961  0  0  0.112639  0.092771  0  1.025312  0
H  H45  1  0.87208660  0.42872439  0.98751925  1  0  0.084185  0  0.952444  0  0  0.09406  0  1.024092  0  0  0.095687  0  1.022947  0  0  0.112643  0.092778  0  1.0253  0
C  C46  1  0.93438656  0.84609396  0.37831420  1  0  -0.102095  0  3.673405  0  0  -0.145512  0  3.936991  0  0  -0.14643  0  3.950223  0  0  -0.157196  -0.145239  0  3.928595  0
C  C47  1  0.15390601  0.06561351  0.12168578  1  0  -0.102083  0  3.673433  0  0  -0.145471  0  3.937  0  0  -0.146402  0  3.950224  0  0  -0.157176  -0.145198  0  3.928602  0
C  C48  1  0.06561363  0.15390803  0.62168409  1  0  -0.10216  0  3.673338  0  0  -0.145525  0  3.936897  0  0  -0.146459  0  3.950126  0  0  -0.157202  -0.145256  0  3.928496  0
C  C49  1  0.84609307  0.93438731  0.87831548  1  0  -0.102093  0  3.673394  0  0  -0.145502  0  3.936947  0  0  -0.146432  0  3.950172  0  0  -0.157186  -0.145232  0  3.928544  0
C  C50  1  0.87681958  0.72599032  0.49104493  1  0  -0.268228  0  3.686019  0  0  -0.307169  0  3.936973  0  0  -0.312597  0  3.944887  0  0  -0.16425  -0.303809  0  3.931885  0
C  C51  1  0.27401040  0.12317968  0.00895594  1  0  -0.268165  0  3.686049  0  0  -0.30715  0  3.937068  0  0  -0.312535  0  3.944931  0  0  -0.16424  -0.303786  0  3.931974  0
C  C52  1  0.12318183  0.27401050  0.50895335  1  0  -0.268177  0  3.686037  0  0  -0.307123  0  3.936974  0  0  -0.312507  0  3.944832  0  0  -0.164259  -0.303756  0  3.931876  0
C  C53  1  0.72599114  0.87681883  0.99104704  1  0  -0.268218  0  3.686043  0  0  -0.307107  0  3.936991  0  0  -0.312495  0  3.944857  0  0  -0.164245  -0.303738  0  3.931891  0
C  C54  1  0.44486116  0.79381612  0.31821737  1  0  0.13599  0  3.639271  0  0  0.074753  0  3.917039  0  0  0.082125  0  3.922863  0  0  -0.065097  0.06993  0  3.912453  0
C  C55  1  0.20618364  0.55513951  0.18178162  1  0  0.13605  0  3.639379  0  0  0.07478  0  3.917144  0  0  0.082153  0  3.922964  0  0  -0.065086  0.069962  0  3.912552  0
C  C56  1  0.55513915  0.20618355  0.68178212  1  0  0.136132  0  3.639234  0  0  0.074866  0  3.917024  0  0  0.082239  0  3.922846  0  0  -0.065069  0.070043  0  3.912428  0
C  C57  1  0.79381667  0.44486016  0.81821874  1  0  0.135998  0  3.639326  0  0  0.074687  0  3.917141  0  0  0.082059  0  3.922958  0  0  -0.065122  0.069868  0  3.912543  0
C  C58  1  0.79453373  0.87659102  0.31291944  1  0  -0.002685  0  3.604242  0  0  -0.06262  0  3.867269  0  0  -0.058836  0  3.879949  0  0  -0.058084  -0.065135  0  3.858668  0
C  C59  1  0.12340867  0.20546582  0.18708064  1  0  -0.002676  0  3.604245  0  0  -0.062625  0  3.867293  0  0  -0.05884  0  3.879976  0  0  -0.058078  -0.065141  0  3.858692  0
C  C60  1  0.20546645  0.12341097  0.68707885  1  0  -0.002667  0  3.60422  0  0  -0.062663  0  3.867271  0  0  -0.058885  0  3.879962  0  0  -0.058101  -0.065178  0  3.858662  0
C  C61  1  0.87659048  0.79453384  0.81292078  1  0  -0.002641  0  3.604196  0  0  -0.06259  0  3.867197  0  0  -0.058805  0  3.879878  0  0  -0.058082  -0.065107  0  3.858588  0
C  C62  1  0.70335228  0.76081133  0.51443651  1  0  0.567762  0  3.766161  0  0  0.521282  0  4.055718  0  0  0.551714  0  4.053557  0  0  0.256242  0.501324  0  4.05638  0
C  C63  1  0.23918834  0.29664804  0.98556424  1  0  0.567715  0  3.766191  0  0  0.521233  0  4.055778  0  0  0.551659  0  4.053602  0  0  0.256235  0.501274  0  4.056438  0
C  C64  1  0.29664705  0.23918484  0.48556452  1  0  0.56763  0  3.76614  0  0  0.521077  0  4.055756  0  0  0.551502  0  4.053589  0  0  0.256212  0.501119  0  4.056415  0
C  C65  1  0.76081540  0.70335279  0.01443632  1  0  0.567696  0  3.766118  0  0  0.521085  0  4.055811  0  0  0.551511  0  4.053644  0  0  0.25619  0.501124  0  4.056471  0
C  C66  1  0.50277689  0.88963107  0.39727121  1  0  -0.050395  0  3.666366  0  0  -0.114248  0  3.928763  0  0  -0.110542  0  3.939644  0  0  -0.061484  -0.116384  0  3.920889  0
C  C67  1  0.11036904  0.49722444  0.10272938  1  0  -0.050413  0  3.666565  0  0  -0.114133  0  3.928792  0  0  -0.110427  0  3.939685  0  0  -0.061423  -0.116272  0  3.920917  0
C  C68  1  0.49722452  0.11036976  0.60272882  1  0  -0.050475  0  3.666406  0  0  -0.114284  0  3.928718  0  0  -0.110571  0  3.939585  0  0  -0.061454  -0.116422  0  3.920841  0
C  C69  1  0.88963017  0.50277406  0.89727133  1  0  -0.050479  0  3.666357  0  0  -0.11421  0  3.928598  0  0  -0.110524  0  3.939513  0  0  -0.061445  -0.116346  0  3.920719  0
N  N70  1  0.66190764  0.84666182  0.41328460  1  0  -0.194909  0  3.390395  0  0  -0.105438  0  3.623392  0  0  -0.126441  0  3.645029  0  0  -0.269052  -0.090703  0  3.60798  0
N  N71  1  0.15333641  0.33809278  0.08671468  1  0  -0.194839  0  3.390465  0  0  -0.105395  0  3.623431  0  0  -0.126401  0  3.645069  0  0  -0.269032  -0.090659  0  3.608018  0
N  N72  1  0.33809377  0.15333900  0.58671280  1  0  -0.194807  0  3.390464  0  0  -0.105264  0  3.623362  0  0  -0.126266  0  3.645006  0  0  -0.269022  -0.090526  0  3.607945  0
N  N73  1  0.84666042  0.66190689  0.91328796  1  0  -0.194844  0  3.390423  0  0  -0.105299  0  3.62333  0  0  -0.126307  0  3.64497  0  0  -0.269042  -0.090563  0  3.607912  0
Cl  Cl74  1  0.78153152  0.36836177  0.39247776  1  0  -0.697506  0  0.691619  0  0  -0.641347  0  0.904161  0  0  -0.65682  0  0.885702  0  0  -0.332159  -0.628823  0  0.917465  0
Cl  Cl75  1  0.63163972  0.21846748  0.10752306  1  0  -0.69753  0  0.691616  0  0  -0.641341  0  0.904155  0  0  -0.656814  0  0.885695  0  0  -0.332158  -0.628818  0  0.91746  0
Cl  Cl76  1  0.21846525  0.63163906  0.60752646  1  0  -0.697519  0  0.691589  0  0  -0.641348  0  0.904128  0  0  -0.656819  0  0.885669  0  0  -0.332164  -0.628829  0  0.917434  0
Cl  Cl77  1  0.36836047  0.78153451  0.89247348  1  0  -0.697533  0  0.691592  0  0  -0.64135  0  0.904133  0  0  -0.656822  0  0.885675  0  0  -0.332168  -0.628831  0  0.917438  0
O  O78  1  0.61176342  0.71688344  0.61196745  1  0  -0.663862  0  2.029865  0  0  -0.613894  0  2.291857  0  0  -0.638607  0  2.282023  0  0  -0.373237  -0.596781  0  2.299725  0
O  O79  1  0.28311698  0.38823522  0.88803256  1  0  -0.663898  0  2.029831  0  0  -0.613907  0  2.291812  0  0  -0.638622  0  2.281978  0  0  -0.373259  -0.596796  0  2.299682  0
O  O80  1  0.38824165  0.28311389  0.38802643  1  0  -0.663867  0  2.029608  0  0  -0.613828  0  2.291562  0  0  -0.638548  0  2.281733  0  0  -0.373228  -0.596718  0  2.299435  0
O  O81  1  0.71688591  0.61175980  0.11197424  1  0  -0.663891  0  2.029662  0  0  -0.613838  0  2.291648  0  0  -0.638554  0  2.281819  0  0  -0.373211  -0.596727  0  2.299521  0
O  O82  1  0.44752199  0.63108144  0.36786126  1  0  -0.608175  0  2.138054  0  0  -0.546435  0  2.379114  0  0  -0.565661  0  2.368449  0  0  -0.440079  -0.53289  0  2.387207  0
O  O83  1  0.36891822  0.55247607  0.13213816  1  0  -0.608149  0  2.138028  0  0  -0.54641  0  2.379108  0  0  -0.565634  0  2.368442  0  0  -0.440085  -0.532869  0  2.3872  0
O  O84  1  0.55247715  0.36891822  0.63213841  1  0  -0.608197  0  2.137992  0  0  -0.54646  0  2.379069  0  0  -0.565686  0  2.3684  0  0  -0.440103  -0.53292  0  2.38716  0
O  O85  1  0.63108215  0.44752243  0.86786150  1  0  -0.608202  0  2.13805  0  0  -0.546433  0  2.379156  0  0  -0.565657  0  2.368489  0  0  -0.440076  -0.532894  0  2.387245  0
