# generated using pymatgen
data_Zn2H24C50SN4O11
_symmetry_space_group_name_H-M   'P 1'
_cell_length_a   12.52368592
_cell_length_b   13.27364125
_cell_length_c   15.91652659
_cell_angle_alpha   81.30691157
_cell_angle_beta   80.85896796
_cell_angle_gamma   83.59507812
_symmetry_Int_Tables_number   1
_chemical_formula_structural   Zn2H24C50SN4O11
_chemical_formula_sum   'Zn2 H24 C50 S1 N4 O11'
_cell_volume   2571.86143643
_cell_formula_units_Z   1
loop_
 _symmetry_equiv_pos_site_id
 _symmetry_equiv_pos_as_xyz
  1  'x, y, z'
loop_
 _atom_site_type_symbol
 _atom_site_label
 _atom_site_symmetry_multiplicity
 _atom_site_fract_x
 _atom_site_fract_y
 _atom_site_fract_z
 _atom_site_occupancy
 _atom_site_pbe_bader_charge
 _atom_site_pbe_bader_spin_density
 _atom_site_pbe_cm5_charge
 _atom_site_pbe_ddec_charge
 _atom_site_pbe_ddec_spin_density
 _atom_site_pbe_ddec_sum_bond_order
 _atom_site_pbe_magmom
Zn  Zn0  1  0.38909228  0.47597713  0.49228093  1  1.293048  0  0.673748  0.825376  0  2.391656  0
Zn  Zn1  1  0.60195760  0.51670410  0.51980757  1  1.302587  0  0.681469  0.838528  0  2.399205  0
H  H2  1  0.32886411  0.27254257  0.05670467  1  0.07661  0  0.108646  0.109665  0  0.985816  0
H  H3  1  0.78550871  0.63668299  0.08817633  1  0.092092  0  0.113929  0.120211  0  0.981277  0
H  H4  1  0.76760398  0.21793510  0.48462274  1  0.076719  0  0.10242  0.106862  0  1.009989  0
H  H5  1  0.78927230  0.87197135  0.42189280  1  0.062807  0  0.10409  0.10717  0  0.991081  0
H  H6  1  0.83146836  0.04125793  0.45057715  1  0.046553  0  0.100312  0.100611  0  0.996981  0
H  H7  1  0.44365718  0.17354983  0.45447695  1  0.106916  0  0.104621  0.110966  0  1.029802  0
H  H8  1  0.26625480  0.78640923  0.42490427  1  0.090241  0  0.109787  0.118168  0  0.992001  0
H  H9  1  0.22944668  0.97108599  0.36510213  1  0.086677  0  0.111615  0.114979  0  0.983195  0
H  H10  1  0.65098728  0.75256626  0.42877267  1  0.140698  0  0.108145  0.125669  0  1.020575  0
H  H11  1  0.31778319  0.35439186  0.37382918  1  0.13152  0  0.121055  0.10363  0  1.013556  0
H  H12  1  0.47456883  0.44015817  0.22714931  1  0.116891  0  0.112046  0.122175  0  1.012469  0
H  H13  1  0.94040071  0.35051824  0.34891642  1  0.072855  0  0.113239  0.116136  0  0.972385  0
H  H14  1  0.14409900  0.31985123  0.33132367  1  0.104272  0  0.111597  0.121115  0  0.994606  0
H  H15  1  0.16185372  0.54521963  0.54655802  1  0.11668  0  0.127185  0.099931  0  0.991189  0
H  H16  1  0.67168898  0.65052473  0.62162357  1  0.195833  0  0.127206  0.114719  0  1.009963  0
H  H17  1  0.02047332  0.62379042  0.59718386  1  0.10788  0  0.118199  0.115197  0  0.983007  0
H  H18  1  0.84126087  0.70149365  0.66091861  1  0.097436  0  0.119314  0.124944  0  0.973527  0
H  H19  1  0.77014696  0.43054481  0.42133421  1  0.133726  0  0.114868  0.131769  0  1.03741  0
H  H20  1  0.74953376  0.61344172  0.94473145  1  0.05381  0  0.108042  0.11208  0  0.980761  0
H  H21  1  0.28500434  0.26329374  0.91397143  1  0.054808  0  0.109954  0.109657  0  0.984759  0
H  H22  1  0.30843583  0.32306803  0.75563626  1  0.101779  0  0.11484  0.124162  0  0.974462  0
H  H23  1  0.42005592  0.34948096  0.15273627  1  0.067282  0  0.106833  0.114061  0  1.014342  0
H  H24  1  0.63376120  0.55587418  0.85476512  1  0.141621  0  0.106505  0.121127  0  1.042175  0
H  H25  1  0.48571465  0.67478876  0.90010971  1  0.623726  0  0.326416  0.375321  0  0.900107  0
C  C26  1  0.44679086  0.69058372  0.47432494  1  1.589271  0  0.220843  0.600916  0  4.156714  0
C  C27  1  0.45137959  0.45542458  0.90635092  1  0.024259  0  0.003777  0.031545  0  3.926699  0
C  C28  1  0.38746699  0.37159803  0.94105875  1  0.002369  0  -0.003739  0.079241  0  4.004749  0
C  C29  1  0.52072087  0.48669366  0.96046199  1  0.055562  0  -0.008116  0.021672  0  3.977322  0
C  C30  1  0.50458057  0.45383296  0.05030288  1  -0.068654  0  0.003696  0.048183  0  3.940423  0
C  C31  1  0.43062324  0.37835578  0.08439680  1  -0.024262  0  -0.086437  -0.127306  0  3.991697  0
C  C32  1  0.37882279  0.33554261  0.03087067  1  -0.006743  0  -0.081658  -0.118672  0  3.993502  0
C  C33  1  0.61267297  0.54211703  0.92424455  1  -0.112122  0  -0.102492  -0.171087  0  4.054804  0
C  C34  1  0.67845818  0.57359732  0.97441251  1  -0.048368  0  -0.086975  -0.122579  0  4.005649  0
C  C35  1  0.65531548  0.55445628  0.06556461  1  -0.040727  0  -0.006098  0.078856  0  4.038879  0
C  C36  1  0.56766577  0.49448410  0.10404476  1  -0.025944  0  0.003872  0.03777  0  3.941954  0
C  C37  1  0.42196960  0.47515544  0.66870946  1  1.627562  0  0.215469  0.593872  0  4.19645  0
C  C38  1  0.71736674  0.59296955  0.11813634  1  -0.005872  0  -0.068628  -0.155345  0  3.91633  0
C  C39  1  0.69198682  0.57815336  0.20724960  1  0.070875  0  0.010271  0.048366  0  4.061065  0
C  C40  1  0.54320497  0.48117991  0.19430022  1  0.047985  0  -0.070666  -0.121  0  3.930252  0
C  C41  1  0.74668750  0.07107025  0.44969213  1  -0.056565  0  -0.092665  -0.141336  0  4.002184  0
C  C42  1  0.60087384  0.20419738  0.47191715  1  0.004205  0  -0.021676  -0.035152  0  3.980763  0
C  C43  1  0.32789030  0.83989118  0.41852092  1  0.037278  0  -0.082418  -0.091872  0  4.000455  0
C  C44  1  0.30625954  0.94308731  0.38798419  1  -0.024863  0  -0.07696  -0.113285  0  3.994299  0
C  C45  1  0.38386960  0.01180446  0.38646153  1  0.047788  0  0.004874  0.007634  0  4.072346  0
C  C46  1  0.48620641  0.97695214  0.41423739  1  0.040397  0  0.014205  0.014224  0  3.89854  0
C  C47  1  0.51418158  0.86904330  0.42904771  1  0.004337  0  0.009818  0.070992  0  3.932582  0
C  C48  1  0.55953154  0.30594827  0.49965287  1  1.541958  0  0.213306  0.593007  0  4.17396  0
C  C49  1  0.56242610  0.04474909  0.42901725  1  -0.016085  0  -0.005305  0.023977  0  3.968576  0
C  C50  1  0.67273638  0.00582886  0.43321495  1  -0.032937  0  -0.002794  0.084742  0  4.018988  0
C  C51  1  0.70355574  0.90015829  0.42586968  1  -0.011234  0  -0.086834  -0.129262  0  4.001785  0
C  C52  1  0.62698355  0.83363622  0.42906775  1  -0.086778  0  -0.084669  -0.114509  0  3.970412  0
C  C53  1  0.52862066  0.14375676  0.45000334  1  -0.006312  0  -0.07876  -0.126355  0  3.933721  0
C  C54  1  0.71178801  0.16860808  0.46883524  1  -0.017518  0  -0.085532  -0.089306  0  3.994458  0
C  C55  1  0.43020628  0.80194098  0.43878866  1  -0.052405  0  0.002417  -0.046205  0  3.873927  0
C  C56  1  0.14350625  0.37109851  0.37888950  1  0.001088  0  -0.075024  -0.164995  0  3.947613  0
C  C57  1  0.75107210  0.61935004  0.59313741  1  0.476752  0  0.068283  0.122359  0  3.881182  0
C  C58  1  0.84673247  0.64697966  0.61535522  1  -0.015897  0  -0.076763  -0.125095  0  3.986314  0
C  C59  1  0.56270381  0.51211009  0.34044491  1  1.601726  0  0.213267  0.582704  0  4.200115  0
C  C60  1  0.94580177  0.60355129  0.57953041  1  -0.10762  0  -0.058782  -0.074852  0  3.956443  0
C  C61  1  0.94942397  0.53386932  0.52016093  1  0.04117  0  0.008695  0.003778  0  3.961605  0
C  C62  1  0.84903369  0.51133966  0.49926861  1  0.493803  0  0.128703  0.213227  0  3.936221  0
C  C63  1  0.04908306  0.48439922  0.47935840  1  -0.047988  0  0.002148  -0.012729  0  3.963369  0
C  C64  1  0.04503661  0.41804484  0.41751518  1  -0.00902  0  0.012725  0.107298  0  4.014884  0
C  C65  1  0.94233985  0.40045239  0.39708675  1  -0.032877  0  -0.074868  -0.110199  0  3.961835  0
C  C66  1  0.84807133  0.44469893  0.43669742  1  0.013467  0  -0.068292  -0.120783  0  3.928429  0
C  C67  1  0.15186042  0.49738512  0.49885187  1  0.538486  0  0.066488  0.064289  0  3.894576  0
C  C68  1  0.24021531  0.38940972  0.40197807  1  0.436679  0  0.045914  0.089528  0  3.924005  0
C  C69  1  0.39950470  0.44797791  0.76512848  1  0.048512  0  0.001705  -0.001869  0  3.930829  0
C  C70  1  0.60097511  0.52312043  0.24566702  1  -0.047285  0  -0.007188  -0.057541  0  3.935599  0
C  C71  1  0.33353594  0.32684012  0.88639654  1  0.036315  0  -0.078143  -0.116331  0  3.974944  0
C  C72  1  0.34421546  0.36077393  0.79929808  1  -0.1286  0  -0.078281  -0.093586  0  3.971887  0
C  C73  1  0.44421481  0.49931804  0.81981729  1  -0.162923  0  -0.007658  -0.153817  0  3.849501  0
C  C74  1  0.36078313  0.11387736  0.34639511  1  0.829049  0  0.184451  0.24715  0  4.051329  0
C  C75  1  0.75916632  0.62116249  0.25492523  1  0.866345  0  0.174927  0.248479  0  4.034194  0
S  S76  1  0.46336074  0.63273151  0.77972699  1  3.047006  0  0.543478  1.157511  0  5.937929  0
N  N77  1  0.24354427  0.45152643  0.46175352  1  -1.245008  0  -0.325737  -0.200578  0  3.558249  0
N  N78  1  0.75205226  0.55311763  0.53767937  1  -1.214232  0  -0.313368  -0.245965  0  3.456801  0
N  N79  1  0.33944133  0.19385860  0.30767918  1  -1.169566  0  -0.31586  -0.391041  0  2.769095  0
N  N80  1  0.82118848  0.65926410  0.28505194  1  -1.146199  0  -0.328124  -0.38247  0  2.703905  0
O  O81  1  0.37778711  0.63259865  0.46194459  1  -1.173267  0  -0.317988  -0.55139  0  2.316804  0
O  O82  1  0.52668326  0.66284452  0.51517645  1  -1.157604  0  -0.307591  -0.538373  0  2.369639  0
O  O83  1  0.34670509  0.47602107  0.62400727  1  -1.155587  0  -0.312631  -0.534298  0  2.28482  0
O  O84  1  0.52176792  0.48669602  0.64195859  1  -1.155092  0  -0.310151  -0.544678  0  2.350881  0
O  O85  1  0.45720530  0.32753393  0.51296723  1  -1.141131  0  -0.319699  -0.543074  0  2.313369  0
O  O86  1  0.63100074  0.36441072  0.50694291  1  -1.174356  0  -0.317431  -0.55357  0  2.359222  0
O  O87  1  0.47461242  0.47127337  0.36725440  1  -1.164672  0  -0.308042  -0.536339  0  2.333279  0
O  O88  1  0.62178204  0.54577724  0.38615200  1  -1.170593  0  -0.302552  -0.540059  0  2.379798  0
O  O89  1  0.57494488  0.65241277  0.74879352  1  -1.299597  0  -0.309464  -0.543882  0  2.199422  0
O  O90  1  0.38043156  0.66883859  0.72717859  1  -1.27129  0  -0.297911  -0.488737  0  2.111423  0
O  O91  1  0.42545477  0.68553214  0.86586571  1  -1.191519  0  -0.365447  -0.526028  0  2.147955  0
