# generated using pymatgen
data_KScH4(C2O5)2
_symmetry_space_group_name_H-M   'P 1'
_cell_length_a   8.87554328
_cell_length_b   8.87561557
_cell_length_c   11.61068025
_cell_angle_alpha   90.00004022
_cell_angle_beta   89.99965942
_cell_angle_gamma   120.00074459
_symmetry_Int_Tables_number   1
_chemical_formula_structural   KScH4(C2O5)2
_chemical_formula_sum   'K3 Sc3 H12 C12 O30'
_cell_volume   792.09718100
_cell_formula_units_Z   3
loop_
 _symmetry_equiv_pos_site_id
 _symmetry_equiv_pos_as_xyz
  1  'x, y, z'
loop_
 _atom_site_type_symbol
 _atom_site_label
 _atom_site_symmetry_multiplicity
 _atom_site_fract_x
 _atom_site_fract_y
 _atom_site_fract_z
 _atom_site_occupancy
 _atom_site_hle17_bader_spin_density
 _atom_site_hle17_ddec_charge
 _atom_site_hle17_ddec_spin_density
 _atom_site_hle17_ddec_sum_bond_order
 _atom_site_hle17_magmom
 _atom_site_hse06_10hf_bader_spin_density
 _atom_site_hse06_10hf_ddec_charge
 _atom_site_hse06_10hf_ddec_spin_density
 _atom_site_hse06_10hf_ddec_sum_bond_order
 _atom_site_hse06_10hf_magmom
 _atom_site_hse06_bader_spin_density
 _atom_site_hse06_ddec_charge
 _atom_site_hse06_ddec_spin_density
 _atom_site_hse06_ddec_sum_bond_order
 _atom_site_hse06_magmom
 _atom_site_pbe_bader_spin_density
 _atom_site_pbe_cm5_charge
 _atom_site_pbe_ddec_charge
 _atom_site_pbe_ddec_spin_density
 _atom_site_pbe_ddec_sum_bond_order
 _atom_site_pbe_magmom
K  K0  1  0.00000436  0.00000012  0.33332328  1  0  0.936224  0  0.414876  0  0  0.891941  0  0.58448  0  0  0.906272  0  0.559069  0  0  0.730856  0.880764  0  0.603287  0
K  K1  1  0.99999983  0.00000023  0.66667727  1  0  0.936233  0  0.414854  0  0  0.891966  0  0.584451  0  0  0.906297  0  0.559039  0  0  0.730831  0.880792  0  0.603256  0
K  K2  1  0.00000160  0.00000059  0.99999137  1  0  0.936259  0  0.414874  0  0  0.891969  0  0.584481  0  0  0.906293  0  0.55908  0  0  0.730878  0.880798  0  0.603284  0
Sc  Sc3  1  0.50000072  0.50000157  0.33333347  1  0  1.85458  0  1.653884  0  0  1.763358  0  2.02193  0  0  1.871636  0  1.935762  0  0  1.18512  1.685391  0  2.082072  0
Sc  Sc4  1  0.99999534  0.49999750  0.66666250  1  0  1.854562  0  1.653783  0  0  1.763535  0  2.021534  0  0  1.871735  0  1.935506  0  0  1.185212  1.68552  0  2.081773  0
Sc  Sc5  1  0.49999408  0.99999742  0.00000688  1  0  1.854562  0  1.653953  0  0  1.763399  0  2.021887  0  0  1.871616  0  1.935854  0  0  1.185169  1.685464  0  2.081977  0
H  H6  1  0.09912278  0.34772529  0.18378410  1  0  0.423898  0  0.870924  0  0  0.396093  0  0.929297  0  0  0.40697  0  0.912933  0  0  0.29154  0.388282  0  0.941073  0
H  H7  1  0.90087881  0.65227973  0.18378149  1  0  0.423922  0  0.870885  0  0  0.396127  0  0.929239  0  0  0.407003  0  0.912876  0  0  0.291558  0.388315  0  0.941015  0
H  H8  1  0.65232086  0.90087440  0.48286796  1  0  0.423649  0  0.871266  0  0  0.395931  0  0.929471  0  0  0.406808  0  0.913111  0  0  0.291525  0.388135  0  0.941218  0
H  H9  1  0.34768996  0.09912857  0.48286672  1  0  0.423803  0  0.871071  0  0  0.396048  0  0.929346  0  0  0.406927  0  0.912983  0  0  0.291558  0.388243  0  0.941111  0
H  H10  1  0.75138427  0.65227146  0.81621334  1  0  0.424013  0  0.870771  0  0  0.39619  0  0.929172  0  0  0.407068  0  0.912805  0  0  0.291565  0.38838  0  0.940947  0
H  H11  1  0.24862504  0.34773974  0.81621096  1  0  0.424005  0  0.870806  0  0  0.396192  0  0.92919  0  0  0.407069  0  0.912825  0  0  0.291512  0.388383  0  0.940965  0
H  H12  1  0.09911715  0.75139733  0.14952265  1  0  0.423958  0  0.870841  0  0  0.396149  0  0.929214  0  0  0.407027  0  0.912848  0  0  0.291552  0.388337  0  0.940991  0
H  H13  1  0.90088703  0.24861009  0.14952241  1  0  0.423951  0  0.870839  0  0  0.396158  0  0.92918  0  0  0.407034  0  0.912817  0  0  0.291559  0.38835  0  0.940952  0
H  H14  1  0.65226158  0.75138329  0.85047429  1  0  0.423997  0  0.870816  0  0  0.396191  0  0.92918  0  0  0.407069  0  0.912815  0  0  0.291521  0.388379  0  0.94096  0
H  H15  1  0.34774384  0.24862683  0.85047571  1  0  0.424029  0  0.870786  0  0  0.396249  0  0.929099  0  0  0.407126  0  0.912735  0  0  0.291536  0.388442  0  0.940868  0
H  H16  1  0.75143399  0.09911339  0.51712219  1  0  0.423697  0  0.871144  0  0  0.395965  0  0.929382  0  0  0.406841  0  0.913022  0  0  0.29154  0.388163  0  0.941139  0
H  H17  1  0.24857893  0.90088928  0.51712441  1  0  0.423685  0  0.871159  0  0  0.39596  0  0.929386  0  0  0.406837  0  0.913025  0  0  0.291535  0.388162  0  0.941137  0
C  C18  1  0.21032336  0.42064362  0.50000996  1  0  0.563732  0  3.920395  0  0  0.522207  0  4.2186  0  0  0.554242  0  4.212048  0  0  0.236901  0.500188  0  4.222551  0
C  C19  1  0.78967372  0.57935483  0.50000954  1  0  0.563692  0  3.920593  0  0  0.52222  0  4.218707  0  0  0.554253  0  4.212156  0  0  0.236881  0.500199  0  4.222656  0
C  C20  1  0.57935168  0.78966897  0.16666268  1  0  0.563702  0  3.920191  0  0  0.522162  0  4.21845  0  0  0.55419  0  4.211904  0  0  0.236877  0.500145  0  4.222402  0
C  C21  1  0.42064574  0.21032919  0.16666289  1  0  0.563699  0  3.920159  0  0  0.522137  0  4.218436  0  0  0.554165  0  4.211888  0  0  0.236832  0.500119  0  4.222392  0
C  C22  1  0.21031525  0.78967440  0.83333420  1  0  0.563613  0  3.920354  0  0  0.522112  0  4.218566  0  0  0.554146  0  4.212011  0  0  0.236778  0.500095  0  4.222517  0
C  C23  1  0.78967539  0.21031693  0.83333186  1  0  0.563596  0  3.920451  0  0  0.522101  0  4.218635  0  0  0.554136  0  4.21208  0  0  0.236826  0.500085  0  4.222586  0
C  C24  1  0.30991807  0.61982632  0.50000806  1  0  0.563792  0  3.922119  0  0  0.518354  0  4.223303  0  0  0.550632  0  4.216156  0  0  0.230977  0.496268  0  4.22751  0
C  C25  1  0.69008192  0.38017373  0.50000541  1  0  0.563719  0  3.922188  0  0  0.518273  0  4.223359  0  0  0.550549  0  4.216215  0  0  0.230862  0.496188  0  4.227563  0
C  C26  1  0.38017554  0.69008635  0.16666742  1  0  0.563822  0  3.922068  0  0  0.518389  0  4.223247  0  0  0.55067  0  4.216097  0  0  0.230955  0.4963  0  4.227458  0
C  C27  1  0.61982045  0.30990647  0.16666505  1  0  0.563723  0  3.922309  0  0  0.518291  0  4.223495  0  0  0.550571  0  4.216347  0  0  0.230927  0.496199  0  4.227708  0
C  C28  1  0.30990955  0.69008848  0.83333222  1  0  0.563858  0  3.922116  0  0  0.518363  0  4.22338  0  0  0.550643  0  4.21623  0  0  0.23094  0.496278  0  4.227586  0
C  C29  1  0.69008157  0.30990463  0.83333297  1  0  0.563816  0  3.92228  0  0  0.518361  0  4.223492  0  0  0.55064  0  4.216344  0  0  0.230927  0.496274  0  4.227698  0
O  O30  1  0.26554925  0.34564115  0.43416440  1  0  -0.618301  0  2.098172  0  0  -0.57941  0  2.347321  0  0  -0.612945  0  2.341708  0  0  -0.353188  -0.555726  0  2.350699  0
O  O31  1  0.73445736  0.65435994  0.43415997  1  0  -0.618266  0  2.098277  0  0  -0.579408  0  2.347427  0  0  -0.612943  0  2.341814  0  0  -0.353157  -0.555724  0  2.350803  0
O  O32  1  0.65436846  0.73445116  0.23249413  1  0  -0.618341  0  2.098187  0  0  -0.579389  0  2.347255  0  0  -0.612922  0  2.341641  0  0  -0.353228  -0.555706  0  2.350631  0
O  O33  1  0.34563170  0.26555012  0.23249557  1  0  -0.618338  0  2.098141  0  0  -0.579408  0  2.347241  0  0  -0.612939  0  2.341626  0  0  -0.353229  -0.555725  0  2.350618  0
O  O34  1  0.91990821  0.65435319  0.56583831  1  0  -0.618284  0  2.098441  0  0  -0.579441  0  2.347556  0  0  -0.612963  0  2.34194  0  0  -0.353233  -0.555753  0  2.350937  0
O  O35  1  0.08008758  0.34564565  0.56583842  1  0  -0.618313  0  2.098448  0  0  -0.579446  0  2.347571  0  0  -0.61297  0  2.341955  0  0  -0.353238  -0.555757  0  2.350955  0
O  O36  1  0.26554160  0.91990851  0.89917090  1  0  -0.618305  0  2.098214  0  0  -0.579412  0  2.347328  0  0  -0.612937  0  2.341717  0  0  -0.353175  -0.555733  0  2.350703  0
O  O37  1  0.73445178  0.08008594  0.89917133  1  0  -0.618287  0  2.098299  0  0  -0.579381  0  2.347387  0  0  -0.612906  0  2.341775  0  0  -0.35318  -0.555703  0  2.350762  0
O  O38  1  0.65436707  0.91990896  0.10083608  1  0  -0.618254  0  2.09822  0  0  -0.579362  0  2.347342  0  0  -0.612886  0  2.341733  0  0  -0.353184  -0.555684  0  2.350716  0
O  O39  1  0.34562631  0.08008737  0.10083829  1  0  -0.618296  0  2.098274  0  0  -0.579345  0  2.347346  0  0  -0.612869  0  2.341735  0  0  -0.353187  -0.555666  0  2.35072  0
O  O40  1  0.91991588  0.26555255  0.76750339  1  0  -0.618227  0  2.098286  0  0  -0.57938  0  2.347422  0  0  -0.612903  0  2.341806  0  0  -0.353189  -0.555692  0  2.350802  0
O  O41  1  0.08008134  0.73444887  0.76750285  1  0  -0.618283  0  2.098267  0  0  -0.57939  0  2.347344  0  0  -0.612913  0  2.34173  0  0  -0.353167  -0.555702  0  2.350722  0
O  O42  1  0.44935849  0.69146277  0.44195862  1  0  -0.615817  0  2.056654  0  0  -0.56936  0  2.286408  0  0  -0.601633  0  2.278905  0  0  -0.304283  -0.54659  0  2.291076  0
O  O43  1  0.55064579  0.30853604  0.44195312  1  0  -0.615741  0  2.056636  0  0  -0.569318  0  2.286435  0  0  -0.60159  0  2.278934  0  0  -0.304216  -0.546544  0  2.291102  0
O  O44  1  0.30854224  0.55065966  0.22472443  1  0  -0.615734  0  2.056697  0  0  -0.569316  0  2.286536  0  0  -0.601588  0  2.27903  0  0  -0.304243  -0.546538  0  2.291206  0
O  O45  1  0.69145592  0.44933696  0.22472009  1  0  -0.615696  0  2.056624  0  0  -0.569272  0  2.286445  0  0  -0.601545  0  2.278942  0  0  -0.304229  -0.546494  0  2.291115  0
O  O46  1  0.75787283  0.30853475  0.55804318  1  0  -0.615612  0  2.056778  0  0  -0.569207  0  2.286544  0  0  -0.601464  0  2.279043  0  0  -0.304193  -0.546433  0  2.291214  0
O  O47  1  0.24212369  0.69146347  0.55804446  1  0  -0.615584  0  2.056816  0  0  -0.569218  0  2.28661  0  0  -0.601477  0  2.27911  0  0  -0.304228  -0.546445  0  2.291279  0
O  O48  1  0.44934071  0.75788462  0.89138709  1  0  -0.615738  0  2.05664  0  0  -0.569278  0  2.286479  0  0  -0.601545  0  2.278983  0  0  -0.304225  -0.546503  0  2.291148  0
O  O49  1  0.55064919  0.24210891  0.89139016  1  0  -0.615791  0  2.056773  0  0  -0.569364  0  2.286599  0  0  -0.601633  0  2.279105  0  0  -0.30423  -0.546591  0  2.291266  0
O  O50  1  0.30855271  0.75789343  0.10862449  1  0  -0.615727  0  2.056725  0  0  -0.569289  0  2.286538  0  0  -0.601553  0  2.279038  0  0  -0.304246  -0.546514  0  2.291205  0
O  O51  1  0.69144224  0.24209672  0.10862434  1  0  -0.61566  0  2.057065  0  0  -0.56923  0  2.286877  0  0  -0.601495  0  2.279378  0  0  -0.304198  -0.546456  0  2.291544  0
O  O52  1  0.75786421  0.44932637  0.77528630  1  0  -0.615649  0  2.056821  0  0  -0.569238  0  2.286647  0  0  -0.601498  0  2.279148  0  0  -0.304202  -0.546459  0  2.291317  0
O  O53  1  0.24212552  0.55066891  0.77527975  1  0  -0.61572  0  2.056807  0  0  -0.569279  0  2.286644  0  0  -0.60154  0  2.279146  0  0  -0.304188  -0.546499  0  2.291315  0
O  O54  1  0.00000850  0.23191736  0.16664146  1  0  -0.902719  0  1.759921  0  0  -0.863097  0  1.912682  0  0  -0.878854  0  1.878341  0  0  -0.694051  -0.85172  0  1.937107  0
O  O55  1  0.99999438  0.76808886  0.16664191  1  0  -0.902745  0  1.759911  0  0  -0.863127  0  1.912676  0  0  -0.878884  0  1.878332  0  0  -0.694067  -0.851747  0  1.937107  0
O  O56  1  0.76813671  0.99999682  0.49999850  1  0  -0.902207  0  1.760582  0  0  -0.862672  0  1.91328  0  0  -0.878436  0  1.878934  0  0  -0.694023  -0.851302  0  1.937688  0
O  O57  1  0.23187815  0.00000639  0.50000032  1  0  -0.902375  0  1.760408  0  0  -0.862808  0  1.91309  0  0  -0.878573  0  1.878744  0  0  -0.694051  -0.851437  0  1.937503  0
O  O58  1  0.76807385  0.76807859  0.83334411  1  0  -0.902877  0  1.759759  0  0  -0.863252  0  1.912558  0  0  -0.87901  0  1.878212  0  0  -0.69403  -0.851874  0  1.93699  0
O  O59  1  0.23193352  0.23193207  0.83334347  1  0  -0.902903  0  1.759784  0  0  -0.863295  0  1.91257  0  0  -0.879053  0  1.878221  0  0  -0.693994  -0.851919  0  1.936998  0
