# generated using pymatgen
data_SrH4C6N2O5
_symmetry_space_group_name_H-M   'P 1'
_cell_length_a   6.56823281
_cell_length_b   7.02136341
_cell_length_c   15.96026611
_cell_angle_alpha   89.99995064
_cell_angle_beta   89.99942929
_cell_angle_gamma   93.96716093
_symmetry_Int_Tables_number   1
_chemical_formula_structural   SrH4C6N2O5
_chemical_formula_sum   'Sr4 H16 C24 N8 O20'
_cell_volume   734.29106134
_cell_formula_units_Z   4
loop_
 _symmetry_equiv_pos_site_id
 _symmetry_equiv_pos_as_xyz
  1  'x, y, z'
loop_
 _atom_site_type_symbol
 _atom_site_label
 _atom_site_symmetry_multiplicity
 _atom_site_fract_x
 _atom_site_fract_y
 _atom_site_fract_z
 _atom_site_occupancy
 _atom_site_hle17_bader_spin_density
 _atom_site_hle17_ddec_charge
 _atom_site_hle17_ddec_spin_density
 _atom_site_hle17_ddec_sum_bond_order
 _atom_site_hle17_magmom
 _atom_site_hse06_10hf_bader_spin_density
 _atom_site_hse06_10hf_ddec_charge
 _atom_site_hse06_10hf_ddec_spin_density
 _atom_site_hse06_10hf_ddec_sum_bond_order
 _atom_site_hse06_10hf_magmom
 _atom_site_hse06_bader_spin_density
 _atom_site_hse06_ddec_charge
 _atom_site_hse06_ddec_spin_density
 _atom_site_hse06_ddec_sum_bond_order
 _atom_site_hse06_magmom
 _atom_site_pbe_bader_spin_density
 _atom_site_pbe_cm5_charge
 _atom_site_pbe_ddec_charge
 _atom_site_pbe_ddec_spin_density
 _atom_site_pbe_ddec_sum_bond_order
 _atom_site_pbe_magmom
Sr  Sr0  1  0.74066569  0.54204798  0.41843000  1  0  1.577481  0  1.164819  0  0  1.425621  0  1.541957  0  0  1.464722  0  1.498907  0  0  0.983987  1.396803  0  1.572621  0
Sr  Sr1  1  0.25933810  0.95796380  0.91842572  1  0  1.577427  0  1.16489  0  0  1.425525  0  1.542063  0  0  1.464632  0  1.49901  0  0  0.983935  1.396701  0  1.572727  0
Sr  Sr2  1  0.25933576  0.45795270  0.58156926  1  0  1.577495  0  1.164772  0  0  1.425633  0  1.541908  0  0  1.46473  0  1.49886  0  0  0.983992  1.396813  0  1.572573  0
Sr  Sr3  1  0.74066323  0.04203545  0.08157291  1  0  1.577385  0  1.164947  0  0  1.425475  0  1.542126  0  0  1.464581  0  1.499073  0  0  0.983935  1.396649  0  1.572789  0
H  H4  1  0.60426713  0.98033511  0.39546380  1  0  0.378686  0  0.91799  0  0  0.353711  0  0.989074  0  0  0.364793  0  0.976827  0  0  0.302007  0.345911  0  0.997614  0
H  H5  1  0.39572820  0.51967823  0.89546474  1  0  0.378667  0  0.917984  0  0  0.353667  0  0.989117  0  0  0.364751  0  0.97686  0  0  0.301974  0.345865  0  0.997644  0
H  H6  1  0.39573302  0.01966843  0.60453672  1  0  0.37856  0  0.918137  0  0  0.35357  0  0.989254  0  0  0.364653  0  0.977005  0  0  0.301957  0.345765  0  0.997784  0
H  H7  1  0.60426846  0.48031962  0.10453515  1  0  0.378669  0  0.918012  0  0  0.353666  0  0.989155  0  0  0.364752  0  0.976892  0  0  0.301981  0.345863  0  0.997682  0
H  H8  1  0.29349734  0.02833196  0.43000099  1  0  0.078275  0  0.935592  0  0  0.088717  0  1.000888  0  0  0.09007  0  0.999022  0  0  0.117513  0.087772  0  1.002313  0
H  H9  1  0.70649634  0.47167486  0.93000551  1  0  0.078175  0  0.935613  0  0  0.088655  0  1.000936  0  0  0.090011  0  0.999062  0  0  0.117473  0.087714  0  1.002364  0
H  H10  1  0.70650551  0.97166728  0.56999827  1  0  0.078241  0  0.935621  0  0  0.088671  0  1.000923  0  0  0.090026  0  0.999061  0  0  0.117504  0.087728  0  1.002344  0
H  H11  1  0.29349890  0.52832443  0.06999375  1  0  0.078174  0  0.935556  0  0  0.088649  0  1.000888  0  0  0.090004  0  0.999015  0  0  0.117476  0.087709  0  1.002315  0
H  H12  1  0.24276824  0.79176218  0.46280869  1  0  0.083556  0  0.931679  0  0  0.097656  0  0.991598  0  0  0.099193  0  0.989784  0  0  0.12992  0.096595  0  0.992978  0
H  H13  1  0.75722500  0.70824520  0.96281309  1  0  0.08349  0  0.931664  0  0  0.097654  0  0.991567  0  0  0.099187  0  0.989761  0  0  0.129944  0.096595  0  0.992953  0
H  H14  1  0.75723344  0.20824135  0.53719182  1  0  0.083551  0  0.931683  0  0  0.097643  0  0.991603  0  0  0.099185  0  0.989792  0  0  0.129927  0.096582  0  0.992985  0
H  H15  1  0.24277306  0.29175121  0.03718805  1  0  0.083495  0  0.931617  0  0  0.09767  0  0.991512  0  0  0.099203  0  0.989703  0  0  0.129955  0.096611  0  0.992898  0
H  H16  1  0.44169735  0.94516416  0.24668717  1  0  0.326795  0  0.91019  0  0  0.301421  0  0.979853  0  0  0.311966  0  0.970553  0  0  0.317603  0.293912  0  0.986574  0
H  H17  1  0.55828849  0.55483839  0.74669119  1  0  0.326707  0  0.91032  0  0  0.301422  0  0.979881  0  0  0.311934  0  0.970639  0  0  0.317581  0.293975  0  0.986503  0
H  H18  1  0.55830105  0.05483653  0.75331209  1  0  0.326803  0  0.910205  0  0  0.301429  0  0.979869  0  0  0.311976  0  0.970564  0  0  0.317603  0.29392  0  0.986591  0
H  H19  1  0.44171132  0.44516086  0.25330995  1  0  0.326683  0  0.910336  0  0  0.301392  0  0.979888  0  0  0.311903  0  0.970647  0  0  0.317577  0.293944  0  0.986511  0
C  C20  1  0.31877936  0.87940911  0.41358002  1  0  0.054427  0  3.66288  0  0  -0.000373  0  3.925222  0  0  0.006383  0  3.926041  0  0  -0.043342  -0.005339  0  3.925059  0
C  C21  1  0.68120700  0.62059279  0.91358476  1  0  0.05474  0  3.663013  0  0  -0.000307  0  3.925468  0  0  0.006454  0  3.926288  0  0  -0.043412  -0.005304  0  3.925348  0
C  C22  1  0.68121904  0.12059158  0.58641924  1  0  0.05438  0  3.663119  0  0  -0.000393  0  3.925423  0  0  0.006345  0  3.926268  0  0  -0.043416  -0.005364  0  3.925263  0
C  C23  1  0.31879586  0.37940645  0.08641638  1  0  0.054734  0  3.662878  0  0  -0.000288  0  3.925402  0  0  0.006473  0  3.926225  0  0  -0.043422  -0.005287  0  3.925284  0
C  C24  1  0.19781718  0.86699508  0.10556222  1  0  0.650318  0  3.979716  0  0  0.600915  0  4.278752  0  0  0.63557  0  4.268442  0  0  0.217079  0.577352  0  4.285061  0
C  C25  1  0.80217584  0.63299799  0.60556458  1  0  0.650342  0  3.979656  0  0  0.600966  0  4.278716  0  0  0.635622  0  4.268403  0  0  0.217145  0.5774  0  4.28502  0
C  C26  1  0.80218298  0.13300846  0.89443829  1  0  0.650295  0  3.979765  0  0  0.600905  0  4.278771  0  0  0.635562  0  4.268459  0  0  0.217059  0.577342  0  4.285081  0
C  C27  1  0.19782503  0.36699555  0.39443406  1  0  0.650243  0  3.979777  0  0  0.600882  0  4.27879  0  0  0.635539  0  4.268477  0  0  0.217054  0.577318  0  4.285093  0
C  C28  1  0.15418168  0.82514260  0.19500444  1  0  0.00728  0  3.657199  0  0  -0.008459  0  3.922031  0  0  -0.01026  0  3.940203  0  0  0.093918  -0.007326  0  3.90986  0
C  C29  1  0.84581385  0.67485153  0.69500409  1  0  0.007349  0  3.657041  0  0  -0.008499  0  3.922021  0  0  -0.010303  0  3.940188  0  0  0.093827  -0.00736  0  3.909854  0
C  C30  1  0.84581966  0.17485665  0.80499608  1  0  0.007301  0  3.657255  0  0  -0.008429  0  3.922099  0  0  -0.01023  0  3.940271  0  0  0.093902  -0.007294  0  3.909928  0
C  C31  1  0.15418444  0.32514774  0.30499579  1  0  0.007336  0  3.657207  0  0  -0.008521  0  3.922132  0  0  -0.010326  0  3.940298  0  0  0.093878  -0.007384  0  3.909966  0
C  C32  1  0.98454815  0.74352449  0.23869749  1  0  0.008255  0  3.735809  0  0  0.001699  0  4.002308  0  0  0.00082  0  4.021614  0  0  0.089887  0.002288  0  3.989257  0
C  C33  1  0.01545218  0.75646658  0.73869742  1  0  0.0083  0  3.735629  0  0  0.001756  0  4.002105  0  0  0.000879  0  4.021413  0  0  0.089967  0.002343  0  3.989052  0
C  C34  1  0.01545178  0.25647620  0.76130365  1  0  0.008283  0  3.735873  0  0  0.001649  0  4.002422  0  0  0.000771  0  4.021729  0  0  0.089864  0.002236  0  3.989374  0
C  C35  1  0.98454599  0.24353126  0.26130246  1  0  0.00823  0  3.735819  0  0  0.0017  0  4.00229  0  0  0.000824  0  4.021597  0  0  0.089883  0.002289  0  3.989237  0
C  C36  1  0.78333786  0.65452981  0.21004865  1  0  0.671609  0  3.890308  0  0  0.616085  0  4.196504  0  0  0.650998  0  4.18517  0  0  0.229271  0.592307  0  4.203648  0
C  C37  1  0.21666095  0.84545281  0.71004709  1  0  0.671307  0  3.890661  0  0  0.61588  0  4.196683  0  0  0.650791  0  4.185357  0  0  0.229194  0.592104  0  4.203817  0
C  C38  1  0.21666055  0.34547089  0.78995123  1  0  0.671471  0  3.89051  0  0  0.616049  0  4.196572  0  0  0.650962  0  4.185238  0  0  0.229238  0.592271  0  4.203718  0
C  C39  1  0.78333745  0.15454788  0.28995279  1  0  0.671532  0  3.890518  0  0  0.616055  0  4.196618  0  0  0.650966  0  4.185286  0  0  0.22922  0.59228  0  4.203754  0
C  C40  1  0.21476653  0.83065343  0.33179902  1  0  0.35949  0  3.676145  0  0  0.326351  0  3.961788  0  0  0.340261  0  3.97556  0  0  0.231251  0.31734  0  3.952142  0
C  C41  1  0.78523106  0.66935015  0.83180332  1  0  0.359272  0  3.676335  0  0  0.326409  0  3.961684  0  0  0.340318  0  3.975453  0  0  0.231259  0.317406  0  3.952049  0
C  C42  1  0.78523352  0.16934868  0.66820149  1  0  0.359506  0  3.676155  0  0  0.326362  0  3.961795  0  0  0.340277  0  3.975572  0  0  0.231241  0.317354  0  3.952148  0
C  C43  1  0.21476875  0.33064911  0.16819782  1  0  0.359248  0  3.676143  0  0  0.326212  0  3.961716  0  0  0.340119  0  3.97549  0  0  0.231189  0.317211  0  3.952078  0
N  N44  1  0.29617528  0.87700336  0.25594297  1  0  -0.317687  0  3.365135  0  0  -0.261076  0  3.603122  0  0  -0.277057  0  3.616483  0  0  -0.355889  -0.25038  0  3.594298  0
N  N45  1  0.70382216  0.62299480  0.75594636  1  0  -0.317675  0  3.365126  0  0  -0.261162  0  3.603011  0  0  -0.277121  0  3.616408  0  0  -0.35585  -0.250509  0  3.594124  0
N  N46  1  0.70382476  0.12299875  0.74405755  1  0  -0.317752  0  3.365214  0  0  -0.261137  0  3.603194  0  0  -0.27712  0  3.616551  0  0  -0.355897  -0.250444  0  3.594376  0
N  N47  1  0.29617917  0.37700445  0.24405478  1  0  -0.317668  0  3.365192  0  0  -0.261042  0  3.603046  0  0  -0.277  0  3.616445  0  0  -0.35586  -0.250391  0  3.594163  0
N  N48  1  0.02651644  0.74710873  0.32354016  1  0  -0.498957  0  3.073112  0  0  -0.457319  0  3.34806  0  0  -0.474586  0  3.364925  0  0  -0.376745  -0.445414  0  3.336299  0
N  N49  1  0.97348428  0.75289343  0.82354115  1  0  -0.498789  0  3.073008  0  0  -0.457244  0  3.347875  0  0  -0.47451  0  3.364739  0  0  -0.376685  -0.445339  0  3.336111  0
N  N50  1  0.97348372  0.25289481  0.67646097  1  0  -0.498936  0  3.073083  0  0  -0.457268  0  3.348021  0  0  -0.474534  0  3.364885  0  0  -0.3767  -0.445362  0  3.33626  0
N  N51  1  0.02651390  0.24710441  0.17645999  1  0  -0.498719  0  3.072996  0  0  -0.457103  0  3.347872  0  0  -0.474368  0  3.364737  0  0  -0.376611  -0.4452  0  3.336108  0
O  O52  1  0.37803257  0.92927971  0.08496381  1  0  -0.726476  0  2.00682  0  0  -0.664906  0  2.265045  0  0  -0.690325  0  2.252979  0  0  -0.406346  -0.646981  0  2.272927  0
O  O53  1  0.62196083  0.57071201  0.58496631  1  0  -0.72652  0  2.006802  0  0  -0.664962  0  2.265001  0  0  -0.690378  0  2.252928  0  0  -0.406422  -0.647035  0  2.272888  0
O  O54  1  0.62196793  0.07072812  0.91503733  1  0  -0.726465  0  2.006937  0  0  -0.664931  0  2.26521  0  0  -0.690352  0  2.253146  0  0  -0.406321  -0.647004  0  2.27309  0
O  O55  1  0.37804274  0.42927723  0.41503045  1  0  -0.726501  0  2.006772  0  0  -0.664953  0  2.26498  0  0  -0.690373  0  2.252913  0  0  -0.406368  -0.647026  0  2.272864  0
O  O56  1  0.53245583  0.85457650  0.41329136  1  0  -0.588689  0  2.0749  0  0  -0.532937  0  2.312543  0  0  -0.550158  0  2.299799  0  0  -0.425848  -0.520487  0  2.321239  0
O  O57  1  0.46754762  0.64542958  0.91329385  1  0  -0.588669  0  2.075116  0  0  -0.532882  0  2.312846  0  0  -0.550104  0  2.300099  0  0  -0.425784  -0.52042  0  2.321554  0
O  O58  1  0.46755007  0.14542272  0.58670852  1  0  -0.588479  0  2.075157  0  0  -0.532742  0  2.312818  0  0  -0.549959  0  2.300083  0  0  -0.425718  -0.520284  0  2.321514  0
O  O59  1  0.53245090  0.35457254  0.08670604  1  0  -0.588665  0  2.075203  0  0  -0.532878  0  2.312939  0  0  -0.5501  0  2.300191  0  0  -0.425776  -0.520415  0  2.321648  0
O  O60  1  0.68023508  0.55639845  0.26468080  1  0  -0.68524  0  2.056662  0  0  -0.626955  0  2.308284  0  0  -0.652393  0  2.297219  0  0  -0.371326  -0.609136  0  2.315626  0
O  O61  1  0.31977036  0.94358820  0.76467565  1  0  -0.68526  0  2.056873  0  0  -0.626899  0  2.308374  0  0  -0.652352  0  2.297306  0  0  -0.371276  -0.609054  0  2.31572  0
O  O62  1  0.31976473  0.44360080  0.73531908  1  0  -0.685196  0  2.056756  0  0  -0.626924  0  2.308293  0  0  -0.652362  0  2.297228  0  0  -0.371304  -0.609103  0  2.315636  0
O  O63  1  0.68022653  0.05641250  0.23532486  1  0  -0.685329  0  2.056776  0  0  -0.626953  0  2.308306  0  0  -0.652403  0  2.297235  0  0  -0.371234  -0.609106  0  2.315651  0
O  O64  1  0.05510692  0.84454205  0.05164801  1  0  -0.729286  0  2.032935  0  0  -0.667247  0  2.276136  0  0  -0.692669  0  2.265877  0  0  -0.399782  -0.649362  0  2.282707  0
O  O65  1  0.94488847  0.65544550  0.55165164  1  0  -0.729347  0  2.032947  0  0  -0.667292  0  2.27611  0  0  -0.692705  0  2.265832  0  0  -0.399775  -0.649425  0  2.282731  0
O  O66  1  0.94489442  0.15545720  0.94835251  1  0  -0.729314  0  2.032855  0  0  -0.667275  0  2.276056  0  0  -0.692692  0  2.265782  0  0  -0.399809  -0.64939  0  2.282625  0
O  O67  1  0.05511427  0.34455232  0.44834824  1  0  -0.729292  0  2.032952  0  0  -0.667257  0  2.27613  0  0  -0.69267  0  2.265854  0  0  -0.399751  -0.649382  0  2.28273  0
O  O68  1  0.72297651  0.67755960  0.13528185  1  0  -0.649748  0  2.008398  0  0  -0.592816  0  2.242638  0  0  -0.61724  0  2.232153  0  0  -0.333134  -0.575774  0  2.249449  0
O  O69  1  0.27703043  0.82242612  0.63528130  1  0  -0.649549  0  2.008421  0  0  -0.592697  0  2.242614  0  0  -0.617116  0  2.232133  0  0  -0.333133  -0.575665  0  2.249449  0
O  O70  1  0.27702365  0.32244393  0.86471804  1  0  -0.649699  0  2.008441  0  0  -0.592799  0  2.242633  0  0  -0.617221  0  2.232149  0  0  -0.333101  -0.575754  0  2.24944  0
O  O71  1  0.72296763  0.17757029  0.36471733  1  0  -0.649654  0  2.008469  0  0  -0.5928  0  2.242699  0  0  -0.617219  0  2.232218  0  0  -0.333134  -0.57577  0  2.249534  0
