# generated using pymatgen
data_UH16C16(NO3)2
_symmetry_space_group_name_H-M   'P 1'
_cell_length_a   7.41936743
_cell_length_b   9.98809421
_cell_length_c   12.15798997
_cell_angle_alpha   89.42796495
_cell_angle_beta   99.69525912
_cell_angle_gamma   105.52431443
_symmetry_Int_Tables_number   1
_chemical_formula_structural   UH16C16(NO3)2
_chemical_formula_sum   'U2 H32 C32 N4 O12'
_cell_volume   855.11881208
_cell_formula_units_Z   2
loop_
 _symmetry_equiv_pos_site_id
 _symmetry_equiv_pos_as_xyz
  1  'x, y, z'
loop_
 _atom_site_type_symbol
 _atom_site_label
 _atom_site_symmetry_multiplicity
 _atom_site_fract_x
 _atom_site_fract_y
 _atom_site_fract_z
 _atom_site_occupancy
 _atom_site_hle17_bader_spin_density
 _atom_site_hle17_ddec_charge
 _atom_site_hle17_ddec_spin_density
 _atom_site_hle17_ddec_sum_bond_order
 _atom_site_hle17_magmom
 _atom_site_hse06_10hf_bader_spin_density
 _atom_site_hse06_10hf_ddec_charge
 _atom_site_hse06_10hf_ddec_spin_density
 _atom_site_hse06_10hf_ddec_sum_bond_order
 _atom_site_hse06_10hf_magmom
 _atom_site_hse06_bader_spin_density
 _atom_site_hse06_ddec_charge
 _atom_site_hse06_ddec_spin_density
 _atom_site_hse06_ddec_sum_bond_order
 _atom_site_hse06_magmom
 _atom_site_pbe_bader_spin_density
 _atom_site_pbe_cm5_charge
 _atom_site_pbe_ddec_charge
 _atom_site_pbe_ddec_spin_density
 _atom_site_pbe_ddec_sum_bond_order
 _atom_site_pbe_magmom
U  U0  1  0.61644285  0.29538580  0.24929069  1  0  2.294699  0  4.203358  0  0  2.32856  0  4.871029  0  0  2.436515  0  4.842237  0  0  2.157262  2.255212  0  4.889648  0
U  U1  1  0.38355170  0.70461177  0.75071183  1  0  2.294719  0  4.203511  0  0  2.328657  0  4.871124  0  0  2.436524  0  4.842463  0  0  2.157396  2.255232  0  4.889896  0
H  H2  1  0.93798008  0.94030927  0.18930102  1  0  0.099765  0  0.920458  0  0  0.116907  0  0.977369  0  0  0.118352  0  0.97752  0  0  0.102478  0.115916  0  0.97731  0
H  H3  1  0.06201520  0.05969039  0.81069909  1  0  0.099722  0  0.920513  0  0  0.116887  0  0.977407  0  0  0.118334  0  0.977556  0  0  0.10249  0.115903  0  0.977344  0
H  H4  1  0.08654524  0.10585779  0.17721844  1  0  0.12212  0  0.929095  0  0  0.141687  0  0.98109  0  0  0.143691  0  0.980338  0  0  0.111737  0.140305  0  0.981708  0
H  H5  1  0.91345854  0.89413886  0.82278009  1  0  0.122095  0  0.929079  0  0  0.141668  0  0.981076  0  0  0.143674  0  0.980323  0  0  0.111728  0.140285  0  0.981695  0
H  H6  1  0.88174280  0.10614220  0.97833634  1  0  0.059839  0  0.950298  0  0  0.077196  0  1.01445  0  0  0.078539  0  1.013577  0  0  0.088457  0.076086  0  1.015394  0
H  H7  1  0.11825769  0.89386065  0.02166101  1  0  0.059868  0  0.950342  0  0  0.077229  0  1.014475  0  0  0.078578  0  1.013591  0  0  0.088452  0.076117  0  1.015417  0
H  H8  1  0.78554192  0.92821606  0.99146946  1  0  0.078757  0  0.93378  0  0  0.097088  0  0.992607  0  0  0.098331  0  0.992891  0  0  0.097195  0.096258  0  0.992292  0
H  H9  1  0.21445885  0.07178367  0.00852957  1  0  0.078805  0  0.933733  0  0  0.09714  0  0.99254  0  0  0.098379  0  0.992831  0  0  0.097212  0.09631  0  0.992226  0
H  H10  1  0.08728450  0.29515580  0.99477434  1  0  0.102261  0  0.937406  0  0  0.120746  0  0.993287  0  0  0.121514  0  0.994325  0  0  0.107358  0.12012  0  0.992688  0
H  H11  1  0.91271590  0.70484286  0.00522877  1  0  0.10227  0  0.937449  0  0  0.120762  0  0.993322  0  0  0.121528  0  0.994361  0  0  0.107377  0.120137  0  0.992721  0
H  H12  1  0.23320631  0.41848271  0.92129302  1  0  0.109734  0  0.941198  0  0  0.121995  0  1.004549  0  0  0.124536  0  1.00296  0  0  0.108242  0.120248  0  1.005665  0
H  H13  1  0.76678961  0.58151489  0.07870717  1  0  0.109708  0  0.94117  0  0  0.121981  0  1.004526  0  0  0.124519  0  1.002937  0  0  0.10822  0.120231  0  1.005642  0
H  H14  1  0.07708835  0.49401158  0.12378446  1  0  0.073133  0  0.970698  0  0  0.094813  0  1.026181  0  0  0.096104  0  1.025644  0  0  0.090543  0.093869  0  1.026681  0
H  H15  1  0.92291315  0.50599023  0.87621546  1  0  0.073135  0  0.97069  0  0  0.094802  0  1.026185  0  0  0.096095  0  1.025642  0  0  0.090535  0.093861  0  1.026684  0
H  H16  1  0.19069727  0.61170252  0.03013748  1  0  0.073426  0  0.927638  0  0  0.091755  0  0.9884  0  0  0.092971  0  0.988156  0  0  0.095695  0.090541  0  0.989029  0
H  H17  1  0.80930423  0.38829929  0.96986243  1  0  0.073419  0  0.927697  0  0  0.091752  0  0.988442  0  0  0.092965  0  0.988201  0  0  0.095695  0.090545  0  0.989065  0
H  H18  1  0.58901673  0.63081167  0.24934253  1  0  0.088485  0  0.94376  0  0  0.099475  0  1.000625  0  0  0.102615  0  0.997492  0  0  0.127497  0.097126  0  1.00295  0
H  H19  1  0.41098861  0.36919326  0.75065941  1  0  0.088513  0  0.943803  0  0  0.099505  0  1.000679  0  0  0.102648  0  0.997542  0  0  0.127494  0.097157  0  1.003003  0
H  H20  1  0.71913909  0.86112652  0.35245546  1  0  0.10608  0  0.954051  0  0  0.118294  0  1.010459  0  0  0.12117  0  1.010367  0  0  0.109427  0.116006  0  1.011023  0
H  H21  1  0.28085765  0.13887728  0.64754808  1  0  0.10599  0  0.954114  0  0  0.118222  0  1.01051  0  0  0.121097  0  1.010421  0  0  0.109422  0.11594  0  1.011067  0
H  H22  1  0.87092059  0.86469284  0.55630885  1  0  0.100971  0  0.934157  0  0  0.115473  0  0.987577  0  0  0.118149  0  0.985493  0  0  0.113738  0.113795  0  0.98846  0
H  H23  1  0.12907606  0.13530681  0.44369552  1  0  0.100931  0  0.934294  0  0  0.115421  0  0.987713  0  0  0.118098  0  0.98563  0  0  0.113744  0.113744  0  0.988594  0
H  H24  1  0.88174739  0.64267553  0.64364082  1  0  0.121424  0  0.954202  0  0  0.129999  0  1.016901  0  0  0.133741  0  1.014506  0  0  0.122731  0.127399  0  1.018658  0
H  H25  1  0.11825264  0.35732208  0.35636390  1  0  0.121414  0  0.954238  0  0  0.129969  0  1.016959  0  0  0.13371  0  1.014566  0  0  0.122737  0.127367  0  1.018716  0
H  H26  1  0.80687277  0.45241085  0.71280680  1  0  0.122224  0  0.970612  0  0  0.131179  0  1.0321  0  0  0.135417  0  1.028741  0  0  0.116304  0.128126  0  1.0347  0
H  H27  1  0.19311629  0.54758669  0.28719187  1  0  0.122257  0  0.970592  0  0  0.131199  0  1.032099  0  0  0.135438  0  1.028736  0  0  0.116287  0.128154  0  1.034679  0
H  H28  1  0.80405268  0.21774982  0.78417703  1  0  0.098905  0  0.928113  0  0  0.114545  0  0.978904  0  0  0.116829  0  0.97773  0  0  0.117939  0.112759  0  0.98  0
H  H29  1  0.19594013  0.78224673  0.21582037  1  0  0.098906  0  0.928045  0  0  0.114546  0  0.97883  0  0  0.11683  0  0.977658  0  0  0.117947  0.11276  0  0.979924  0
H  H30  1  0.72790907  0.01622890  0.64587728  1  0  0.122788  0  0.985096  0  0  0.134619  0  1.042248  0  0  0.138257  0  1.040037  0  0  0.112387  0.132058  0  1.043909  0
H  H31  1  0.27209033  0.98377083  0.35411914  1  0  0.122712  0  0.985134  0  0  0.134592  0  1.042231  0  0  0.138227  0  1.040027  0  0  0.112408  0.132032  0  1.043894  0
H  H32  1  0.67206213  0.06331761  0.44190713  1  0  0.077858  0  0.958648  0  0  0.08505  0  1.025932  0  0  0.087583  0  1.023557  0  0  0.121743  0.082967  0  1.027826  0
H  H33  1  0.32794112  0.93668527  0.55808885  1  0  0.077897  0  0.958643  0  0  0.085093  0  1.025925  0  0  0.087622  0  1.023564  0  0  0.121751  0.083008  0  1.027823  0
C  C34  1  0.80508556  0.10477990  0.18457302  1  0  0.679338  0  3.818286  0  0  0.646451  0  4.11986  0  0  0.681833  0  4.113413  0  0  0.207023  0.622456  0  4.123092  0
C  C35  1  0.19492152  0.89522611  0.81542580  1  0  0.679182  0  3.818311  0  0  0.646293  0  4.119905  0  0  0.681676  0  4.113453  0  0  0.207021  0.622299  0  4.123126  0
C  C36  1  0.94344621  0.03796709  0.14530577  1  0  -0.255757  0  3.666472  0  0  -0.290003  0  3.909406  0  0  -0.295084  0  3.917172  0  0  -0.158309  -0.28655  0  3.903839  0
C  C37  1  0.05655456  0.96203263  0.85469408  1  0  -0.255623  0  3.666478  0  0  -0.289905  0  3.90945  0  0  -0.294991  0  3.91722  0  0  -0.158292  -0.286454  0  3.903878  0
C  C38  1  0.91354665  0.01410014  0.01894663  1  0  -0.089606  0  3.693386  0  0  -0.132927  0  3.961597  0  0  -0.133624  0  3.975502  0  0  -0.164017  -0.132204  0  3.951715  0
C  C39  1  0.08644927  0.98589748  0.98105109  1  0  -0.089698  0  3.693432  0  0  -0.132992  0  3.961631  0  0  -0.133688  0  3.975539  0  0  -0.164031  -0.132273  0  3.951753  0
C  C40  1  0.35751548  0.38357608  0.08549705  1  0  0.68131  0  3.812876  0  0  0.643296  0  4.123894  0  0  0.678797  0  4.118011  0  0  0.204703  0.619132  0  4.126744  0
C  C41  1  0.64248593  0.61642158  0.91450206  1  0  0.681322  0  3.81293  0  0  0.643301  0  4.123971  0  0  0.678801  0  4.118082  0  0  0.204727  0.619137  0  4.126811  0
C  C42  1  0.19000871  0.39893966  0.00332878  1  0  -0.253573  0  3.687528  0  0  -0.286399  0  3.929904  0  0  -0.29166  0  3.938085  0  0  -0.155967  -0.282587  0  3.923998  0
C  C43  1  0.80999581  0.60105906  0.99667228  1  0  -0.253487  0  3.687454  0  0  -0.286334  0  3.92982  0  0  -0.291588  0  3.937997  0  0  -0.15596  -0.282524  0  3.923916  0
C  C44  1  0.09645741  0.50701162  0.03653853  1  0  -0.088333  0  3.682408  0  0  -0.131683  0  3.940887  0  0  -0.132023  0  3.953912  0  0  -0.166475  -0.131291  0  3.931974  0
C  C45  1  0.90354574  0.49298710  0.96346075  1  0  -0.088341  0  3.682484  0  0  -0.131686  0  3.940969  0  0  -0.132022  0  3.953989  0  0  -0.166475  -0.131298  0  3.932057  0
C  C46  1  0.65586611  0.63797722  0.33683918  1  0  0.140795  0  3.714334  0  0  0.116261  0  3.970395  0  0  0.12458  0  3.987124  0  0  0.056997  0.110907  0  3.958971  0
C  C47  1  0.34413539  0.36202457  0.66316238  1  0  0.140703  0  3.71456  0  0  0.116147  0  3.97063  0  0  0.124464  0  3.987356  0  0  0.056998  0.110795  0  3.959203  0
C  C48  1  0.72757452  0.76582750  0.39504927  1  0  -0.12588  0  3.726461  0  0  -0.138248  0  3.974047  0  0  -0.146031  0  3.996507  0  0  -0.081281  -0.132774  0  3.958855  0
C  C49  1  0.27242734  0.23417532  0.60495397  1  0  -0.125753  0  3.726495  0  0  -0.138125  0  3.974091  0  0  -0.145906  0  3.996552  0  0  -0.081241  -0.132653  0  3.958904  0
C  C50  1  0.80948286  0.76786761  0.50710342  1  0  0.017089  0  3.694728  0  0  -0.002416  0  3.94524  0  0  0.001946  0  3.962238  0  0  -0.056436  -0.00517  0  3.932982  0
C  C51  1  0.19051553  0.23213310  0.49290112  1  0  0.017126  0  3.694756  0  0  -0.002361  0  3.945264  0  0  0.002001  0  3.962261  0  0  -0.056484  -0.005116  0  3.933011  0
C  C52  1  0.81564079  0.64276626  0.55683058  1  0  -0.116181  0  3.646024  0  0  -0.141394  0  3.901698  0  0  -0.146876  0  3.919408  0  0  -0.06198  -0.137555  0  3.889556  0
C  C53  1  0.18435933  0.35723551  0.44317249  1  0  -0.116196  0  3.646067  0  0  -0.141413  0  3.901767  0  0  -0.146896  0  3.919479  0  0  -0.061976  -0.137583  0  3.889649  0
C  C54  1  0.74125749  0.51834004  0.49284997  1  0  0.180518  0  3.752101  0  0  0.180323  0  4.000965  0  0  0.187496  0  4.020525  0  0  0.127715  0.175528  0  3.987287  0
C  C55  1  0.25874263  0.48166174  0.50715228  1  0  0.180559  0  3.752051  0  0  0.180368  0  4.000909  0  0  0.18754  0  4.020467  0  0  0.127732  0.175575  0  3.987227  0
C  C56  1  0.74553970  0.38214726  0.53960790  1  0  0.185857  0  3.749246  0  0  0.185026  0  3.997132  0  0  0.192834  0  4.016711  0  0  0.129184  0.17984  0  3.983854  0
C  C57  1  0.25445906  0.61785452  0.46039173  1  0  0.185812  0  3.74928  0  0  0.185015  0  3.997122  0  0  0.192825  0  4.016696  0  0  0.129185  0.179822  0  3.983849  0
C  C58  1  0.78202987  0.36468327  0.65494456  1  0  -0.118966  0  3.666114  0  0  -0.138263  0  3.90932  0  0  -0.143847  0  3.927359  0  0  -0.067172  -0.134624  0  3.897437  0
C  C59  1  0.21796404  0.63531639  0.34505377  1  0  -0.11899  0  3.666079  0  0  -0.138296  0  3.909263  0  0  -0.143881  0  3.927301  0  0  -0.067175  -0.134656  0  3.897389  0
C  C60  1  0.77870925  0.23317074  0.69455283  1  0  0.007901  0  3.705751  0  0  -0.007912  0  3.948531  0  0  -0.004534  0  3.966758  0  0  -0.056855  -0.010135  0  3.936339  0
C  C61  1  0.22128081  0.76682578  0.30544512  1  0  0.00784  0  3.705563  0  0  -0.007962  0  3.948374  0  0  -0.004583  0  3.9666  0  0  -0.056898  -0.010189  0  3.936184  0
C  C62  1  0.73788335  0.12155970  0.61815237  1  0  -0.132834  0  3.724995  0  0  -0.146222  0  3.970291  0  0  -0.153394  0  3.990948  0  0  -0.081335  -0.141651  0  3.956453  0
C  C63  1  0.26211431  0.87843897  0.38184470  1  0  -0.132709  0  3.724773  0  0  -0.146135  0  3.970092  0  0  -0.153306  0  3.990748  0  0  -0.081316  -0.141565  0  3.956252  0
C  C64  1  0.70339114  0.14681420  0.50484734  1  0  0.140943  0  3.719454  0  0  0.115827  0  3.979935  0  0  0.123982  0  3.997773  0  0  0.056102  0.110621  0  3.967879  0
C  C65  1  0.29660862  0.85318658  0.49514830  1  0  0.140867  0  3.719434  0  0  0.115736  0  3.979954  0  0  0.123887  0  3.997787  0  0  0.056066  0.110529  0  3.967895  0
N  N66  1  0.66215014  0.51666973  0.38381300  1  0  -0.391923  0  3.222832  0  0  -0.36374  0  3.506071  0  0  -0.385471  0  3.530815  0  0  -0.345925  -0.34888  0  3.488871  0
N  N67  1  0.33785447  0.48333313  0.61618970  1  0  -0.391898  0  3.222832  0  0  -0.363713  0  3.506078  0  0  -0.385441  0  3.530837  0  0  -0.345935  -0.348845  0  3.488877  0
N  N68  1  0.70770269  0.27364650  0.46547776  1  0  -0.406281  0  3.241768  0  0  -0.378034  0  3.528519  0  0  -0.400811  0  3.554546  0  0  -0.357298  -0.36269  0  3.510867  0
N  N69  1  0.29229808  0.72635324  0.53451962  1  0  -0.406253  0  3.241793  0  0  -0.378024  0  3.528548  0  0  -0.400785  0  3.554563  0  0  -0.357297  -0.362671  0  3.510892  0
O  O70  1  0.40502407  0.16529950  0.27413693  1  0  -0.717063  0  1.635008  0  0  -0.724158  0  1.937031  0  0  -0.746148  0  1.926101  0  0  -0.762961  -0.71073  0  1.944717  0
O  O71  1  0.59497376  0.83469188  0.72586594  1  0  -0.717109  0  1.634992  0  0  -0.724181  0  1.936968  0  0  -0.746163  0  1.926069  0  0  -0.762988  -0.710737  0  1.94468  0
O  O72  1  0.83309861  0.42119670  0.22762080  1  0  -0.700195  0  1.649966  0  0  -0.705109  0  1.956346  0  0  -0.728183  0  1.948281  0  0  -0.75958  -0.690854  0  1.961952  0
O  O73  1  0.16689814  0.57880714  0.77237780  1  0  -0.700198  0  1.650135  0  0  -0.705122  0  1.956495  0  0  -0.728173  0  1.948445  0  0  -0.759673  -0.690865  0  1.96216  0
O  O74  1  0.81729907  0.13163499  0.28951943  1  0  -0.663376  0  1.964837  0  0  -0.65015  0  2.22857  0  0  -0.682799  0  2.225084  0  0  -0.362698  -0.62694  0  2.230023  0
O  O75  1  0.18270837  0.86837207  0.71047861  1  0  -0.663321  0  1.964755  0  0  -0.650114  0  2.228514  0  0  -0.682751  0  2.225029  0  0  -0.362734  -0.626898  0  2.22997  0
O  O76  1  0.68082273  0.14298212  0.11531258  1  0  -0.584632  0  1.948686  0  0  -0.561852  0  2.187647  0  0  -0.592196  0  2.182735  0  0  -0.341927  -0.540645  0  2.190158  0
O  O77  1  0.31918536  0.85702288  0.88468388  1  0  -0.584559  0  1.948777  0  0  -0.561795  0  2.187747  0  0  -0.592132  0  2.18284  0  0  -0.341926  -0.54058  0  2.190258  0
O  O78  1  0.46992948  0.31805857  0.05692205  1  0  -0.606187  0  1.939618  0  0  -0.590443  0  2.192237  0  0  -0.622088  0  2.187985  0  0  -0.350074  -0.568116  0  2.194131  0
O  O79  1  0.53006946  0.68193595  0.94307846  1  0  -0.606235  0  1.939693  0  0  -0.590467  0  2.192304  0  0  -0.622103  0  2.188059  0  0  -0.350061  -0.568131  0  2.194197  0
O  O80  1  0.38627437  0.42842831  0.18742056  1  0  -0.635413  0  1.987143  0  0  -0.617613  0  2.250903  0  0  -0.651011  0  2.248429  0  0  -0.352152  -0.593871  0  2.251441  0
O  O81  1  0.61373078  0.57156836  0.81257893  1  0  -0.635421  0  1.987269  0  0  -0.617662  0  2.251064  0  0  -0.65105  0  2.248592  0  0  -0.352172  -0.593909  0  2.251604  0
