# generated using pymatgen
data_CuH9C5SNO6
_symmetry_space_group_name_H-M   'P 1'
_cell_length_a   4.98859284
_cell_length_b   11.07928607
_cell_length_c   8.65955321
_cell_angle_alpha   89.99972508
_cell_angle_beta   117.24336987
_cell_angle_gamma   89.99977470
_symmetry_Int_Tables_number   1
_chemical_formula_structural   CuH9C5SNO6
_chemical_formula_sum   'Cu2 H18 C10 S2 N2 O12'
_cell_volume   425.52132956
_cell_formula_units_Z   2
loop_
 _symmetry_equiv_pos_site_id
 _symmetry_equiv_pos_as_xyz
  1  'x, y, z'
loop_
 _atom_site_type_symbol
 _atom_site_label
 _atom_site_symmetry_multiplicity
 _atom_site_fract_x
 _atom_site_fract_y
 _atom_site_fract_z
 _atom_site_occupancy
 _atom_site_hle17_ddec_charge
 _atom_site_hle17_ddec_spin_density
 _atom_site_hle17_ddec_sum_bond_order
 _atom_site_hle17_magmom
 _atom_site_hse06_10hf_ddec_charge
 _atom_site_hse06_10hf_ddec_spin_density
 _atom_site_hse06_10hf_ddec_sum_bond_order
 _atom_site_hse06_10hf_magmom
 _atom_site_hse06_ddec_charge
 _atom_site_hse06_ddec_spin_density
 _atom_site_hse06_ddec_sum_bond_order
 _atom_site_hse06_magmom
 _atom_site_pbe_cm5_charge
 _atom_site_pbe_ddec_charge
 _atom_site_pbe_ddec_spin_density
 _atom_site_pbe_ddec_sum_bond_order
 _atom_site_pbe_magmom
Cu  Cu0  1  0.49817330  0.76029183  0.09430694  1  0.979214  0.72571  1.641399  0.531  0.97215  0.82437  2.011215  0.662  1.053188  0.894714  1.958804  0.747  0.718873  0.914523  0.768745  2.056177  0.603
Cu  Cu1  1  0.50180603  0.26029216  0.90569272  1  0.979138  -0.725689  1.641444  -0.531  0.972069  -0.82436  2.011229  -0.662  1.053122  -0.894709  1.958814  -0.747  0.718872  0.914449  -0.768727  2.056191  -0.603
H  H2  1  0.20057677  0.81764942  0.24963021  1  0.287661  -0.001019  0.916729  -0.002  0.276208  -8e-06  0.976903  -0.001  0.283415  -0.000223  0.973131  -0.001  0.300175  0.271223  0.000171  0.979628  0.0
H  H3  1  0.79939786  0.31763872  0.75037737  1  0.287778  0.001021  0.916514  0.002  0.276205  9e-06  0.976852  0.001  0.283409  0.000224  0.973082  0.001  0.300224  0.27123  -0.000171  0.979582  0.0
H  H4  1  0.04119547  0.99402283  0.12580612  1  0.104315  0.001014  0.933439  0.002  0.112987  0.000468  0.991821  0.001  0.114269  0.000302  0.991563  0.0  0.123613  0.111942  0.000621  0.992136  0.001
H  H5  1  0.95880010  0.49401277  0.87419795  1  0.104327  -0.001014  0.933515  -0.002  0.11302  -0.000468  0.991965  -0.001  0.114311  -0.000302  0.991711  0.0  0.123582  0.111972  -0.00062  0.992283  -0.001
H  H6  1  0.26493724  0.05468427  0.43072258  1  0.100445  -0.000123  0.972804  0.0  0.104754  -1.3e-05  1.050767  0.0  0.106796  -1.7e-05  1.050207  0.0  0.08988  0.103269  -4e-06  1.051267  0.0
H  H7  1  0.73508097  0.55468279  0.56927485  1  0.100419  0.000125  0.972813  0.0  0.104712  1.3e-05  1.05078  0.0  0.106759  1.7e-05  1.050214  0.0  0.089861  0.103228  3e-06  1.051283  0.0
H  H8  1  0.42848358  0.16148670  0.34056174  1  0.113836  0.000516  0.973092  0.001  0.126508  0.000227  1.035786  0.001  0.128489  0.00015  1.034519  0.001  0.104915  0.12467  0.000262  1.037435  0.001
H  H9  1  0.57152386  0.66148528  0.65943568  1  0.113831  -0.000515  0.97312  -0.001  0.126484  -0.000227  1.035813  -0.001  0.128469  -0.00015  1.034544  -0.001  0.104898  0.124641  -0.000262  1.037455  -0.001
H  H10  1  0.54485957  0.82049984  0.51685259  1  0.099796  0.001451  0.927311  0.002  0.106219  0.001119  0.987114  0.001  0.108617  0.000798  0.985622  0.001  0.118044  0.104145  0.001348  0.98884  0.001
H  H11  1  0.45514694  0.32050256  0.48314694  1  0.099862  -0.001453  0.927283  -0.002  0.106275  -0.001119  0.987107  -0.001  0.108674  -0.000799  0.985615  -0.001  0.118049  0.104201  -0.001348  0.988842  -0.001
H  H12  1  0.07553311  0.76922711  0.77864938  1  0.427896  0.000494  0.87157  0.0  0.397576  0.000853  0.935877  0.001  0.409992  0.000522  0.918332  0.0  0.291377  0.388727  0.001147  0.948327  0.001
H  H13  1  0.92446359  0.26924252  0.22135509  1  0.427885  -0.000494  0.871549  0.0  0.397574  -0.000853  0.935826  -0.001  0.409996  -0.000522  0.918282  0.0  0.291427  0.388727  -0.001147  0.948272  -0.001
H  H14  1  0.92799488  0.72806471  0.90642704  1  0.424822  0.000273  0.865362  0.0  0.39834  0.000648  0.929222  0.0  0.410361  0.00038  0.911692  0.0  0.296586  0.389764  0.000867  0.941681  0.001
H  H15  1  0.07198155  0.22808102  0.09357045  1  0.424776  -0.000273  0.865427  0.0  0.398269  -0.000648  0.929331  0.0  0.410293  -0.00038  0.911797  0.0  0.296586  0.389695  -0.000867  0.941791  -0.001
H  H16  1  0.25320155  0.56216095  0.26815189  1  0.373367  -8.4e-05  0.945192  0.0  0.347809  -7.7e-05  1.004072  0.0  0.35888  -6.4e-05  0.988048  0.0  0.262415  0.339774  -7.9e-05  1.015686  0.0
H  H17  1  0.74685254  0.06215383  0.73186418  1  0.373389  8.4e-05  0.945038  0.0  0.347847  7.7e-05  1.003986  0.0  0.358918  6.4e-05  0.987962  0.0  0.262424  0.339809  7.9e-05  1.015602  0.0
H  H18  1  0.39622613  0.53265849  0.14016254  1  0.411704  -2.1e-05  0.899532  0.0  0.38569  -4e-05  0.956937  0.0  0.396853  -4.4e-05  0.940257  0.0  0.278886  0.377686  -2.8e-05  0.968862  0.0
H  H19  1  0.60380991  0.03267054  0.85984871  1  0.411768  2.1e-05  0.899458  0.0  0.385774  4e-05  0.956827  0.0  0.396935  4.4e-05  0.94015  0.0  0.278958  0.377759  2.8e-05  0.968756  0.0
C  C20  1  0.28898496  0.99123621  0.19756393  1  0.012367  -0.006767  3.587896  -0.011  -0.00314  -0.00272  3.832681  -0.006  -0.003716  -0.002358  3.846916  -0.005  -0.001071  -0.002441  -0.003017  3.823013  -0.006
C  C21  1  0.71101345  0.49123134  0.80244402  1  0.012412  0.006762  3.588327  0.011  -0.003396  0.00272  3.833476  0.006  -0.003994  0.002356  3.847752  0.005  -0.00105  -0.002688  0.003011  3.823815  0.006
C  C22  1  0.41216786  0.04226306  0.07722692  1  0.667303  0.005031  3.802718  0.008  0.616742  0.001502  4.1129  0.004  0.652619  0.001177  4.104762  0.003  0.222653  0.592195  0.001672  4.116963  0.004
C  C23  1  0.58781344  0.54225945  0.92276546  1  0.667319  -0.005027  3.80261  -0.008  0.616829  -0.001506  4.112785  -0.004  0.652711  -0.001177  4.104645  -0.003  0.222724  0.592283  -0.001675  4.116861  -0.004
C  C24  1  0.40416811  0.06617182  0.36370704  1  -0.192752  0.004818  3.627261  0.005  -0.235392  0.002552  3.885788  0.003  -0.235693  0.001775  3.894765  0.002  -0.154817  -0.235222  0.00302  3.880271  0.003
C  C25  1  0.59583809  0.56617146  0.63629463  1  -0.192716  -0.004831  3.627207  -0.005  -0.235234  -0.002554  3.885722  -0.003  -0.235539  -0.001776  3.894713  -0.002  -0.154754  -0.235065  -0.003022  3.880201  -0.003
C  C26  1  0.63121020  0.85623896  0.42975347  1  -0.043088  -0.001385  3.590356  -0.004  -0.0585  0.001006  3.850671  -0.002  -0.058006  0.000442  3.861978  -0.002  0.006869  -0.058834  0.00138  3.843395  -0.001
C  C27  1  0.36878382  0.35623646  0.57024444  1  -0.043171  0.001393  3.590171  0.004  -0.058618  -0.001008  3.850489  0.002  -0.058127  -0.000442  3.86179  0.002  0.006844  -0.058956  -0.00138  3.843236  0.001
C  C28  1  0.89950957  0.78403609  0.44302073  1  0.647184  -0.001197  3.868331  -0.003  0.595843  0.001773  4.184752  0.001  0.631151  0.001142  4.178502  0.0  0.209039  0.571613  0.002299  4.187963  0.001
C  C29  1  0.10049077  0.28403201  0.55697464  1  0.646995  0.001196  3.868712  0.003  0.595727  -0.001772  4.185056  -0.001  0.631038  -0.001142  4.178805  0.0  0.208943  0.571492  -0.002299  4.188278  -0.001
S  S30  1  0.77934582  0.00832242  0.49505043  1  0.04839  -0.000865  2.335514  -0.001  0.057161  -1.1e-05  2.666853  0.0  0.055395  1.5e-05  2.661367  0.0  0.036755  0.058448  -0.000138  2.671026  0.0
S  S31  1  0.22065235  0.50832658  0.50494330  1  0.048406  0.000864  2.335313  0.001  0.057174  1.1e-05  2.666614  0.0  0.055417  -1.5e-05  2.661127  0.0  0.036773  0.058469  0.000137  2.670794  0.0
N  N32  1  0.38087640  0.86421714  0.25021201  1  -0.391554  0.103363  3.187529  0.129  -0.3681  0.063737  3.463245  0.084  -0.401214  0.049173  3.481425  0.069  -0.478702  -0.346657  0.070893  3.4509  0.09
N  N33  1  0.61911807  0.36422502  0.74979107  1  -0.391606  -0.103384  3.187699  -0.129  -0.367948  -0.063742  3.463422  -0.084  -0.401084  -0.049176  3.481671  -0.069  -0.478697  -0.346479  -0.070895  3.451014  -0.09
O  O34  1  0.35329190  0.15531760  0.04134998  1  -0.625158  -0.055713  2.066534  -0.075  -0.580023  -0.037366  2.334755  -0.055  -0.617036  -0.029084  2.320904  -0.045  -0.31877  -0.553666  -0.042498  2.343561  -0.06
O  O35  1  0.64667974  0.65532417  0.95863590  1  -0.625217  0.055709  2.066284  0.075  -0.580069  0.037367  2.33446  0.055  -0.61708  0.029082  2.320605  0.045  -0.318823  -0.553696  0.042492  2.34322  0.06
O  O36  1  0.90329283  0.75523857  0.29964298  1  -0.590879  0.079529  2.075957  0.107  -0.560933  0.051205  2.35715  0.075  -0.601081  0.039298  2.349708  0.06  -0.316876  -0.533199  0.058285  2.361808  0.082
O  O37  1  0.09670165  0.25522835  0.70033815  1  -0.590821  -0.079511  2.076346  -0.107  -0.560805  -0.051198  2.357405  -0.075  -0.600932  -0.039293  2.349931  -0.06  -0.31672  -0.533069  -0.058275  2.362076  -0.082
O  O38  1  0.08124890  0.77953186  0.89534092  1  -0.805311  0.049383  1.942198  0.065  -0.770024  0.038627  2.151495  0.054  -0.799232  0.03088  2.114819  0.045  -0.579351  -0.749293  0.043364  2.17753  0.058
O  O39  1  0.91872939  0.27954650  0.10466071  1  -0.805227  -0.049386  1.942211  -0.065  -0.769915  -0.038631  2.151539  -0.054  -0.799139  -0.030882  2.114843  -0.045  -0.579387  -0.749176  -0.043366  2.177579  -0.058
O  O40  1  0.55366537  0.97437286  0.02418023  1  -0.606074  -0.000813  2.042064  0.0  -0.564297  -0.000931  2.285786  -0.001  -0.589586  -0.00081  2.271095  0.0  -0.296896  -0.546001  -0.00097  2.295221  -0.001
O  O41  1  0.44635005  0.47436598  0.97582880  1  -0.606107  0.00081  2.042194  0.0  -0.564301  0.00093  2.285878  0.001  -0.589593  0.00081  2.271189  0.0  -0.296911  -0.546007  0.000969  2.295328  0.001
O  O42  1  0.11034602  0.76315250  0.59122439  1  -0.579906  0.015867  1.968117  0.02  -0.531754  0.007283  2.191312  0.01  -0.560244  0.003542  2.184176  0.005  -0.295041  -0.510945  0.011497  2.195362  0.015
O  O43  1  0.88964890  0.26315389  0.40876190  1  -0.579837  -0.015871  1.96805  -0.021  -0.531757  -0.007285  2.191254  -0.01  -0.560248  -0.003543  2.184125  -0.005  -0.295083  -0.510944  -0.011499  2.195312  -0.015
O  O44  1  0.38259247  0.59403772  0.21971720  1  -0.863557  -0.001499  1.917005  0.0  -0.825811  -0.001316  2.097938  -0.001  -0.844206  -0.001428  2.063515  -0.001  -0.618602  -0.811747  -0.001127  2.12263  0.0
O  O45  1  0.61743974  0.09403838  0.78028831  1  -0.863621  0.001499  1.916861  0.0  -0.82593  0.001316  2.097821  0.001  -0.844328  0.001428  2.063397  0.001  -0.618695  -0.811849  0.001126  2.12255  0.0
