# generated using pymatgen
data_SbH14C6NClO2F3
_symmetry_space_group_name_H-M   'P 1'
_cell_length_a   8.21865161
_cell_length_b   8.91511246
_cell_length_c   9.10670865
_cell_angle_alpha   82.13287831
_cell_angle_beta   64.87801276
_cell_angle_gamma   62.32551700
_symmetry_Int_Tables_number   1
_chemical_formula_structural   SbH14C6NClO2F3
_chemical_formula_sum   'Sb2 H28 C12 N2 Cl2 O4 F6'
_cell_volume   533.50481931
_cell_formula_units_Z   2
loop_
 _symmetry_equiv_pos_site_id
 _symmetry_equiv_pos_as_xyz
  1  'x, y, z'
loop_
 _atom_site_type_symbol
 _atom_site_label
 _atom_site_symmetry_multiplicity
 _atom_site_fract_x
 _atom_site_fract_y
 _atom_site_fract_z
 _atom_site_occupancy
 _atom_site_pbe_bader_spin_density
 _atom_site_pbe_cm5_charge
 _atom_site_pbe_ddec_charge
 _atom_site_pbe_ddec_spin_density
 _atom_site_pbe_ddec_sum_bond_order
 _atom_site_pbe_magmom
Sb  Sb0  1  0.43421278  0.74554074  0.71483421  1  0  0.664804  1.175826  0  3.383003  0
Sb  Sb1  1  0.56578342  0.25446104  0.28516712  1  0  0.664828  1.175822  0  3.38303  0
H  H2  1  0.53267221  0.37799586  0.84988551  1  0  0.299576  0.280539  0  0.949718  0
H  H3  1  0.46732669  0.62200338  0.15011401  1  0  0.29957  0.28049  0  0.94977  0
H  H4  1  0.63485669  0.20769207  0.94546572  1  0  0.298284  0.271159  0  0.966326  0
H  H5  1  0.36514153  0.79230843  0.05453500  1  0  0.298304  0.271192  0  0.966357  0
H  H6  1  0.56236251  0.79646114  0.25963717  1  0  0.10454  0.100697  0  1.00336  0
H  H7  1  0.43764043  0.20353554  0.74036113  1  0  0.104534  0.100673  0  1.003369  0
H  H8  1  0.47919551  0.95167001  0.12983923  1  0  0.10987  0.098331  0  1.01336  0
H  H9  1  0.52080676  0.04832793  0.87016137  1  0  0.109868  0.098318  0  1.013346  0
H  H10  1  0.81339332  0.58358710  0.03056792  1  0  0.094608  0.063251  0  1.026767  0
H  H11  1  0.18660422  0.41641216  0.96943101  1  0  0.094584  0.063206  0  1.026828  0
H  H12  1  0.84876797  0.77177417  0.99791640  1  0  0.10391  0.085489  0  0.984608  0
H  H13  1  0.15123160  0.22822379  0.00208412  1  0  0.103904  0.085471  0  0.984604  0
H  H14  1  0.12143764  0.30710652  0.38821294  1  0  0.103119  0.075812  0  1.028943  0
H  H15  1  0.87856530  0.69289015  0.61178646  1  0  0.10313  0.075817  0  1.028953  0
H  H16  1  0.97605281  0.31557967  0.28466910  1  0  0.09598  0.086053  0  1.022107  0
H  H17  1  0.02394878  0.68441954  0.71533049  1  0  0.095981  0.086064  0  1.022084  0
H  H18  1  0.98380134  0.59105183  0.17222308  1  0  0.096858  0.059002  0  1.027555  0
H  H19  1  0.01620025  0.40894739  0.82777542  1  0  0.096845  0.058981  0  1.02758  0
H  H20  1  0.84996900  0.59729492  0.38600047  1  0  0.088679  0.052173  0  1.035213  0
H  H21  1  0.15003327  0.40270301  0.61400122  1  0  0.088677  0.052144  0  1.035231  0
H  H22  1  0.90827462  0.84669158  0.39624761  1  0  0.087846  0.06644  0  1.030718  0
H  H23  1  0.09172495  0.15330890  0.60375369  1  0  0.087841  0.066423  0  1.030736  0
H  H24  1  0.03779476  0.81216729  0.18168462  1  0  0.09896  0.07329  0  0.992632  0
H  H25  1  0.96220346  0.18783321  0.81831610  1  0  0.098942  0.073271  0  0.992668  0
H  H26  1  0.14305929  0.96576093  0.30560906  1  0  0.119201  0.120412  0  0.959076  0
H  H27  1  0.85693960  0.03424083  0.69439123  1  0  0.119207  0.120421  0  0.959066  0
H  H28  1  0.23866237  0.78240781  0.41080444  1  0  0.104662  0.102226  0  1.010037  0
H  H29  1  0.76133923  0.21759141  0.58919405  1  0  0.104671  0.10224  0  1.010013  0
C  C30  1  0.45449819  0.18510251  0.85564393  1  0  -0.066268  -0.065739  0  3.80849  0
C  C31  1  0.54550205  0.81489672  0.14435508  1  0  -0.066272  -0.065794  0  3.808493  0
C  C32  1  0.25191157  0.28141549  0.99401898  1  0  -0.073616  -0.003352  0  3.9049  0
C  C33  1  0.74808867  0.71858375  0.00597893  1  0  -0.073671  -0.003415  0  3.904951  0
C  C34  1  0.91136655  0.64791607  0.71909088  1  0  -0.082589  -0.02981  0  3.923486  0
C  C35  1  0.08863504  0.35208315  0.28090762  1  0  -0.082566  -0.029763  0  3.923467  0
C  C36  1  0.99798395  0.45674533  0.71464728  1  0  -0.080714  -0.005326  0  3.938974  0
C  C37  1  0.00201427  0.54325517  0.28535343  1  0  -0.080745  -0.005398  0  3.938953  0
C  C38  1  0.94262824  0.22352586  0.70364593  1  0  -0.076328  -0.003193  0  3.922846  0
C  C39  1  0.05736998  0.77647464  0.29635478  1  0  -0.076341  -0.003223  0  3.922832  0
C  C40  1  0.79474665  0.17290352  0.69620536  1  0  -0.06334  -0.061845  0  3.793393  0
C  C41  1  0.20525292  0.82709697  0.30379484  1  0  -0.063329  -0.061805  0  3.793376  0
N  N42  1  0.60081805  0.24555116  0.84426736  1  0  -0.483742  -0.202655  0  3.529586  0
N  N43  1  0.39918017  0.75444935  0.15573226  1  0  -0.483763  -0.202655  0  3.52972  0
Cl  Cl44  1  0.49999952  0.99999877  0.49999840  1  0  -0.274865  -0.553819  0  1.188224  0
Cl  Cl45  1  0.50000012  0.50000214  0.49999973  1  0  -0.26755  -0.530004  0  1.208339  0
O  O46  1  0.27661614  0.26439083  0.14304079  1  0  -0.23555  -0.24612  0  2.52046  0
O  O47  1  0.72338410  0.73560840  0.85695821  1  0  -0.235525  -0.246094  0  2.520446  0
O  O48  1  0.87038126  0.40318884  0.69256780  1  0  -0.239197  -0.246813  0  2.514127  0
O  O49  1  0.12961966  0.59681164  0.30743189  1  0  -0.239208  -0.246833  0  2.514094  0
F  F50  1  0.70692174  0.08416580  0.09381001  1  0  -0.2664  -0.43687  0  1.100266  0
F  F51  1  0.29307716  0.91583596  0.90619139  1  0  -0.266408  -0.436876  0  1.100234  0
F  F52  1  0.64201912  0.40629242  0.11078298  1  0  -0.270287  -0.447098  0  1.098943  0
F  F53  1  0.35797911  0.59370808  0.88921883  1  0  -0.270295  -0.447118  0  1.098912  0
F  F54  1  0.83010518  0.15768758  0.29201264  1  0  -0.261622  -0.419818  0  1.131529  0
F  F55  1  0.16989035  0.84231545  0.70799098  1  0  -0.2616  -0.419798  0  1.131557  0
