# generated using pymatgen
data_CuH14C21(NO2)2
_symmetry_space_group_name_H-M   'P 1'
_cell_length_a   5.00662631
_cell_length_b   13.92840138
_cell_length_c   25.72273827
_cell_angle_alpha   90.00084000
_cell_angle_beta   89.99891619
_cell_angle_gamma   97.49784405
_symmetry_Int_Tables_number   1
_chemical_formula_structural   CuH14C21(NO2)2
_chemical_formula_sum   'Cu4 H56 C84 N8 O16'
_cell_volume   1778.42013744
_cell_formula_units_Z   4
loop_
 _symmetry_equiv_pos_site_id
 _symmetry_equiv_pos_as_xyz
  1  'x, y, z'
loop_
 _atom_site_type_symbol
 _atom_site_label
 _atom_site_symmetry_multiplicity
 _atom_site_fract_x
 _atom_site_fract_y
 _atom_site_fract_z
 _atom_site_occupancy
 _atom_site_pbe_bader_charge
 _atom_site_pbe_bader_spin_density
 _atom_site_pbe_cm5_charge
 _atom_site_pbe_ddec_charge
 _atom_site_pbe_ddec_spin_density
 _atom_site_pbe_ddec_sum_bond_order
 _atom_site_pbe_magmom
Cu  Cu0  1  0.43589600  0.28706861  0.76263573  1  1.063479  -0.55071  0.736175  0.764458  -0.731851  2.324627  -0.55
Cu  Cu1  1  0.93585299  0.78706962  0.73735882  1  1.063144  -0.550712  0.736113  0.764325  -0.73185  2.324686  -0.55
Cu  Cu2  1  0.56408842  0.71291864  0.23736499  1  1.063306  -0.55072  0.736187  0.764338  -0.731867  2.324705  -0.55
Cu  Cu3  1  0.06413186  0.21292558  0.26263958  1  1.063281  0.550734  0.736153  0.764373  0.779002  2.324618  0.55
H  H4  1  0.04368108  0.13476539  0.96629145  1  0.107033  -9e-05  0.115965  0.117241  -5.1e-05  0.977228  0.0
H  H5  1  0.54362752  0.63475223  0.53370914  1  0.107171  -8.3e-05  0.116009  0.117291  -4.3e-05  0.977124  0.0
H  H6  1  0.95637892  0.86524700  0.03371472  1  0.107329  -8.7e-05  0.11594  0.11724  -4.7e-05  0.977086  0.0
H  H7  1  0.45637177  0.36525102  0.46629237  1  0.107118  8.5e-05  0.116003  0.117295  5.3e-05  0.977129  0.0
H  H8  1  0.53316641  0.19265670  0.66584494  1  0.107808  0.000307  0.112202  0.126701  0.000133  1.014824  0.0
H  H9  1  0.03316309  0.69266437  0.83415965  1  0.107944  0.000307  0.112268  0.126623  0.000133  1.014914  0.0
H  H10  1  0.46681711  0.80733415  0.33415424  1  0.10805  0.000291  0.11217  0.126619  0.000127  1.014718  0.0
H  H11  1  0.96682680  0.30735398  0.16584769  1  0.107691  -0.000291  0.112177  0.126629  -0.00011  1.014933  0.0
H  H12  1  0.55317840  0.11243289  0.83211303  1  0.129293  -0.002374  0.128418  0.10515  -0.001184  0.976143  -0.002
H  H13  1  0.05314647  0.61243144  0.66788150  1  0.129209  -0.002373  0.128416  0.105309  -0.001185  0.976057  -0.002
H  H14  1  0.44681712  0.88756456  0.16788769  1  0.129226  -0.002358  0.128407  0.105118  -0.001165  0.976148  -0.002
H  H15  1  0.94687573  0.38757487  0.33211611  1  0.129259  0.002359  0.128434  0.105304  0.001242  0.976005  0.002
H  H16  1  0.20658911  0.46908721  0.72096442  1  0.15299  -0.002252  0.128605  0.110719  -0.001158  0.971043  -0.002
H  H17  1  0.70653720  0.96909850  0.77903205  1  0.15251  -0.002253  0.128616  0.110751  -0.001158  0.971149  -0.002
H  H18  1  0.79340420  0.53090299  0.27903320  1  0.152797  -0.002243  0.128617  0.110726  -0.00113  0.971089  -0.002
H  H19  1  0.29342182  0.03090371  0.22096907  1  0.153031  0.002244  0.12861  0.110712  0.001209  0.971067  0.002
H  H20  1  0.58359917  0.08156862  0.60059979  1  0.075696  4.7e-05  0.090077  0.091709  3.5e-05  1.053887  0.0
H  H21  1  0.08362716  0.58156865  0.89939283  1  0.075993  4.7e-05  0.089992  0.091575  3.5e-05  1.053901  0.0
H  H22  1  0.41639280  0.91842374  0.39939316  1  0.075941  -1.9e-05  0.090088  0.091684  -1e-06  1.05381  0.0
H  H23  1  0.91639503  0.41843767  0.10060323  1  0.07573  1.9e-05  0.090061  0.091676  4e-06  1.053816  0.0
H  H24  1  0.20723931  0.32135924  0.62069223  1  0.102791  0.000101  0.10374  0.114634  6.5e-05  1.00933  0.0
H  H25  1  0.70723039  0.82138618  0.87930499  1  0.102455  0.0001  0.103687  0.114505  6.5e-05  1.009323  0.0
H  H26  1  0.79273376  0.67863009  0.37930772  1  0.102673  0.000101  0.10377  0.114628  6.4e-05  1.009376  0.0
H  H27  1  0.29276796  0.17863368  0.12070118  1  0.102584  -0.000101  0.10374  0.114613  -5.9e-05  1.009396  0.0
H  H28  1  0.62540007  0.42092226  0.92309707  1  0.071169  -0.000523  0.103755  0.108265  -0.000272  1.019574  0.0
H  H29  1  0.12534500  0.92090770  0.57690513  1  0.070998  -0.000553  0.103751  0.10823  -0.000293  1.019555  0.0
H  H30  1  0.37464146  0.57908854  0.07690832  1  0.071114  -0.000529  0.103747  0.108252  -0.000275  1.019659  0.0
H  H31  1  0.87464696  0.07909116  0.42309326  1  0.071085  0.000498  0.103737  0.108252  0.000272  1.019559  0.0
H  H32  1  0.64578477  0.52955611  0.84101757  1  0.124395  -7.4e-05  0.111765  0.123041  -6e-05  0.993187  0.0
H  H33  1  0.14573944  0.02955347  0.65898102  1  0.124114  -7.4e-05  0.11173  0.122971  -6e-05  0.993177  0.0
H  H34  1  0.35422900  0.47044219  0.15898549  1  0.12448  -0.000108  0.11174  0.122995  -7e-05  0.993155  0.0
H  H35  1  0.85422895  0.97044015  0.34101699  1  0.124287  0.000108  0.11174  0.122949  7.7e-05  0.993174  0.0
H  H36  1  0.24873724  0.12400995  0.49315011  1  0.035928  -3.5e-05  0.087453  0.07836  -1.3e-05  1.060561  0.0
H  H37  1  0.74876300  0.62402567  0.00684024  1  0.036138  -5.1e-05  0.08733  0.078228  -2.6e-05  1.060695  0.0
H  H38  1  0.75128389  0.87597974  0.50685101  1  0.035999  -5.2e-05  0.087468  0.078466  -2.5e-05  1.060494  0.0
H  H39  1  0.25123317  0.37598044  0.99316126  1  0.036535  3.7e-05  0.087357  0.078224  2.2e-05  1.060688  0.0
H  H40  1  0.36956874  0.04568567  0.91700686  1  0.152355  -0.000996  0.11805  0.138357  -0.000546  0.988122  -0.001
H  H41  1  0.86954587  0.54568400  0.58298832  1  0.152418  -0.000992  0.118061  0.138281  -0.000544  0.988063  -0.001
H  H42  1  0.63045992  0.95431564  0.08299776  1  0.152476  -0.00096  0.118074  0.138422  -0.000512  0.987961  -0.001
H  H43  1  0.13049790  0.45432754  0.41700619  1  0.152485  0.000957  0.118084  0.138322  0.000541  0.987991  0.001
H  H44  1  0.84907331  0.56738664  0.75473260  1  0.148209  -0.000723  0.11269  0.125046  -0.000345  1.026283  -0.001
H  H45  1  0.34901350  0.06739671  0.74526594  1  0.148194  -0.000723  0.112694  0.125144  -0.000345  1.026085  -0.001
H  H46  1  0.15092956  0.43260870  0.24526813  1  0.148065  -0.000984  0.1127  0.125118  -0.000589  1.026217  -0.001
H  H47  1  0.65094952  0.93260554  0.25473362  1  0.148073  0.000984  0.112713  0.125149  0.000621  1.026142  0.001
H  H48  1  0.76477759  0.27906466  0.96789746  1  0.100239  -0.000468  0.106663  0.112888  -0.000239  1.013718  0.0
H  H49  1  0.26474101  0.77905065  0.53210464  1  0.100268  -0.000508  0.106725  0.113008  -0.000269  1.013588  0.0
H  H50  1  0.23526507  0.72094326  0.03210909  1  0.100369  -0.000509  0.106739  0.112976  -0.000268  1.01385  0.0
H  H51  1  0.73526386  0.22094470  0.46789492  1  0.100286  0.000467  0.106742  0.112997  0.000254  1.013681  0.0
H  H52  1  0.44464880  0.26897276  0.54385528  1  0.038196  1.1e-05  0.096621  0.093319  1.9e-05  1.019434  0.0
H  H53  1  0.94465636  0.76898644  0.95613443  1  0.038467  -8e-06  0.096582  0.093148  4e-06  1.019529  0.0
H  H54  1  0.55535742  0.73102043  0.45614622  1  0.038347  -7e-06  0.096619  0.093298  4e-06  1.019502  0.0
H  H55  1  0.05534203  0.23102042  0.04386941  1  0.038231  -1.2e-05  0.096594  0.093284  -2e-05  1.019477  0.0
H  H56  1  0.81318432  0.03011081  0.52214212  1  0.047809  -1.4e-05  0.091445  0.086109  -1e-06  1.045471  0.0
H  H57  1  0.31322615  0.53011564  0.97784847  1  0.048198  5e-06  0.091496  0.086139  1.1e-05  1.045558  0.0
H  H58  1  0.18681767  0.96988162  0.47785394  1  0.048015  -2e-05  0.09147  0.086144  -4e-06  1.045561  0.0
H  H59  1  0.68677714  0.46988764  0.02214914  1  0.047984  -1.9e-05  0.091487  0.086188  -2.3e-05  1.045506  0.0
C  C60  1  0.68643546  0.34117711  0.66402274  1  1.589567  0.003339  0.207062  0.610844  0.001201  4.159062  0.004
C  C61  1  0.18642708  0.84118839  0.83596926  1  1.58984  0.003339  0.207064  0.610704  0.0012  4.158794  0.004
C  C62  1  0.31353362  0.65880568  0.33597720  1  1.589117  0.00334  0.207098  0.610812  0.0012  4.159193  0.004
C  C63  1  0.81359177  0.15882006  0.16402330  1  1.590627  -0.003337  0.207141  0.610934  -0.00085  4.158929  -0.004
C  C64  1  0.73715470  0.23328524  0.66397751  1  -0.051395  -0.000497  -0.095906  -0.332254  8e-05  3.901745  -0.001
C  C65  1  0.23714321  0.73329288  0.83602239  1  -0.050765  -0.000498  -0.095796  -0.331949  8e-05  3.90179  -0.001
C  C66  1  0.26281749  0.76670119  0.33602011  1  -0.050974  -0.000494  -0.095804  -0.332023  8.2e-05  3.901655  -0.001
C  C67  1  0.76285538  0.26672119  0.16397951  1  -0.050929  0.000495  -0.095774  -0.33204  -3.7e-05  3.901424  0.001
C  C68  1  0.87670690  0.21012328  0.71484733  1  1.5731  0.003244  0.207254  0.616378  0.001415  4.133807  0.004
C  C69  1  0.37665062  0.71011857  0.78514526  1  1.573086  0.003247  0.207216  0.616276  0.001416  4.134397  0.004
C  C70  1  0.12326972  0.78987113  0.28514757  1  1.573254  0.003281  0.207226  0.616163  0.001448  4.134428  0.004
C  C71  1  0.62331264  0.28987790  0.21485858  1  1.573503  -0.003283  0.207202  0.61616  -0.001117  4.134158  -0.004
C  C72  1  0.88089682  0.20408420  0.61648569  1  0.016993  -4e-05  -0.009259  0.135079  -0.000125  3.963303  0.0
C  C73  1  0.38088726  0.70410019  0.88350879  1  0.016723  -3.4e-05  -0.00934  0.134963  -0.000122  3.963499  0.0
C  C74  1  0.11908203  0.79590444  0.38351115  1  0.016799  -3.9e-05  -0.009242  0.135109  -0.000125  3.96364  0.0
C  C75  1  0.61910776  0.29591531  0.11649155  1  0.017046  4.1e-05  -0.009365  0.135261  0.000176  3.963789  0.0
C  C76  1  0.12250584  0.25700669  0.59946032  1  0.010332  -0.002687  -0.08655  -0.110437  -0.001949  3.930351  -0.002
C  C77  1  0.62249637  0.75702545  0.90053785  1  0.010369  -0.002679  -0.086455  -0.110455  -0.001945  3.930143  -0.002
C  C78  1  0.87748125  0.74298274  0.40053730  1  0.010213  -0.002678  -0.086606  -0.110604  -0.001946  3.930376  -0.002
C  C79  1  0.37749531  0.24299219  0.09946754  1  0.010106  0.002686  -0.086502  -0.110603  0.002072  3.930581  0.002
C  C80  1  0.25341943  0.22807981  0.55546854  1  -0.138126  -6.1e-05  -0.098955  -0.090922  -7e-06  4.03197  0.0
C  C81  1  0.75342247  0.72809462  0.94452387  1  -0.138735  -4.7e-05  -0.098968  -0.090549  1e-05  4.031718  0.0
C  C82  1  0.74657765  0.77191620  0.44453258  1  -0.138162  -4.7e-05  -0.099006  -0.090878  1e-05  4.031918  0.0
C  C83  1  0.24657455  0.27192089  0.05547725  1  -0.138009  6.3e-05  -0.098954  -0.090823  3.2e-05  4.032146  0.0
C  C84  1  0.14469517  0.14606695  0.52752542  1  0.02365  -0.002868  -0.108427  -0.11171  -0.001899  4.058032  -0.002
C  C85  1  0.64472017  0.64608402  0.97246750  1  0.023725  -0.002877  -0.108269  -0.11174  -0.001907  4.05799  -0.002
C  C86  1  0.85531348  0.85392770  0.47247375  1  0.024065  -0.002872  -0.108403  -0.111798  -0.0019  4.058111  -0.002
C  C87  1  0.35526618  0.35392924  0.02753712  1  0.023194  0.002864  -0.108286  -0.111553  0.002016  4.058069  0.002
C  C88  1  0.90381022  0.09306190  0.54406561  1  -0.175853  -0.000349  -0.109847  -0.107464  -0.000226  4.06534  0.0
C  C89  1  0.40383376  0.59307187  0.95592632  1  -0.175146  -0.000362  -0.109832  -0.107469  -0.000244  4.065666  0.0
C  C90  1  0.09619310  0.90692838  0.45593123  1  -0.176065  -0.000332  -0.109755  -0.107387  -0.000215  4.065622  0.0
C  C91  1  0.59615393  0.40693924  0.04407246  1  -0.175739  0.000284  -0.109776  -0.107408  0.000204  4.065288  0.0
C  C92  1  0.77391395  0.12204934  0.58834352  1  -0.047276  -0.002375  -0.101385  -0.147397  -0.001544  3.988516  -0.001
C  C93  1  0.27394615  0.62206051  0.91164990  1  -0.048233  -0.002355  -0.101396  -0.147175  -0.001533  3.988418  -0.001
C  C94  1  0.22606491  0.87793931  0.41165099  1  -0.047926  -0.002374  -0.10157  -0.147506  -0.001532  3.988745  -0.001
C  C95  1  0.72605847  0.37794711  0.08835083  1  -0.047828  0.002392  -0.101602  -0.147709  0.001642  3.988769  0.001
C  C96  1  0.10756098  0.45428305  0.75843411  1  0.459596  0.001643  0.069951  0.132827  0.000595  3.863806  0.001
C  C97  1  0.60750602  0.95428551  0.74156260  1  0.460064  0.001645  0.069975  0.13275  0.000597  3.863901  0.001
C  C98  1  0.89242142  0.54571068  0.24156623  1  0.459749  0.001618  0.069871  0.132742  0.000595  3.8635  0.001
C  C99  1  0.39246413  0.04571390  0.25843774  1  0.459359  -0.001615  0.069977  0.132869  -0.0003  3.86402  -0.001
C  C100  1  0.91084779  0.50851816  0.77758285  1  0.038358  -0.005798  -0.071849  -0.098686  -0.004032  3.925555  -0.005
C  C101  1  0.41080808  0.00852136  0.72241499  1  0.038467  -0.0058  -0.071856  -0.098748  -0.004032  3.925414  -0.005
C  C102  1  0.08915198  0.49147354  0.22241749  1  0.03864  -0.006009  -0.071865  -0.098815  -0.004177  3.925279  -0.005
C  C103  1  0.58916473  0.99148024  0.27758380  1  0.03823  0.006006  -0.07189  -0.09891  0.004454  3.925669  0.005
C  C104  1  0.79606241  0.48681576  0.82578118  1  -0.049138  0.004167  -0.061082  -0.079031  0.003032  3.907665  0.002
C  C105  1  0.29602589  0.98682092  0.67421899  1  -0.049539  0.00417  -0.061017  -0.078893  0.003034  3.907768  0.002
C  C106  1  0.20393533  0.51318243  0.17421993  1  -0.049322  0.00403  -0.06096  -0.078837  0.002941  3.907745  0.002
C  C107  1  0.70395538  0.01318219  0.32577902  1  -0.049133  -0.00403  -0.061017  -0.078806  -0.002767  3.90785  -0.002
C  C108  1  0.87517646  0.40908722  0.85486472  1  0.024539  -0.002587  -0.002415  0.032043  -0.001891  4.033629  -0.002
C  C109  1  0.37513256  0.90908516  0.64513609  1  0.024836  -0.002592  -0.002492  0.031787  -0.001892  4.033922  -0.002
C  C110  1  0.12483797  0.59091326  0.14513912  1  0.024595  -0.002569  -0.002502  0.031942  -0.001875  4.033717  -0.002
C  C111  1  0.62484960  0.09091435  0.35486153  1  0.024889  0.002563  -0.002535  0.031809  0.002031  4.033823  0.002
C  C112  1  0.06935799  0.35710783  0.83202588  1  0.430905  -0.001065  0.113487  0.118575  -0.001199  4.006879  -0.001
C  C113  1  0.56930210  0.85710353  0.66797602  1  0.431441  -0.001061  0.113456  0.118647  -0.001196  4.007271  -0.001
C  C114  1  0.93064154  0.64288964  0.16797796  1  0.430953  -0.001108  0.113494  0.118642  -0.001229  4.006993  -0.001
C  C115  1  0.43067894  0.14289885  0.33202860  1  0.43112  0.001108  0.113421  0.118642  0.001474  4.00708  0.001
C  C116  1  0.14997023  0.27456731  0.85767935  1  0.463686  -0.000753  0.115698  0.122691  -0.001015  3.989196  0.0
C  C117  1  0.64992801  0.77456035  0.64231925  1  0.464136  -0.000759  0.115643  0.122613  -0.00102  3.989014  -0.001
C  C118  1  0.85003129  0.72543018  0.14232254  1  0.463725  -0.000823  0.115629  0.12265  -0.001062  3.989152  -0.001
C  C119  1  0.35009376  0.22543801  0.35767914  1  0.463899  0.00081  0.115731  0.122772  0.001274  3.989073  0.001
C  C120  1  0.03928798  0.24494185  0.90662368  1  0.034149  -0.002812  0.000406  0.045435  -0.002074  4.004763  -0.002
C  C121  1  0.53924795  0.74493306  0.59337431  1  0.033972  -0.00282  0.000443  0.045616  -0.002076  4.004477  -0.002
C  C122  1  0.96072932  0.75506154  0.09337744  1  0.033974  -0.00282  0.000351  0.045399  -0.002072  4.004643  -0.002
C  C123  1  0.46077448  0.25506748  0.40662486  1  0.034103  0.002812  0.000399  0.045489  0.002207  4.004529  0.002
C  C124  1  0.12407752  0.16094330  0.92873825  1  -0.044171  0.003974  -0.056435  -0.069886  0.002839  3.908818  0.002
C  C125  1  0.62404749  0.66093408  0.57125992  1  -0.044462  0.003972  -0.056387  -0.06993  0.00284  3.908529  0.002
C  C126  1  0.87595537  0.83905876  0.07126753  1  -0.04479  0.00382  -0.056373  -0.069875  0.002735  3.909004  0.002
C  C127  1  0.37597449  0.33907152  0.42873770  1  -0.044399  -0.003825  -0.056271  -0.069861  -0.002573  3.908877  -0.002
C  C128  1  0.30655589  0.11241265  0.90231324  1  -0.031799  -0.00578  -0.072969  -0.113889  -0.003967  3.945408  -0.005
C  C129  1  0.80652167  0.61241123  0.59768154  1  -0.031172  -0.005774  -0.072942  -0.113639  -0.003962  3.945023  -0.005
C  C130  1  0.69348213  0.88758656  0.09768671  1  -0.03169  -0.005861  -0.073018  -0.113977  -0.004059  3.9451  -0.005
C  C131  1  0.19352099  0.38759669  0.40231608  1  -0.031676  0.005866  -0.073045  -0.113658  0.004319  3.945242  0.005
C  C132  1  0.40709119  0.14788582  0.85393149  1  0.517012  0.002206  0.06986  0.129342  0.000868  3.89224  0.002
C  C133  1  0.90707352  0.64788853  0.64606243  1  0.51676  0.002205  0.069867  0.12918  0.000867  3.892438  0.002
C  C134  1  0.59290856  0.85211238  0.14607040  1  0.517221  0.002191  0.06987  0.129399  0.000849  3.892108  0.002
C  C135  1  0.09296025  0.35211643  0.35393635  1  0.517204  -0.002193  0.069819  0.12903  -0.000562  3.892579  -0.002
C  C136  1  0.84904194  0.30059617  0.92988823  1  -0.041925  -0.000692  -0.083283  -0.124605  -0.000475  3.977609  -0.001
C  C137  1  0.34900304  0.80058664  0.57011219  1  -0.042443  -0.000735  -0.083351  -0.12493  -0.000507  3.977615  -0.001
C  C138  1  0.15098582  0.69940874  0.07011017  1  -0.042225  -0.000726  -0.083321  -0.124806  -0.000498  3.977306  -0.001
C  C139  1  0.65099849  0.19941085  0.42989009  1  -0.04255  0.000682  -0.083406  -0.124894  0.000498  3.977501  0.001
C  C140  1  0.77073714  0.37931690  0.90506784  1  -0.033319  -0.000829  -0.08288  -0.114212  -0.000595  3.962177  -0.001
C  C141  1  0.27069134  0.87930572  0.59493272  1  -0.03334  -0.000849  -0.082917  -0.114026  -0.000617  3.962161  -0.001
C  C142  1  0.22929264  0.62068152  0.09493522  1  -0.033315  -0.00084  -0.082883  -0.114143  -0.000607  3.961896  -0.001
C  C143  1  0.72930664  0.12068669  0.40506684  1  -0.03342  0.00082  -0.082813  -0.114032  0.000623  3.961807  0.001
N  N144  1  0.33078163  0.22669054  0.83233277  1  -1.217888  -0.074407  -0.339491  -0.267099  -0.051086  3.614185  -0.064
N  N145  1  0.83073845  0.72668849  0.66766206  1  -1.217952  -0.074396  -0.339616  -0.267292  -0.051076  3.614371  -0.064
N  N146  1  0.66922056  0.77330912  0.16766562  1  -1.217669  -0.074441  -0.339474  -0.267098  -0.0511  3.614222  -0.064
N  N147  1  0.16926106  0.27331548  0.33233827  1  -1.217869  0.074447  -0.339607  -0.267277  0.054392  3.614312  0.064
N  N148  1  0.18358113  0.38059288  0.78506575  1  -1.228445  -0.07764  -0.342712  -0.267216  -0.053091  3.622777  -0.067
N  N149  1  0.68352101  0.88058963  0.71493203  1  -1.228248  -0.077645  -0.342666  -0.267123  -0.053093  3.623147  -0.067
N  N150  1  0.81640772  0.61940235  0.21493342  1  -1.228391  -0.077651  -0.34263  -0.267124  -0.053099  3.622971  -0.067
N  N151  1  0.31644247  0.11940757  0.28506676  1  -1.228071  0.077647  -0.342641  -0.267161  0.05652  3.622768  0.067
O  O152  1  0.76756808  0.39623070  0.62786609  1  -1.156824  -0.032907  -0.312518  -0.520776  -0.021481  2.09591  -0.028
O  O153  1  0.26751529  0.89623887  0.87212529  1  -1.157135  -0.032895  -0.31255  -0.520741  -0.021472  2.095977  -0.028
O  O154  1  0.23242365  0.60376743  0.37213191  1  -1.156569  -0.032811  -0.312454  -0.520741  -0.02142  2.096586  -0.028
O  O155  1  0.73249307  0.10378106  0.12787116  1  -1.157577  0.03281  -0.31246  -0.5207  0.022801  2.096249  0.028
O  O156  1  0.54911112  0.36820704  0.70303256  1  -1.114335  -0.121616  -0.34081  -0.56753  -0.079824  2.379354  -0.111
O  O157  1  0.04909804  0.86821017  0.79695667  1  -1.114567  -0.121622  -0.340786  -0.567386  -0.079824  2.379178  -0.111
O  O158  1  0.45085130  0.63177353  0.29696234  1  -1.114399  -0.121642  -0.340899  -0.567482  -0.079844  2.379124  -0.111
O  O159  1  0.95094062  0.13179772  0.20303434  1  -1.114535  0.121646  -0.34096  -0.567696  0.085031  2.379231  0.111
O  O160  1  0.11192416  0.18840069  0.71406956  1  -1.178841  -0.021239  -0.311844  -0.551908  -0.014183  2.280648  -0.02
O  O161  1  0.61187637  0.68838834  0.78592305  1  -1.178477  -0.021259  -0.311825  -0.551816  -0.014196  2.280535  -0.02
O  O162  1  0.88806781  0.81159167  0.28592806  1  -1.17894  -0.020945  -0.311846  -0.551732  -0.013954  2.280666  -0.02
O  O163  1  0.38810379  0.31161115  0.21408157  1  -1.178744  0.020949  -0.311765  -0.551694  0.014928  2.280537  0.02
O  O164  1  0.74162815  0.21386721  0.75746980  1  -1.129914  -0.103598  -0.338713  -0.564206  -0.068572  2.39667  -0.095
O  O165  1  0.24160708  0.71386612  0.74252720  1  -1.130445  -0.103587  -0.338691  -0.564204  -0.068565  2.397214  -0.095
O  O166  1  0.25834468  0.78612789  0.24252820  1  -1.130013  -0.103529  -0.338655  -0.564071  -0.068516  2.396917  -0.095
O  O167  1  0.75838135  0.28612115  0.25747664  1  -1.130502  0.103518  -0.33866  -0.564067  0.072984  2.396942  0.095
