# generated using pymatgen
data_Cu3H8C12(N7O2)2
_symmetry_space_group_name_H-M   'P 1'
_cell_length_a   6.08781391
_cell_length_b   9.04835697
_cell_length_c   17.29701957
_cell_angle_alpha   100.16645066
_cell_angle_beta   89.98628897
_cell_angle_gamma   90.00185851
_symmetry_Int_Tables_number   1
_chemical_formula_structural   Cu3H8C12(N7O2)2
_chemical_formula_sum   'Cu6 H16 C24 N28 O8'
_cell_volume   937.84152969
_cell_formula_units_Z   2
loop_
 _symmetry_equiv_pos_site_id
 _symmetry_equiv_pos_as_xyz
  1  'x, y, z'
loop_
 _atom_site_type_symbol
 _atom_site_label
 _atom_site_symmetry_multiplicity
 _atom_site_fract_x
 _atom_site_fract_y
 _atom_site_fract_z
 _atom_site_occupancy
 _atom_site_pbe_cm5_charge
 _atom_site_pbe_ddec_charge
 _atom_site_pbe_ddec_spin_density
 _atom_site_pbe_ddec_sum_bond_order
 _atom_site_pbe_magmom
Cu  Cu0  1  0.15924440  0.02983509  0.83218867  1  0.757759  0.756482  -0.608677  2.339866  -0.454
Cu  Cu1  1  0.65941123  0.97014206  0.66783697  1  0.756287  0.754795  0.612805  2.338243  0.448
Cu  Cu2  1  0.84201403  0.97010818  0.16785771  1  0.756647  0.758124  -0.667818  2.334081  -0.497
Cu  Cu3  1  0.34156807  0.02994891  0.33191326  1  0.757489  0.759197  -0.675898  2.335184  -0.502
Cu  Cu4  1  0.99950257  0.99990118  0.99975232  1  0.760857  0.883664  0.707675  2.31083  0.517
Cu  Cu5  1  0.49925264  0.00010689  0.50044836  1  0.761381  0.884603  -0.704722  2.311168  -0.524
H  H6  1  0.41587565  0.26781467  0.77084449  1  0.115249  0.095008  -0.00099  1.046874  -0.002
H  H7  1  0.91585742  0.73226725  0.72922897  1  0.11524  0.09498  0.001005  1.047026  0.002
H  H8  1  0.58479142  0.73181860  0.22922920  1  0.114973  0.09486  -0.000849  1.046047  -0.002
H  H9  1  0.08456009  0.26834804  0.27058385  1  0.114834  0.094554  -0.001122  1.046896  -0.002
H  H10  1  0.41354104  0.54968536  0.79230107  1  0.109712  0.120717  -0.000714  1.010521  -0.001
H  H11  1  0.91353845  0.45041438  0.70785113  1  0.109918  0.121041  0.000654  1.010313  0.001
H  H12  1  0.58667271  0.45002222  0.20767490  1  0.109788  0.121061  -0.000662  1.010251  -0.001
H  H13  1  0.08637632  0.55016326  0.29225768  1  0.10991  0.121259  -0.000656  1.010576  -0.001
H  H14  1  0.83187385  0.53982819  0.93444267  1  0.110879  0.121181  -0.000182  1.03054  -0.001
H  H15  1  0.33214876  0.46016219  0.56565359  1  0.110624  0.120403  0.000215  1.030651  0.001
H  H16  1  0.16818881  0.45968536  0.06540776  1  0.110976  0.121189  -0.000172  1.031444  -0.001
H  H17  1  0.66731914  0.54036337  0.43467068  1  0.11032  0.120537  -0.001016  1.031084  -0.001
H  H18  1  0.85151299  0.26012807  0.90512773  1  0.117588  0.087152  -0.000916  1.045171  -0.002
H  H19  1  0.35175033  0.73983424  0.59489201  1  0.117631  0.087349  0.000946  1.045324  0.002
H  H20  1  0.14871886  0.73930463  0.09471576  1  0.117486  0.087019  -0.000786  1.047178  -0.002
H  H21  1  0.64797881  0.26069733  0.40523219  1  0.117297  0.086781  -0.001372  1.046753  -0.002
C  C22  1  0.28781282  0.33286158  0.80558353  1  0.043562  0.086304  -0.000273  3.910911  0.0
C  C23  1  0.78785789  0.66719429  0.69448897  1  0.043717  0.086533  0.000297  3.910766  0.0
C  C24  1  0.71272944  0.66678307  0.19441260  1  0.043235  0.085664  -0.000252  3.911525  0.0
C  C25  1  0.21238546  0.33336911  0.30544102  1  0.043294  0.0859  -0.000939  3.911204  0.0
C  C26  1  0.28641284  0.48911458  0.81809875  1  -0.074547  -0.134579  -0.00275  3.925212  -0.003
C  C27  1  0.78645060  0.51095356  0.68202184  1  -0.074688  -0.134889  0.002656  3.925702  0.003
C  C28  1  0.71390110  0.51052561  0.18187790  1  -0.074722  -0.135048  -0.002733  3.925933  -0.003
C  C29  1  0.21350524  0.48961406  0.31804789  1  -0.075023  -0.135074  -0.005774  3.925141  -0.006
C  C30  1  0.12339079  0.56652378  0.86581354  1  0.013246  0.028204  0.003744  3.920044  0.004
C  C31  1  0.62349849  0.43350618  0.63432234  1  0.012639  0.02791  -0.003754  3.9206  -0.004
C  C32  1  0.87689359  0.43307826  0.13414801  1  0.013008  0.028229  0.003569  3.922869  0.004
C  C33  1  0.37632262  0.56703316  0.36584825  1  0.013216  0.028041  -0.008897  3.922197  -0.01
C  C34  1  0.96239680  0.48395570  0.89714563  1  -0.071275  -0.125809  -0.004337  3.897288  -0.005
C  C35  1  0.46259798  0.51604946  0.60295785  1  -0.070735  -0.124963  0.004352  3.897425  0.005
C  C36  1  0.03773156  0.51557124  0.10274477  1  -0.071917  -0.126717  -0.004317  3.900955  -0.005
C  C37  1  0.53707856  0.48447404  0.39727545  1  -0.071609  -0.126397  -0.005353  3.898907  -0.006
C  C38  1  0.97169751  0.32823931  0.88074513  1  0.049947  0.101836  -6.9e-05  3.908715  0.0
C  C39  1  0.47189674  0.67175353  0.61930613  1  0.049487  0.101254  0.000116  3.909234  0.0
C  C40  1  0.02857211  0.67125058  0.11914183  1  0.048994  0.101482  3.4e-05  3.909555  0.0
C  C41  1  0.52797532  0.32880167  0.38079540  1  0.049628  0.102674  -0.00121  3.909594  -0.001
C  C42  1  0.11801559  0.73536526  0.88422415  1  0.224358  0.589572  -0.000115  4.143824  -0.001
C  C43  1  0.61807178  0.26466360  0.61592654  1  0.224821  0.589949  -0.000159  4.144937  0.001
C  C44  1  0.88258251  0.26428381  0.11580940  1  0.224907  0.589947  -5.9e-05  4.144541  -0.001
C  C45  1  0.38192838  0.73581173  0.38424735  1  0.224873  0.590294  -0.001847  4.143977  0.002
N  N46  1  0.13328005  0.25405150  0.83678698  1  -0.341432  -0.231063  -0.061049  3.619478  -0.077
N  N47  1  0.63340127  0.74597971  0.66325164  1  -0.34139  -0.230901  0.060875  3.619753  0.075
N  N48  1  0.86728521  0.74556843  0.16321495  1  -0.341243  -0.231835  -0.059952  3.617692  -0.075
N  N49  1  0.36687331  0.25452651  0.33663142  1  -0.341841  -0.233353  -0.061103  3.618251  -0.077
N  N50  1  0.26751318  0.06207405  0.94480491  1  -0.362617  -0.565954  -0.003256  3.26407  -0.004
N  N51  1  0.76784426  0.93792948  0.55512336  1  -0.362351  -0.566436  0.002646  3.26364  0.003
N  N52  1  0.73182186  0.93786763  0.05491476  1  -0.360795  -0.565136  -0.001623  3.255655  -0.002
N  N53  1  0.23345856  0.06283362  0.44490492  1  -0.360106  -0.561835  -0.088227  3.260242  -0.107
N  N54  1  0.35989568  0.17813469  0.97351338  1  0.09583  0.437576  -0.000809  4.404769  -0.001
N  N55  1  0.85992205  0.82171540  0.52643802  1  0.095243  0.437002  0.000778  4.405294  0.001
N  N56  1  0.63978262  0.82161805  0.02634483  1  0.095527  0.437309  -0.001088  4.406428  -0.001
N  N57  1  0.14010934  0.17843331  0.47363963  1  0.096613  0.437139  0.000508  4.402916  0.012
N  N58  1  0.45271775  0.28682352  0.00065045  1  -0.129313  -0.273593  0.00156  2.527664  0.002
N  N59  1  0.95247255  0.71283702  0.49934962  1  -0.12981  -0.274408  -0.001045  2.527402  -0.003
N  N60  1  0.54729883  0.71259176  0.99948513  1  -0.130653  -0.275367  0.002632  2.528854  0.003
N  N61  1  0.04680980  0.28701748  0.50072213  1  -0.127712  -0.271265  -0.105128  2.524356  -0.114
N  N62  1  0.52134696  0.01266183  0.77674812  1  -0.302788  -0.510537  0.047869  3.086344  0.056
N  N63  1  0.02151344  0.98734542  0.72331440  1  -0.30313  -0.51089  -0.047307  3.087388  -0.057
N  N64  1  0.48054255  0.98788057  0.22244099  1  -0.301123  -0.510283  -0.04919  3.07753  -0.062
N  N65  1  0.98049051  0.01202716  0.27739700  1  -0.300321  -0.508294  -0.050087  3.077039  -0.063
N  N66  1  0.65055286  0.00562444  0.82833178  1  0.083765  0.447846  0.000649  4.435653  -0.006
N  N67  1  0.15061375  0.99414397  0.67165498  1  0.084765  0.448602  -0.00053  4.43671  0.006
N  N68  1  0.34892835  0.99281810  0.17134695  1  0.086192  0.450024  0.003587  4.428439  0.011
N  N69  1  0.84878688  0.00693564  0.32846983  1  0.085948  0.448954  0.003503  4.428157  0.012
N  N70  1  0.77622420  0.00056205  0.87897914  1  -0.207116  -0.424055  0.065544  2.871835  0.072
N  N71  1  0.27594717  0.99887000  0.62085142  1  -0.208065  -0.424772  -0.065302  2.873717  -0.073
N  N72  1  0.21996160  0.99583964  0.12144507  1  -0.209234  -0.425066  -0.069776  2.879405  -0.079
N  N73  1  0.71965443  0.00370175  0.37831712  1  -0.208316  -0.423992  -0.067575  2.876554  -0.078
O  O74  1  0.17696182  0.80436847  0.82980034  1  -0.30673  -0.510893  -0.039954  2.343615  -0.053
O  O75  1  0.67723364  0.19561628  0.67029216  1  -0.307136  -0.511216  0.039433  2.34493  0.051
O  O76  1  0.82481563  0.19536112  0.17039673  1  -0.307299  -0.51124  -0.043571  2.347086  -0.058
O  O77  1  0.32390163  0.80475499  0.32968701  1  -0.307918  -0.512486  -0.044198  2.345058  -0.06
O  O78  1  0.04893416  0.78918884  0.95280894  1  -0.306315  -0.537012  0.057678  2.453719  0.076
O  O79  1  0.54872091  0.21085053  0.54738147  1  -0.306813  -0.538238  -0.05669  2.454295  -0.076
O  O80  1  0.95079175  0.21042790  0.04710717  1  -0.306631  -0.537993  0.057876  2.454878  0.076
O  O81  1  0.45018357  0.78966272  0.45292260  1  -0.306947  -0.53861  -0.056356  2.45436  -0.076
