# generated using pymatgen
data_DyH15C15NO8
_symmetry_space_group_name_H-M   'P 1'
_cell_length_a   8.58744982
_cell_length_b   10.20187152
_cell_length_c   10.90412186
_cell_angle_alpha   63.92393269
_cell_angle_beta   71.01606624
_cell_angle_gamma   80.05466855
_symmetry_Int_Tables_number   1
_chemical_formula_structural   DyH15C15NO8
_chemical_formula_sum   'Dy2 H30 C30 N2 O16'
_cell_volume   810.88497529
_cell_formula_units_Z   2
loop_
 _symmetry_equiv_pos_site_id
 _symmetry_equiv_pos_as_xyz
  1  'x, y, z'
loop_
 _atom_site_type_symbol
 _atom_site_label
 _atom_site_symmetry_multiplicity
 _atom_site_fract_x
 _atom_site_fract_y
 _atom_site_fract_z
 _atom_site_occupancy
 _atom_site_hle17_bader_spin_density
 _atom_site_hle17_ddec_charge
 _atom_site_hle17_ddec_spin_density
 _atom_site_hle17_ddec_sum_bond_order
 _atom_site_hle17_magmom
 _atom_site_hse06_10hf_bader_spin_density
 _atom_site_hse06_10hf_ddec_charge
 _atom_site_hse06_10hf_ddec_spin_density
 _atom_site_hse06_10hf_ddec_sum_bond_order
 _atom_site_hse06_10hf_magmom
 _atom_site_hse06_bader_spin_density
 _atom_site_hse06_ddec_charge
 _atom_site_hse06_ddec_spin_density
 _atom_site_hse06_ddec_sum_bond_order
 _atom_site_hse06_magmom
 _atom_site_pbe_bader_spin_density
 _atom_site_pbe_cm5_charge
 _atom_site_pbe_ddec_charge
 _atom_site_pbe_ddec_spin_density
 _atom_site_pbe_ddec_sum_bond_order
 _atom_site_pbe_magmom
Dy  Dy0  1  0.63619162  0.93983576  0.65070853  1  0  2.146579  0  1.768719  0  0  2.072639  0  2.095432  0  0  2.123461  0  2.053494  0  0  1.507978  2.034671  0  2.128518  0
Dy  Dy1  1  0.36381302  0.06016027  0.34928864  1  0  2.146748  0  1.768551  0  0  2.072806  0  2.095275  0  0  2.12362  0  2.053343  0  0  1.508003  2.034822  0  2.128392  0
H  H2  1  0.44095207  0.25437901  0.70004989  1  0  0.106892  0  0.988429  0  0  0.11301  0  1.056848  0  0  0.116581  0  1.054674  0  0  0.108511  0.110138  0  1.059002  0
H  H3  1  0.55903748  0.74562461  0.29994249  1  0  0.106931  0  0.9884  0  0  0.113042  0  1.05678  0  0  0.116601  0  1.054644  0  0  0.108535  0.110164  0  1.058929  0
H  H4  1  0.49715574  0.53860394  0.25961873  1  0  0.097912  0  0.958282  0  0  0.10971  0  1.017324  0  0  0.112931  0  1.015387  0  0  0.108751  0.107511  0  1.018633  0
H  H5  1  0.50282147  0.46139952  0.74037953  1  0  0.09792  0  0.958221  0  0  0.109689  0  1.017303  0  0  0.112908  0  1.015371  0  0  0.108726  0.107494  0  1.018602  0
H  H6  1  0.04971644  0.83120799  0.88197351  1  0  0.09046  0  0.994596  0  0  0.099226  0  1.06002  0  0  0.101483  0  1.059796  0  0  0.103584  0.097554  0  1.060337  0
H  H7  1  0.95029660  0.16881421  0.11802024  1  0  0.090334  0  0.994685  0  0  0.099115  0  1.060092  0  0  0.101366  0  1.05986  0  0  0.103525  0.097441  0  1.060411  0
H  H8  1  0.23608378  0.12804319  0.97910364  1  0  0.11402  0  0.94676  0  0  0.121853  0  1.009671  0  0  0.125294  0  1.007911  0  0  0.110086  0.119402  0  1.011177  0
H  H9  1  0.76393203  0.87197246  0.02089389  1  0  0.11407  0  0.946904  0  0  0.121912  0  1.00977  0  0  0.125357  0  1.008009  0  0  0.110159  0.119466  0  1.011276  0
H  H10  1  0.70784095  0.56791787  0.09059757  1  0  0.102056  0  0.963848  0  0  0.111037  0  1.025492  0  0  0.114689  0  1.022854  0  0  0.105151  0.108279  0  1.027704  0
H  H11  1  0.29214777  0.43207350  0.90941644  1  0  0.101958  0  0.963821  0  0  0.110934  0  1.025494  0  0  0.114585  0  1.022852  0  0  0.105101  0.108178  0  1.027702  0
H  H12  1  0.14892290  0.63341919  0.74396299  1  0  0.106258  0  0.939627  0  0  0.116771  0  0.997794  0  0  0.12042  0  0.99568  0  0  0.110088  0.114073  0  0.999505  0
H  H13  1  0.85106823  0.36657330  0.25604997  1  0  0.106196  0  0.939645  0  0  0.116659  0  0.9979  0  0  0.120302  0  0.99578  0  0  0.110001  0.11396  0  0.999615  0
H  H14  1  0.64042565  0.15846206  0.83118953  1  0  0.057795  0  0.917613  0  0  0.067513  0  0.983675  0  0  0.069494  0  0.978657  0  0  0.133726  0.065869  0  0.987288  0
H  H15  1  0.35957128  0.84154276  0.16879686  1  0  0.057793  0  0.917503  0  0  0.067479  0  0.983617  0  0  0.069461  0  0.978599  0  0  0.133714  0.065836  0  0.987236  0
H  H16  1  0.70120971  0.31787621  0.88996812  1  0  0.114302  0  0.923865  0  0  0.136489  0  0.981434  0  0  0.137288  0  0.980959  0  0  0.115255  0.13577  0  0.981967  0
H  H17  1  0.29878733  0.68212527  0.11002417  1  0  0.114311  0  0.923755  0  0  0.136501  0  0.981324  0  0  0.137299  0  0.980849  0  0  0.115277  0.135783  0  0.981858  0
H  H18  1  0.79679036  0.47035065  0.73461386  1  0  0.114473  0  0.943964  0  0  0.131172  0  1.010066  0  0  0.132636  0  1.00915  0  0  0.104921  0.130187  0  1.010765  0
H  H19  1  0.20320431  0.52964975  0.26537670  1  0  0.11456  0  0.943894  0  0  0.131255  0  1.009965  0  0  0.132715  0  1.009061  0  0  0.104951  0.130273  0  1.010657  0
H  H20  1  0.91398526  0.34652583  0.85130421  1  0  0.096625  0  0.963525  0  0  0.114674  0  1.030757  0  0  0.114261  0  1.033624  0  0  0.100154  0.114795  0  1.029101  0
H  H21  1  0.08600912  0.65347887  0.14869020  1  0  0.096696  0  0.963444  0  0  0.114687  0  1.030725  0  0  0.114273  0  1.033593  0  0  0.100152  0.114811  0  1.029063  0
H  H22  1  0.04394874  0.19684054  0.58187443  1  0  0.131831  0  0.952197  0  0  0.146191  0  1.019595  0  0  0.148712  0  1.017307  0  0  0.117618  0.144312  0  1.021265  0
H  H23  1  0.95605995  0.80314553  0.41813766  1  0  0.131874  0  0.952159  0  0  0.146232  0  1.019564  0  0  0.148753  0  1.017278  0  0  0.117645  0.144348  0  1.021238  0
H  H24  1  0.11386313  0.28549541  0.66402936  1  0  0.094813  0  0.937972  0  0  0.115686  0  1.001485  0  0  0.114935  0  1.003571  0  0  0.103517  0.116036  0  1.00023  0
H  H25  1  0.88613819  0.71448947  0.33598779  1  0  0.094813  0  0.937984  0  0  0.115704  0  1.001464  0  0  0.114955  0  1.003546  0  0  0.10352  0.116039  0  1.000224  0
H  H26  1  0.01892950  0.38998640  0.52474136  1  0  0.091809  0  0.944722  0  0  0.114267  0  1.005435  0  0  0.114776  0  1.005123  0  0  0.102675  0.113949  0  1.005519  0
H  H27  1  0.98109154  0.60999983  0.47526392  1  0  0.09193  0  0.944602  0  0  0.11437  0  1.005318  0  0  0.11488  0  1.005005  0  0  0.102736  0.114048  0  1.005402  0
H  H28  1  0.76363834  0.08361653  0.34216257  1  0  0.432904  0  0.872806  0  0  0.400989  0  0.939071  0  0  0.41172  0  0.923475  0  0  0.297822  0.393424  0  0.950088  0
H  H29  1  0.23636244  0.91638159  0.65783931  1  0  0.432883  0  0.872829  0  0  0.400998  0  0.939051  0  0  0.411727  0  0.923457  0  0  0.29786  0.393431  0  0.950071  0
H  H30  1  0.91695322  0.09776471  0.38980438  1  0  0.45788  0  0.829371  0  0  0.42911  0  0.888458  0  0  0.440129  0  0.872272  0  0  0.307562  0.421306  0  0.89991  0
H  H31  1  0.08304908  0.90222797  0.61019839  1  0  0.457831  0  0.829431  0  0  0.429062  0  0.888517  0  0  0.440081  0  0.872331  0  0  0.307545  0.42126  0  0.899968  0
C  C32  1  0.43270332  0.26344622  0.44834661  1  0  0.688147  0  3.876396  0  0  0.641086  0  4.172423  0  0  0.676189  0  4.161172  0  0  0.218254  0.617105  0  4.179448  0
C  C33  1  0.56729007  0.73655297  0.55165302  1  0  0.688171  0  3.876438  0  0  0.641109  0  4.172432  0  0  0.676213  0  4.161178  0  0  0.218217  0.61714  0  4.179439  0
C  C34  1  0.46752912  0.38443297  0.47648452  1  0  -0.046587  0  3.736545  0  0  -0.023009  0  3.964483  0  0  -0.028345  0  3.984892  0  0  -0.007257  -0.019228  0  3.950471  0
C  C35  1  0.53245813  0.61556734  0.52351068  1  0  -0.046719  0  3.736704  0  0  -0.023111  0  3.964564  0  0  -0.028448  0  3.984969  0  0  -0.007386  -0.019326  0  3.950545  0
C  C36  1  0.46758629  0.36193913  0.61282516  1  0  -0.087399  0  3.734162  0  0  -0.111017  0  3.98478  0  0  -0.112047  0  4.004495  0  0  -0.083918  -0.110116  0  3.971696  0
C  C37  1  0.53239833  0.63806443  0.38716938  1  0  -0.0876  0  3.73426  0  0  -0.111195  0  3.984888  0  0  -0.11223  0  4.004595  0  0  -0.084042  -0.110282  0  3.9718  0
C  C38  1  0.49915785  0.52306818  0.36448317  1  0  -0.072285  0  3.730571  0  0  -0.095572  0  3.978732  0  0  -0.096894  0  3.999316  0  0  -0.080342  -0.094476  0  3.964355  0
C  C39  1  0.50082318  0.47693315  0.63551409  1  0  -0.072412  0  3.730696  0  0  -0.095677  0  3.978857  0  0  -0.097002  0  3.999445  0  0  -0.080402  -0.094581  0  3.964476  0
C  C40  1  0.32717069  0.95411207  0.83662721  1  0  0.642028  0  3.904541  0  0  0.592295  0  4.202687  0  0  0.626787  0  4.193669  0  0  0.198152  0.569034  0  4.207903  0
C  C41  1  0.67284182  0.04589705  0.16336917  1  0  0.641927  0  3.904275  0  0  0.592231  0  4.202381  0  0  0.626721  0  4.193357  0  0  0.198145  0.568977  0  4.2076  0
C  C42  1  0.15840494  0.97827254  0.92084821  1  0  -0.0549  0  3.749502  0  0  -0.031312  0  3.979734  0  0  -0.03786  0  4.001168  0  0  -0.011036  -0.026954  0  3.965019  0
C  C43  1  0.84161072  0.02174755  0.07914207  1  0  -0.054556  0  3.749454  0  0  -0.031079  0  3.979778  0  0  -0.037623  0  4.001213  0  0  -0.010993  -0.026731  0  3.965076  0
C  C44  1  0.02602117  0.90561891  0.93342723  1  0  -0.063438  0  3.720614  0  0  -0.087985  0  3.970534  0  0  -0.087657  0  3.990117  0  0  -0.08155  -0.088021  0  3.957098  0
C  C45  1  0.97399444  0.09440226  0.06656263  1  0  -0.063466  0  3.72073  0  0  -0.087932  0  3.97062  0  0  -0.08759  0  3.99019  0  0  -0.081485  -0.087962  0  3.957181  0
C  C46  1  0.13212627  0.07332270  0.98782191  1  0  -0.072336  0  3.711234  0  0  -0.09681  0  3.964692  0  0  -0.097741  0  3.983939  0  0  -0.078257  -0.09616  0  3.951634  0
C  C47  1  0.86788950  0.92669520  0.01216922  1  0  -0.072517  0  3.71147  0  0  -0.096928  0  3.964962  0  0  -0.097867  0  3.984219  0  0  -0.07831  -0.096281  0  3.951913  0
C  C48  1  0.82933356  0.73508986  0.81595552  1  0  0.642425  0  3.907676  0  0  0.594826  0  4.206127  0  0  0.628613  0  4.19826  0  0  0.196794  0.571627  0  4.211392  0
C  C49  1  0.17065780  0.26489941  0.18405410  1  0  0.642552  0  3.907438  0  0  0.594922  0  4.205934  0  0  0.628711  0  4.198065  0  0  0.196872  0.571715  0  4.211204  0
C  C50  1  0.91898228  0.61269701  0.90883852  1  0  -0.05238  0  3.738595  0  0  -0.028067  0  3.966048  0  0  -0.034217  0  3.987736  0  0  -0.009356  -0.024402  0  3.952078  0
C  C51  1  0.08100980  0.38729979  0.09117707  1  0  -0.052625  0  3.738558  0  0  -0.028316  0  3.966054  0  0  -0.034476  0  3.987746  0  0  -0.00949  -0.024641  0  3.952069  0
C  C52  1  0.83602554  0.53684917  0.05287223  1  0  -0.062683  0  3.710453  0  0  -0.085623  0  3.957324  0  0  -0.08669  0  3.977356  0  0  -0.077343  -0.084956  0  3.944177  0
C  C53  1  0.16396415  0.46314655  0.94714255  1  0  -0.062464  0  3.71042  0  0  -0.085402  0  3.957293  0  0  -0.086458  0  3.977325  0  0  -0.077259  -0.084732  0  3.944134  0
C  C54  1  0.08417258  0.57490921  0.85595729  1  0  -0.072266  0  3.718819  0  0  -0.09665  0  3.971309  0  0  -0.096703  0  3.989532  0  0  -0.080792  -0.096326  0  3.959284  0
C  C55  1  0.91581835  0.42508652  0.14405718  1  0  -0.072096  0  3.718719  0  0  -0.096447  0  3.971217  0  0  -0.096482  0  3.989435  0  0  -0.080697  -0.09612  0  3.959191  0
C  C56  1  0.75456712  0.17058832  0.74383491  1  0  0.419402  0  3.7959  0  0  0.342747  0  4.093501  0  0  0.370716  0  4.094125  0  0  0.187825  0.324312  0  4.09191  0
C  C57  1  0.24543501  0.82940992  0.25615834  1  0  0.419541  0  3.795563  0  0  0.342883  0  4.093148  0  0  0.370854  0  4.09377  0  0  0.18796  0.324455  0  4.091574  0
C  C58  1  0.81555109  0.35529556  0.80416304  1  0  -0.187938  0  3.657782  0  0  -0.291398  0  3.912737  0  0  -0.288778  0  3.924566  0  0  -0.133425  -0.292872  0  3.90475  0
C  C59  1  0.18444586  0.64470698  0.19583160  1  0  -0.188044  0  3.657642  0  0  -0.291455  0  3.912608  0  0  -0.288838  0  3.924434  0  0  -0.133454  -0.292928  0  3.90463  0
C  C60  1  0.01830251  0.28544712  0.61725194  1  0  -0.163427  0  3.620479  0  0  -0.263341  0  3.865707  0  0  -0.259425  0  3.875022  0  0  -0.131997  -0.265733  0  3.859189  0
C  C61  1  0.98170980  0.71454122  0.38275467  1  0  -0.163568  0  3.620491  0  0  -0.263513  0  3.865762  0  0  -0.259598  0  3.875075  0  0  -0.13209  -0.265874  0  3.859254  0
N  N62  1  0.85927241  0.26497295  0.72429597  1  0  -0.084309  0  3.505553  0  0  0.022243  0  3.734925  0  0  0.001378  0  3.762097  0  0  -0.275835  0.036132  0  3.716029  0
N  N63  1  0.14072733  0.73502305  0.27570153  1  0  -0.084388  0  3.505855  0  0  0.022211  0  3.735142  0  0  0.00135  0  3.762311  0  0  -0.27586  0.036066  0  3.716279  0
O  O64  1  0.47242969  0.13063271  0.52040780  1  0  -0.792346  0  2.114698  0  0  -0.746672  0  2.366042  0  0  -0.773275  0  2.356693  0  0  -0.406085  -0.727422  0  2.372637  0
O  O65  1  0.52757090  0.86937095  0.47958549  1  0  -0.792441  0  2.114634  0  0  -0.746767  0  2.365975  0  0  -0.77337  0  2.356626  0  0  -0.406124  -0.727515  0  2.372549  0
O  O66  1  0.36307628  0.29442313  0.35213449  1  0  -0.66709  0  1.990477  0  0  -0.627372  0  2.224321  0  0  -0.651845  0  2.216327  0  0  -0.364891  -0.610698  0  2.229384  0
O  O67  1  0.63692101  0.70557401  0.64785765  1  0  -0.666953  0  1.990625  0  0  -0.62725  0  2.224491  0  0  -0.651727  0  2.216505  0  0  -0.364793  -0.610586  0  2.229547  0
O  O68  1  0.34982182  0.87082587  0.77085898  1  0  -0.695017  0  2.019512  0  0  -0.642863  0  2.245197  0  0  -0.66839  0  2.23654  0  0  -0.367902  -0.625032  0  2.250587  0
O  O69  1  0.65018313  0.12918645  0.22913892  1  0  -0.695072  0  2.019186  0  0  -0.642933  0  2.244885  0  0  -0.668458  0  2.236224  0  0  -0.367926  -0.625098  0  2.250282  0
O  O70  1  0.44784590  0.01735894  0.82812288  1  0  -0.670414  0  2.020877  0  0  -0.629933  0  2.262308  0  0  -0.654688  0  2.253177  0  0  -0.366319  -0.612506  0  2.268132  0
O  O71  1  0.55217305  0.98264477  0.17187407  1  0  -0.670468  0  2.021018  0  0  -0.629975  0  2.262413  0  0  -0.654727  0  2.25328  0  0  -0.366306  -0.612547  0  2.268238  0
O  O72  1  0.90207477  0.80844880  0.68396130  1  0  -0.691559  0  1.996235  0  0  -0.64205  0  2.226136  0  0  -0.667102  0  2.216573  0  0  -0.359283  -0.624539  0  2.233077  0
O  O73  1  0.09792145  0.19154159  0.31604757  1  0  -0.69161  0  1.996276  0  0  -0.642094  0  2.226202  0  0  -0.667143  0  2.216635  0  0  -0.35933  -0.62458  0  2.233145  0
O  O74  1  0.67964310  0.76529574  0.87015965  1  0  -0.674529  0  1.959447  0  0  -0.637697  0  2.189787  0  0  -0.661889  0  2.181016  0  0  -0.384711  -0.620434  0  2.195517  0
O  O75  1  0.32034708  0.23469474  0.12984060  1  0  -0.674506  0  1.95937  0  0  -0.637648  0  2.189723  0  0  -0.661846  0  2.180962  0  0  -0.38467  -0.620379  0  2.195447  0
O  O76  1  0.78168617  0.09859075  0.66994507  1  0  -0.622213  0  2.126641  0  0  -0.578879  0  2.389081  0  0  -0.602629  0  2.382346  0  0  -0.384468  -0.562017  0  2.392817  0
O  O77  1  0.21832211  0.90140640  0.33005075  1  0  -0.622353  0  2.126395  0  0  -0.579018  0  2.388857  0  0  -0.60277  0  2.382127  0  0  -0.384581  -0.562136  0  2.392549  0
O  O78  1  0.81567072  0.04289489  0.42179263  1  0  -0.915373  0  1.860903  0  0  -0.877182  0  2.056056  0  0  -0.896209  0  2.023412  0  0  -0.653547  -0.863519  0  2.078824  0
O  O79  1  0.18433161  0.95709782  0.57820830  1  0  -0.915304  0  1.860937  0  0  -0.87716  0  2.056082  0  0  -0.896183  0  2.023439  0  0  -0.653555  -0.863482  0  2.078818  0
