# generated using pymatgen
data_Ni2H44W(C19N8)2
_symmetry_space_group_name_H-M   'P 1'
_cell_length_a   12.64187687
_cell_length_b   13.81379413
_cell_length_c   16.37665475
_cell_angle_alpha   105.18340731
_cell_angle_beta   102.16681549
_cell_angle_gamma   114.51470728
_symmetry_Int_Tables_number   1
_chemical_formula_structural   Ni2H44W(C19N8)2
_chemical_formula_sum   'Ni4 H88 W2 C76 N32'
_cell_volume   2339.19661591
_cell_formula_units_Z   2
loop_
 _symmetry_equiv_pos_site_id
 _symmetry_equiv_pos_as_xyz
  1  'x, y, z'
loop_
 _atom_site_type_symbol
 _atom_site_label
 _atom_site_symmetry_multiplicity
 _atom_site_fract_x
 _atom_site_fract_y
 _atom_site_fract_z
 _atom_site_occupancy
 _atom_site_pbe_bader_charge
 _atom_site_pbe_bader_spin_density
 _atom_site_pbe_cm5_charge
 _atom_site_pbe_ddec_charge
 _atom_site_pbe_ddec_spin_density
 _atom_site_pbe_ddec_sum_bond_order
 _atom_site_pbe_magmom
Ni  Ni0  1  0.38901079  0.46335918  0.92251984  1  1.111446  1.440982  0.759855  0.617751  1.697476  2.91375  1.422
Ni  Ni1  1  0.96632899  0.54089556  0.07740488  1  1.108645  1.440527  0.760274  0.621232  1.69713  2.914023  1.422
Ni  Ni2  1  0.88091874  0.98349674  0.53411265  1  1.121483  1.439311  0.776082  0.635868  1.699207  2.976583  1.42
Ni  Ni3  1  0.84690119  0.44935295  0.46581671  1  1.124105  1.438958  0.775854  0.635184  1.699177  2.975471  1.419
H  H4  1  0.41459735  0.36974365  0.03407270  1  0.438854  -0.000366  0.295454  0.248241  -0.000284  0.972434  0.0
H  H5  1  0.88013433  0.33552538  0.96584888  1  0.432015  -0.000359  0.294138  0.245181  -0.000281  0.974893  0.0
H  H6  1  0.67305752  0.87794364  0.40571642  1  0.426708  -0.000542  0.299751  0.249386  -0.000492  0.956502  0.0
H  H7  1  0.76758313  0.47215603  0.59434398  1  0.438224  -0.000598  0.299312  0.24726  -0.000489  0.957188  0.0
H  H8  1  0.51408587  0.84810217  0.90296287  1  0.075061  0.001903  0.111879  0.115611  0.000884  0.9966  0.001
H  H9  1  0.11140455  0.94573056  0.09788422  1  0.098194  0.001895  0.111804  0.115317  0.000888  0.997305  0.001
H  H10  1  0.61464235  0.81608481  0.79163952  1  0.066018  0.000351  0.106163  0.098928  0.000136  1.005597  0.0
H  H11  1  0.32329914  0.02449510  0.20878650  1  0.069965  0.000353  0.106232  0.098516  0.000135  1.006675  0.0
H  H12  1  0.60621596  0.62554782  0.72865451  1  0.088145  0.002281  0.109722  0.112719  0.001104  1.016961  0.001
H  H13  1  0.37753412  0.89677149  0.27154995  1  0.111725  0.002289  0.109915  0.113002  0.00111  1.017593  0.001
H  H14  1  0.49151330  0.30138815  0.67963097  1  0.088972  0.00059  0.099228  0.153366  0.000287  1.018006  0.0
H  H15  1  0.31106191  0.62126769  0.32030400  1  0.080055  0.000596  0.098695  0.151493  0.000288  1.018734  0.0
H  H16  1  0.60264217  0.44583330  0.70525761  1  0.139725  -0.001067  0.102527  0.160727  -0.000951  1.034641  -0.001
H  H17  1  0.39700231  0.74026856  0.29498675  1  0.135434  -0.001072  0.102611  0.159998  -0.000955  1.033375  -0.001
H  H18  1  0.44541627  0.38802897  0.63359717  1  0.039831  0.000899  0.096704  0.138099  0.000376  0.988413  0.0
H  H19  1  0.31124023  0.75402050  0.36652585  1  0.051145  0.000913  0.096477  0.137807  0.000383  0.987818  0.0
H  H20  1  0.27565557  0.74666579  0.00039290  1  0.100954  -0.000927  0.108404  0.164508  -0.000825  0.973399  -0.001
H  H21  1  0.77525631  0.74659996  0.00016799  1  0.096487  -0.000929  0.108747  0.16596  -0.000827  0.972768  -0.001
H  H22  1  0.41412721  0.84756580  0.99359737  1  0.038349  0.001757  0.094816  0.13286  0.000811  1.010633  0.001
H  H23  1  0.92053247  0.85451616  0.00710341  1  0.048203  0.001756  0.094547  0.132566  0.000811  1.008918  0.001
H  H24  1  0.42044323  0.81276434  0.09172886  1  0.05584  -0.000545  0.099046  0.143503  -0.000536  1.015184  0.0
H  H25  1  0.82881861  0.72164154  0.90885543  1  0.079572  -0.000535  0.099668  0.144124  -0.000535  1.014782  0.0
H  H26  1  0.35380458  0.66007797  0.12163723  1  0.073559  0.002826  0.103065  0.082742  0.001278  1.030198  0.002
H  H27  1  0.73264255  0.53883174  0.87842756  1  0.076549  0.002822  0.10315  0.082297  0.001269  1.030643  0.002
H  H28  1  0.20858984  0.55547355  0.03241470  1  0.129261  0.001378  0.111642  0.102433  0.000667  1.047779  0.001
H  H29  1  0.67627425  0.52334247  0.96746229  1  0.142585  0.001377  0.111797  0.102247  0.000673  1.047038  0.001
H  H30  1  0.26522812  0.48417443  0.14708004  1  0.032576  -0.000182  0.094883  0.09803  -0.000122  1.023689  0.0
H  H31  1  0.61835266  0.33748636  0.85266335  1  0.032608  -0.000186  0.094857  0.096988  -0.000123  1.02505  0.0
H  H32  1  0.40697649  0.51272634  0.13579276  1  0.066822  5.1e-05  0.091627  0.088563  -5.4e-05  1.061832  0.0
H  H33  1  0.77143551  0.37718770  0.86420974  1  0.067708  5.1e-05  0.091574  0.088957  -5.2e-05  1.06272  0.0
H  H34  1  0.22378545  0.30054439  0.06110255  1  0.00748  0.007395  0.093801  0.064312  0.003433  0.975057  0.003
H  H35  1  0.66227517  0.23941260  0.93841582  1  0.034349  0.007356  0.094212  0.064689  0.003434  0.972761  0.003
H  H36  1  0.16244455  0.33759463  0.97328567  1  0.054855  0.001118  0.104788  0.087584  0.000363  0.996549  0.001
H  H37  1  0.68858024  0.36419446  0.02633231  1  0.045834  0.001106  0.105384  0.089275  0.000359  0.996534  0.001
H  H38  1  0.26809109  0.17042549  0.95844070  1  0.016151  0.008152  0.092812  0.060531  0.0038  0.982118  0.003
H  H39  1  0.80876861  0.21200422  0.04151893  1  0.004036  0.008157  0.092441  0.059552  0.003802  0.983349  0.003
H  H40  1  0.20058407  0.19973513  0.86712140  1  0.047605  0.001088  0.103483  0.084176  0.000378  0.98682  0.001
H  H41  1  0.83287951  0.33290998  0.13280811  1  0.052531  0.001096  0.103446  0.084561  0.000384  0.98631  0.001
H  H42  1  0.36848418  0.13207976  0.85937506  1  0.018135  -0.000108  0.090903  0.085598  -0.000126  1.006051  0.0
H  H43  1  0.00815148  0.27245312  0.14038993  1  0.026421  -0.000112  0.090722  0.085974  -0.000128  1.006746  0.0
H  H44  1  0.47841619  0.27465667  0.93481001  1  0.065415  -7.7e-05  0.104434  0.112729  -0.000125  0.993074  0.0
H  H45  1  0.04273628  0.33948638  0.06490587  1  0.062016  -7.2e-05  0.105573  0.11314  -0.000126  0.993477  0.0
H  H46  1  0.43856252  0.22509992  0.76335339  1  0.043324  0.002717  0.103965  0.077242  0.001263  1.013233  0.001
H  H47  1  0.17458789  0.46136702  0.23629158  1  0.05092  0.002672  0.103541  0.076189  0.001249  1.013991  0.001
H  H48  1  0.28920277  0.21042210  0.75001401  1  0.064425  0.000868  0.10843  0.093455  0.000299  0.976794  0.0
H  H49  1  0.03875875  0.46022267  0.24982934  1  0.062667  0.000875  0.108086  0.093155  0.000305  0.977523  0.0
H  H50  1  0.14679144  0.94445750  0.78214472  1  0.079193  0.001907  0.117654  0.121653  0.000853  0.988903  0.001
H  H51  1  0.86482313  0.16203129  0.21791894  1  0.076684  0.001892  0.116831  0.120211  0.000849  0.989227  0.001
H  H52  1  0.31143780  0.96947974  0.71584063  1  0.089219  0.000305  0.117676  0.114548  0.000153  0.964078  0.0
H  H53  1  0.09586705  0.25368674  0.28404949  1  0.085935  0.000308  0.118873  0.11577  0.000156  0.963301  0.0
H  H54  1  0.30073253  0.01815500  0.58004694  1  0.112303  0.001625  0.115949  0.124524  0.000729  0.997474  0.001
H  H55  1  0.22089883  0.43858046  0.41958042  1  0.080376  0.001652  0.11609  0.125249  0.000729  0.996936  0.001
H  H56  1  0.00203076  0.95055298  0.83093349  1  0.035494  0.00158  0.096827  0.136049  0.0007  1.007818  0.001
H  H57  1  0.67143749  0.11924580  0.16916198  1  0.032138  0.001573  0.096469  0.135683  0.000698  1.008098  0.001
H  H58  1  0.83641987  0.86989532  0.78122551  1  0.052345  0.000641  0.099562  0.138754  0.000189  1.004451  0.0
H  H59  1  0.55552120  0.08830826  0.21886885  1  0.057184  0.000656  0.099381  0.139527  0.000196  1.002557  0.0
H  H60  1  0.91382309  0.02370317  0.82799001  1  0.138376  -0.00044  0.106517  0.170059  -0.000442  1.010731  0.0
H  H61  1  0.58599367  0.19511848  0.17191753  1  0.139752  -0.000431  0.106827  0.169259  -0.000437  1.008925  0.0
H  H62  1  0.28197404  0.09391895  0.48197345  1  0.062203  0.001681  0.099697  0.141443  0.000784  1.005566  0.001
H  H63  1  0.29991563  0.61287119  0.51710802  1  0.042394  0.001694  0.09928  0.140339  0.000781  1.006857  0.001
H  H64  1  0.21604858  0.17537187  0.44900694  1  0.066778  -0.000939  0.102811  0.144391  -0.000835  0.987802  -0.001
H  H65  1  0.26650405  0.72702789  0.55023351  1  0.05592  -0.000934  0.10254  0.144634  -0.000829  0.988565  -0.001
H  H66  1  0.15672239  0.02995392  0.37521289  1  0.114478  -0.000709  0.108805  0.162496  -0.000702  0.986237  -0.001
H  H67  1  0.28199258  0.65575731  0.62407991  1  0.081862  -0.000706  0.108634  0.161441  -0.000686  0.986819  -0.001
H  H68  1  0.73589317  0.01093468  0.69206017  1  0.123842  0.002147  0.120015  0.115081  0.000941  0.960689  0.001
H  H69  1  0.54390211  0.31866101  0.30811185  1  0.111602  0.002178  0.119428  0.113559  0.000945  0.960562  0.001
H  H70  1  0.68591068  0.86617951  0.68065301  1  0.016555  0.002038  0.100519  0.066179  0.000963  0.996525  0.001
H  H71  1  0.50548214  0.18534440  0.31952729  1  0.037453  0.00202  0.100046  0.065753  0.000956  0.996433  0.001
H  H72  1  0.59635266  0.79751607  0.50992490  1  0.062694  4.7e-05  0.10079  0.107132  -2.5e-05  0.971362  0.0
H  H73  1  0.58665985  0.28752924  0.49020943  1  0.059444  4.8e-05  0.101101  0.1085  -2.4e-05  0.971237  0.0
H  H74  1  0.52786949  0.86468751  0.56984706  1  0.016544  -0.000126  0.093846  0.090215  -0.000128  0.984104  0.0
H  H75  1  0.45820810  0.29468647  0.43035208  1  0.000784  -0.000126  0.094546  0.091431  -0.00013  0.983365  0.0
H  H76  1  0.67253709  0.05325139  0.55380193  1  0.089041  0.000823  0.10788  0.100089  0.00025  0.998542  0.0
H  H77  1  0.61886053  0.49936503  0.44641085  1  0.109975  0.00081  0.107082  0.098827  0.00025  0.998545  0.0
H  H78  1  0.54124871  0.93966577  0.45782136  1  0.015195  0.007942  0.091158  0.05666  0.003711  0.988922  0.004
H  H79  1  0.58364445  0.48176601  0.54245554  1  0.010249  0.007954  0.09102  0.055623  0.003705  0.989022  0.004
H  H80  1  0.64753609  0.02136882  0.36226527  1  0.026919  0.007874  0.090427  0.057871  0.003644  0.993355  0.004
H  H81  1  0.78546459  0.65904333  0.63793138  1  0.024469  0.007891  0.090957  0.059337  0.003648  0.99258  0.004
H  H82  1  0.78622803  0.12861466  0.45730004  1  0.059045  0.00116  0.104808  0.093857  0.00044  0.988317  0.001
H  H83  1  0.82908859  0.67129831  0.54290661  1  0.064357  0.001165  0.104416  0.093077  0.000441  0.989554  0.001
H  H84  1  0.79579126  0.05367853  0.29452964  1  0.039863  -0.000168  0.088299  0.083643  -0.00016  1.021069  0.0
H  H85  1  0.00142109  0.75914434  0.70564312  1  -0.005332  -0.000168  0.088636  0.083975  -0.000161  1.01995  0.0
H  H86  1  0.77470159  0.92834087  0.31018778  1  0.096083  -3.4e-05  0.100082  0.115612  -6.5e-05  1.022849  0.0
H  H87  1  0.96472376  0.61813221  0.68993594  1  0.082695  -3.5e-05  0.099544  0.1143  -6.5e-05  1.024564  0.0
H  H88  1  0.99299024  0.06253535  0.34063589  1  0.070603  0.003384  0.103825  0.080575  0.001611  1.007742  0.002
H  H89  1  0.15245206  0.72164621  0.65947515  1  0.077666  0.00331  0.103468  0.080002  0.00157  1.008857  0.002
H  H90  1  0.99481366  0.17332543  0.42814655  1  0.02528  0.001075  0.106503  0.086397  0.000385  0.973586  0.001
H  H91  1  0.06706603  0.74545050  0.57223175  1  0.063383  0.001103  0.105853  0.085248  0.000404  0.972438  0.001
W  W92  1  0.68760917  0.61524130  0.24628082  1  1.919076  0.031042  0.927892  0.513271  0.026261  6.038213  0.031
W  W93  1  0.94125056  0.36867560  0.75363064  1  1.917464  0.031184  0.928443  0.512008  0.026363  6.040255  0.031
C  C94  1  0.60603888  0.57639847  0.10656513  1  0.67415  0.009607  0.009462  0.005887  0.005687  3.790012  0.013
C  C95  1  0.99921195  0.46940456  0.89337104  1  0.684115  0.009018  0.008858  0.004934  0.005611  3.794686  0.013
C  C96  1  0.77508753  0.74549992  0.37954222  1  0.756157  0.011769  0.019195  0.040222  0.006176  3.815426  0.014
C  C97  1  0.89535345  0.36568784  0.62033385  1  0.738049  0.011504  0.017968  0.040859  0.00607  3.815887  0.014
C  C98  1  0.93102857  0.22313330  0.66082393  1  0.736357  -0.001245  0.013886  0.027642  -0.003996  3.828842  0.006
C  C99  1  0.77000018  0.56224354  0.33901846  1  0.742902  -0.001533  0.014807  0.028931  -0.004193  3.828254  0.006
C  C100  1  0.11515106  0.37581626  0.80352526  1  0.750617  0.008495  0.018914  0.041437  0.003627  3.792971  0.012
C  C101  1  0.81176607  0.57268716  0.19650692  1  0.748863  0.008423  0.020342  0.042168  0.003631  3.794233  0.012
C  C102  1  0.59786151  0.71815515  0.24074579  1  0.696772  -0.000597  0.005443  -0.001176  -0.001213  3.805882  -0.001
C  C103  1  0.85739551  0.47742451  0.75927680  1  0.68435  -0.000604  0.006403  -0.001711  -0.001217  3.807524  -0.001
C  C104  1  0.58089551  0.42883347  0.17673056  1  0.666458  0.000372  -0.00457  -0.015691  -0.00017  3.857757  0.0
C  C105  1  0.90399447  0.25170942  0.82311954  1  0.667537  0.00036  -0.003746  -0.014334  -0.000181  3.856477  0.0
C  C106  1  0.82964612  0.76541185  0.23820809  1  0.688724  -0.000492  -0.017186  -0.028177  -0.001653  3.861561  -0.002
C  C107  1  0.09147159  0.52671624  0.76149329  1  0.71182  -0.000511  -0.017097  -0.027539  -0.00167  3.863197  -0.002
C  C108  1  0.53953462  0.55462764  0.29935562  1  0.680535  0.000442  -0.023534  -0.044461  -0.000314  3.891549  0.0
C  C109  1  0.74006931  0.25513306  0.70062616  1  0.64799  0.000427  -0.024395  -0.044328  -0.000328  3.891411  0.0
C  C110  1  0.45265125  0.67679829  0.90462743  1  0.546483  -0.002399  0.140559  0.184148  -0.004064  3.93673  -0.002
C  C111  1  0.04800959  0.77250285  0.09583970  1  0.548504  -0.002498  0.14056  0.183474  -0.004106  3.941637  -0.002
C  C112  1  0.51114207  0.76572393  0.87629029  1  -0.016079  -0.000187  -0.071965  -0.141931  -0.001647  3.923492  0.0
C  C113  1  0.13496249  0.88979736  0.12430448  1  -0.049325  -9e-05  -0.070451  -0.139155  -0.001598  3.926723  0.0
C  C114  1  0.56652787  0.74665271  0.81284309  1  0.004266  -0.005091  -0.073129  -0.042981  -0.005927  3.989053  -0.003
C  C115  1  0.25380136  0.93391598  0.18757674  1  -0.020056  -0.005084  -0.073911  -0.042648  -0.005929  3.992179  -0.003
C  C116  1  0.56152648  0.64042980  0.77697370  1  -0.055297  -0.001491  -0.075813  -0.150486  -0.002502  3.933674  -0.001
C  C117  1  0.28448914  0.86341460  0.22332122  1  -0.071768  -0.00144  -0.076  -0.151929  -0.002481  3.937803  -0.001
C  C118  1  0.49917801  0.55407341  0.80652896  1  0.489931  0.000961  0.130595  0.163987  -0.000996  3.945728  0.0
C  C119  1  0.19248064  0.74751700  0.19366652  1  0.527986  0.001014  0.130994  0.164644  -0.000947  3.948571  0.0
C  C120  1  0.47682260  0.43341032  0.77540815  1  0.681071  -0.006394  0.160185  0.265058  -0.009052  3.876255  -0.004
C  C121  1  0.20103690  0.65785489  0.22464202  1  0.645347  -0.006238  0.160897  0.267639  -0.008967  3.874252  -0.004
C  C122  1  0.50421228  0.38828443  0.69388157  1  -0.129642  0.003709  -0.238062  -0.460128  0.001928  3.914275  0.003
C  C123  1  0.30980492  0.69407821  0.30619438  1  -0.117974  0.003699  -0.236732  -0.456568  0.001924  3.91073  0.003
C  C124  1  0.39449113  0.67909491  0.97462080  1  0.676852  -0.008014  0.163069  0.262362  -0.010234  3.850381  -0.005
C  C125  1  0.91991219  0.70484722  0.02573093  1  0.662449  -0.008008  0.163236  0.262372  -0.010215  3.853915  -0.005
C  C126  1  0.37614053  0.77790211  0.01731468  1  -0.065246  0.004811  -0.230171  -0.44551  0.002763  3.932355  0.004
C  C127  1  0.85887145  0.76108597  0.98327148  1  -0.097955  0.004827  -0.231013  -0.446951  0.002767  3.931808  0.004
C  C128  1  0.30609732  0.57675692  0.06286958  1  0.256885  0.001711  -0.071169  -0.048878  0.001013  3.908306  0.0
C  C129  1  0.74344527  0.51418219  0.93713932  1  0.245744  0.001679  -0.070497  -0.045613  0.00099  3.909919  0.0
C  C130  1  0.31026580  0.48508314  0.09692966  1  -0.036347  0.003673  -0.167798  -0.19193  0.001735  3.888977  0.003
C  C131  1  0.71343661  0.38839360  0.90295105  1  -0.025873  0.003682  -0.168858  -0.193174  0.001743  3.894287  0.003
C  C132  1  0.24854969  0.36133552  0.02671649  1  0.298112  -0.000775  -0.071  -0.023755  -0.001398  3.885457  -0.002
C  C133  1  0.72145770  0.33459645  0.97298945  1  0.26276  -0.000688  -0.070692  -0.024402  -0.001385  3.886  -0.002
C  C134  1  0.28842813  0.22778466  0.92091739  1  0.299301  9e-05  -0.071609  -0.027718  -0.000404  3.913056  -0.002
C  C135  1  0.86683273  0.30691353  0.07900223  1  0.308829  7.5e-05  -0.070697  -0.026179  -0.00041  3.915038  -0.002
C  C136  1  0.38540502  0.22112567  0.88077397  1  -0.036264  0.002956  -0.163102  -0.204521  0.001312  3.924812  0.003
C  C137  1  0.00387672  0.34015641  0.11901195  1  -0.029211  0.002941  -0.162475  -0.203499  0.001311  3.92689  0.003
C  C138  1  0.38591628  0.25487154  0.79878582  1  0.312307  0.001016  -0.064271  -0.038734  0.000443  3.949737  0.0
C  C139  1  0.08659269  0.45588175  0.20098900  1  0.290044  0.001056  -0.063714  -0.037687  0.000438  3.951527  0.0
C  C140  1  0.03768996  0.97107196  0.67746405  1  0.501764  0.001174  0.134095  0.166677  -0.001116  3.939671  0.0
C  C141  1  0.86042354  0.29352726  0.32249299  1  0.50651  0.001286  0.133944  0.165859  -0.001002  3.939538  0.0
C  C142  1  0.13965953  0.96286481  0.72113485  1  -7.5e-05  -0.002297  -0.066981  -0.143992  -0.003557  3.935868  -0.001
C  C143  1  0.91875379  0.24158440  0.27884339  1  0.054991  -0.002273  -0.066936  -0.143136  -0.003582  3.93459  -0.001
C  C144  1  0.23233652  0.97748090  0.68389029  1  -0.054154  -0.002002  -0.064852  -0.039292  -0.0029  3.990757  -0.001
C  C145  1  0.04871052  0.29367901  0.31597883  1  -0.128504  -0.001816  -0.064529  -0.038118  -0.002734  3.989445  -0.001
C  C146  1  0.22617702  0.00408623  0.60688305  1  -0.003735  -0.001866  -0.069985  -0.153283  -0.00322  3.928687  -0.001
C  C147  1  0.11949593  0.39752776  0.39281401  1  0.029037  -0.00191  -0.070451  -0.15502  -0.003257  3.931499  -0.001
C  C148  1  0.12402230  0.01498494  0.56788987  1  0.466737  0.001909  0.131408  0.165165  -0.000292  3.950896  0.001
C  C149  1  0.05630940  0.44742775  0.43179985  1  0.50343  0.002036  0.130646  0.164095  -0.000162  3.95349  0.001
C  C150  1  0.92422071  0.95109542  0.70015904  1  0.665065  -0.000387  0.159816  0.261038  -0.00339  3.869624  0.0
C  C151  1  0.72426672  0.25076975  0.29985521  1  0.694446  -0.000247  0.157018  0.2587  -0.003302  3.870453  0.0
C  C152  1  0.91976806  0.94832493  0.79008080  1  -0.096787  0.004594  -0.232462  -0.453993  0.002669  3.931891  0.003
C  C153  1  0.62996394  0.15788164  0.20997614  1  -0.093961  0.004554  -0.23082  -0.452181  0.002676  3.929414  0.003
C  C154  1  0.09891571  0.04731954  0.48902360  1  0.667291  -0.009249  0.160193  0.262602  -0.011876  3.859194  -0.006
C  C155  1  0.10999312  0.55870089  0.51060942  1  0.663983  -0.009141  0.159794  0.262548  -0.01167  3.860918  -0.006
C  C156  1  0.19463326  0.08885256  0.44709456  1  -0.112455  0.004465  -0.228224  -0.450091  0.002455  3.931868  0.003
C  C157  1  0.24754830  0.64256889  0.55220985  1  -0.050079  0.00446  -0.227691  -0.448768  0.002441  3.934827  0.003
C  C158  1  0.71751361  0.92625016  0.64658222  1  0.288622  0.001527  -0.055534  -0.021361  0.000786  3.911  0.0
C  C159  1  0.57108705  0.27951615  0.35356646  1  0.29334  0.001535  -0.054145  -0.018217  0.000778  3.909844  0.0
C  C160  1  0.61352195  0.88151169  0.55532177  1  -0.026362  0.00378  -0.157018  -0.189374  0.001807  3.912418  0.003
C  C161  1  0.55839337  0.32609217  0.44485154  1  -0.02837  0.003796  -0.156043  -0.190819  0.001806  3.91293  0.003
C  C162  1  0.63286154  0.96391724  0.50563675  1  0.274388  -0.000278  -0.068867  -0.025327  -0.000814  3.879076  -0.002
C  C163  1  0.62735954  0.45820292  0.49455729  1  0.276427  -0.000284  -0.068386  -0.023756  -0.000809  3.878919  -0.002
C  C164  1  0.73831430  0.03929644  0.40660968  1  0.286471  -0.000419  -0.070492  -0.022335  -0.000984  3.885759  -0.002
C  C165  1  0.83189566  0.63264664  0.59355925  1  0.303436  -0.000405  -0.071976  -0.026285  -0.000976  3.886635  -0.002
C  C166  1  0.81262158  0.02103999  0.34736552  1  -0.058934  0.003382  -0.167209  -0.203362  0.00158  3.917676  0.003
C  C167  1  0.96545213  0.67365418  0.65278036  1  0.005822  0.003384  -0.166888  -0.201973  0.00159  3.917641  0.003
C  C168  1  0.95395116  0.07879976  0.39350019  1  0.327366  0.001489  -0.061285  -0.027732  0.000876  3.934901  0.0
C  C169  1  0.06062707  0.68531253  0.60662546  1  0.276377  0.001525  -0.060115  -0.025875  0.000878  3.932611  0.0
N  N170  1  0.56011094  0.54950973  0.02788236  1  -1.326842  0.063142  -0.385999  -0.373239  0.036798  3.380489  0.052
N  N171  1  0.03192717  0.52124523  0.97205285  1  -1.33514  0.063741  -0.386039  -0.373591  0.03684  3.383225  0.052
N  N172  1  0.82083345  0.81834970  0.45281389  1  -1.368439  0.07117  -0.393467  -0.389418  0.042037  3.395753  0.058
N  N173  1  0.86809774  0.36550242  0.54713649  1  -1.34967  0.071313  -0.391278  -0.388683  0.042045  3.39643  0.058
N  N174  1  0.92632973  0.14453483  0.60738546  1  -1.344354  0.079257  -0.391313  -0.364745  0.047754  3.433687  0.067
N  N175  1  0.81841897  0.53677717  0.39233577  1  -1.353482  0.079419  -0.390902  -0.364863  0.047775  3.433977  0.067
N  N176  1  0.21080864  0.38073942  0.83412908  1  -1.350229  0.069565  -0.385081  -0.364904  0.041081  3.390582  0.057
N  N177  1  0.87669244  0.54687406  0.16580111  1  -1.34546  0.069755  -0.387065  -0.366591  0.041211  3.394716  0.057
N  N178  1  0.55180659  0.77683696  0.24153014  1  -1.340834  0.002433  -0.375587  -0.392238  0.001308  2.997594  0.002
N  N179  1  0.81068121  0.53541338  0.75847544  1  -1.323093  0.002458  -0.376171  -0.390813  0.001324  2.997766  0.002
N  N180  1  0.52445353  0.32763921  0.13677002  1  -1.313315  0.000368  -0.393106  -0.409189  -4e-05  2.953604  0.0
N  N181  1  0.88715658  0.19015172  0.86277414  1  -1.320653  0.000344  -0.393927  -0.410267  -6e-05  2.954137  0.0
N  N182  1  0.90723759  0.84644354  0.23362473  1  -1.333234  0.004457  -0.398811  -0.403458  0.002379  2.946012  0.003
N  N183  1  0.17368366  0.61227681  0.76599687  1  -1.354205  0.004489  -0.398617  -0.40284  0.0024  2.947823  0.003
N  N184  1  0.46156313  0.52392232  0.33038194  1  -1.350212  0.003229  -0.413416  -0.422481  0.001739  2.932776  0.002
N  N185  1  0.63100985  0.19372043  0.66975200  1  -1.318537  0.003226  -0.413076  -0.423082  0.001736  2.933452  0.002
N  N186  1  0.44866596  0.57587959  0.86834225  1  -1.187722  0.08744  -0.322582  -0.2418  0.051573  3.645713  0.076
N  N187  1  0.08023119  0.70764457  0.13183328  1  -1.185725  0.087692  -0.323366  -0.244057  0.051701  3.647884  0.076
N  N188  1  0.36265611  0.58959482  0.99554077  1  -1.128893  0.093004  -0.312683  -0.192026  0.054975  3.434262  0.082
N  N189  1  0.86721512  0.59435810  0.00459826  1  -1.111532  0.093006  -0.314213  -0.196148  0.054925  3.439809  0.082
N  N190  1  0.33482929  0.34695046  0.98306055  1  -1.050896  0.084493  -0.490481  -0.306276  0.049845  3.538911  0.074
N  N191  1  0.85130420  0.36384116  0.01680053  1  -1.04306  0.084528  -0.49033  -0.304921  0.04992  3.542192  0.075
N  N192  1  0.43205658  0.37784083  0.82372656  1  -1.160755  0.080603  -0.323336  -0.236626  0.047883  3.461842  0.072
N  N193  1  0.10798049  0.55398694  0.17616180  1  -1.14925  0.080503  -0.325274  -0.240469  0.047853  3.464344  0.072
N  N194  1  0.03533349  0.99778349  0.60430153  1  -1.185804  0.091824  -0.326387  -0.245675  0.053973  3.656803  0.079
N  N195  1  0.93118548  0.39360144  0.39552247  1  -1.208212  0.091989  -0.326044  -0.245846  0.053934  3.65744  0.079
N  N196  1  0.83386717  0.94025366  0.63669831  1  -1.123825  0.087663  -0.317222  -0.225724  0.051657  3.441863  0.077
N  N197  1  0.69730425  0.30338886  0.36331253  1  -1.148723  0.087797  -0.316028  -0.225261  0.051769  3.439975  0.077
N  N198  1  0.71511934  0.96010960  0.45455105  1  -1.043825  0.089975  -0.484511  -0.304121  0.052999  3.527587  0.079
N  N199  1  0.76074015  0.50549621  0.54554454  1  -1.078675  0.089988  -0.484261  -0.299805  0.053019  3.524386  0.079
N  N200  1  0.99052076  0.03917518  0.46244496  1  -1.114499  0.089638  -0.313147  -0.20859  0.053177  3.440064  0.08
N  N201  1  0.02818515  0.57681300  0.53748165  1  -1.124795  0.089545  -0.311554  -0.206498  0.053052  3.43821  0.08
