# generated using pymatgen
data_CuH4C8S2(NO2)2
_symmetry_space_group_name_H-M   'P 1'
_cell_length_a   8.48856866
_cell_length_b   10.60758012
_cell_length_c   12.91459329
_cell_angle_alpha   89.99999201
_cell_angle_beta   109.85942937
_cell_angle_gamma   89.99977057
_symmetry_Int_Tables_number   1
_chemical_formula_structural   CuH4C8S2(NO2)2
_chemical_formula_sum   'Cu4 H16 C32 S8 N8 O16'
_cell_volume   1093.71374555
_cell_formula_units_Z   4
loop_
 _symmetry_equiv_pos_site_id
 _symmetry_equiv_pos_as_xyz
  1  'x, y, z'
loop_
 _atom_site_type_symbol
 _atom_site_label
 _atom_site_symmetry_multiplicity
 _atom_site_fract_x
 _atom_site_fract_y
 _atom_site_fract_z
 _atom_site_occupancy
 _atom_site_hle17_ddec_charge
 _atom_site_hle17_ddec_spin_density
 _atom_site_hle17_ddec_sum_bond_order
 _atom_site_hle17_magmom
 _atom_site_hse06_10hf_ddec_charge
 _atom_site_hse06_10hf_ddec_spin_density
 _atom_site_hse06_10hf_ddec_sum_bond_order
 _atom_site_hse06_10hf_magmom
 _atom_site_hse06_ddec_charge
 _atom_site_hse06_ddec_spin_density
 _atom_site_hse06_ddec_sum_bond_order
 _atom_site_hse06_magmom
 _atom_site_pbe_cm5_charge
 _atom_site_pbe_ddec_charge
 _atom_site_pbe_ddec_spin_density
 _atom_site_pbe_ddec_sum_bond_order
 _atom_site_pbe_magmom
Cu  Cu0  1  0.20745361  0.62025419  0.49191396  1  0.881803  0.670392  1.75936  0.48  0.865114  0.788628  2.142608  0.616  0.956986  0.875367  2.074592  0.708  0.739442  0.809987  0.715547  2.188735  0.547
Cu  Cu1  1  0.29254331  0.12025313  0.00808006  1  0.881723  -0.670396  1.759612  -0.48  0.865051  -0.788622  2.142805  -0.616  0.956878  -0.875351  2.074778  -0.708  0.73946  0.809953  -0.715547  2.188902  -0.547
Cu  Cu2  1  0.79257905  0.37974783  0.50809524  1  0.881768  0.67044  1.759526  0.48  0.865123  0.788654  2.142768  0.616  0.956967  0.875375  2.074777  0.708  0.73949  0.810087  0.715577  2.188775  0.547
Cu  Cu3  1  0.70742673  0.87975078  0.99191350  1  0.881702  -0.670432  1.759661  -0.48  0.865009  -0.788637  2.142907  -0.616  0.956824  -0.875353  2.074878  -0.708  0.739437  0.809918  -0.715571  2.189011  -0.547
H  H4  1  0.12851493  0.24775089  0.77831280  1  0.119079  -3.6e-05  0.959439  0.0  0.122303  -0.000162  1.030162  -0.001  0.126002  -0.000129  1.025971  0.0  0.119763  0.119432  -0.000177  1.033419  -0.001
H  H5  1  0.37148077  0.74773727  0.72168708  1  0.119144  3.6e-05  0.959355  0.0  0.122357  0.000162  1.030097  0.001  0.126057  0.00013  1.025905  0.0  0.119764  0.119484  0.000177  1.033353  0.001
H  H6  1  0.87146766  0.75226811  0.22167893  1  0.119166  -3.4e-05  0.95945  0.0  0.122364  -0.000162  1.030202  -0.001  0.126064  -0.000129  1.026009  0.0  0.119797  0.119494  -0.000177  1.033451  -0.001
H  H7  1  0.62853808  0.25227041  0.27832675  1  0.119068  3.5e-05  0.959616  0.0  0.12232  0.000162  1.030309  0.001  0.126023  0.000129  1.026112  0.0  0.119736  0.11945  0.000177  1.033563  0.001
H  H8  1  0.59050030  0.30410605  0.03230645  1  0.137431  -0.000468  0.929558  -0.001  0.144966  -0.000422  0.988909  -0.001  0.147793  -0.000346  0.985774  -0.001  0.133799  0.142792  -0.000461  0.991104  -0.001
H  H9  1  0.90950140  0.80411492  0.46769831  1  0.137423  0.000469  0.929654  0.001  0.144919  0.000421  0.989035  0.001  0.147749  0.000346  0.985886  0.001  0.133806  0.142747  0.00046  0.991232  0.001
H  H10  1  0.40949853  0.69587051  0.96769823  1  0.13748  -0.000464  0.929677  -0.001  0.144966  -0.000421  0.989044  -0.001  0.147794  -0.000346  0.9859  -0.001  0.133837  0.142783  -0.00046  0.99126  -0.001
H  H11  1  0.09051876  0.19587108  0.53230265  1  0.137418  0.000469  0.929723  0.001  0.144898  0.000421  0.989103  0.001  0.147716  0.000345  0.985985  0.001  0.133801  0.142727  0.00046  0.991298  0.001
H  H12  1  0.40385202  0.02343915  0.25143495  1  0.11887  -1.3e-05  0.932092  0.0  0.125804  -0.000142  0.995165  -0.001  0.128566  -0.000111  0.992689  0.0  0.122765  0.123653  -0.000184  0.9971  -0.001
H  H13  1  0.09617302  0.52345003  0.24855611  1  0.118858  1e-05  0.932071  0.0  0.125801  0.000141  0.995132  0.001  0.128562  0.000111  0.992656  0.0  0.122771  0.123637  0.000184  0.997093  0.001
H  H14  1  0.59614059  0.97656382  0.74855749  1  0.118793  -1.3e-05  0.932102  0.0  0.125706  -0.000141  0.995197  -0.001  0.128467  -0.000111  0.99272  0.0  0.122729  0.123548  -0.000184  0.997143  -0.001
H  H15  1  0.90384083  0.47655953  0.75145504  1  0.118839  1.6e-05  0.932048  0.0  0.125835  0.000141  0.995026  0.001  0.1286  0.000111  0.992545  0.0  0.122774  0.123671  0.000184  0.996999  0.001
H  H16  1  0.07666739  0.87486666  0.95303207  1  0.127392  -0.000207  0.951006  -0.001  0.133772  -0.000201  1.012755  -0.001  0.136019  -0.000147  1.011253  -0.001  0.127222  0.131928  -0.00024  1.014095  -0.001
H  H17  1  0.42331637  0.37485478  0.54695969  1  0.127343  0.000208  0.950933  0.001  0.133675  0.000201  1.012807  0.001  0.135914  0.000147  1.011319  0.001  0.127237  0.13184  0.000241  1.014146  0.001
H  H18  1  0.92328385  0.12513913  0.04696113  1  0.127372  -0.000208  0.950968  -0.001  0.133781  -0.000202  1.012683  -0.001  0.136023  -0.000147  1.011197  -0.001  0.127249  0.131958  -0.000241  1.014004  -0.001
H  H19  1  0.57671131  0.62513970  0.45304064  1  0.127391  0.000212  0.950897  0.001  0.133784  0.000201  1.012625  0.001  0.136028  0.000147  1.011134  0.001  0.127238  0.131962  0.000241  1.013949  0.001
C  C20  1  0.23327920  0.44387367  0.66076105  1  0.653215  -0.003943  3.970135  -0.007  0.616492  -0.000849  4.259725  -0.004  0.655628  -0.001122  4.251531  -0.003  0.198838  0.590352  -0.000513  4.264232  -0.004
C  C21  1  0.26672295  0.94386983  0.83924180  1  0.653395  0.00396  3.969775  0.007  0.616699  0.000847  4.259321  0.004  0.655832  0.001125  4.251141  0.003  0.19896  0.590559  0.000515  4.263828  0.004
C  C22  1  0.76674223  0.55612458  0.33923710  1  0.653472  -0.003948  3.969707  -0.007  0.616761  -0.000849  4.259309  -0.004  0.655894  -0.001122  4.251116  -0.003  0.198925  0.590625  -0.000514  4.263828  -0.004
C  C23  1  0.73326459  0.05612748  0.16076499  1  0.653473  0.003949  3.969666  0.007  0.616783  0.000847  4.259226  0.004  0.655912  0.001125  4.251037  0.003  0.19899  0.590633  0.000514  4.263737  0.004
C  C24  1  0.31458037  0.38614311  0.77099326  1  -0.183627  0.003515  3.706224  0.004  -0.15709  0.002937  3.955414  0.003  -0.168286  0.001584  3.974711  0.002  -0.022459  -0.14994  0.00389  3.942461  0.004
C  C25  1  0.18541960  0.88613390  0.72900679  1  -0.183648  -0.003519  3.706349  -0.004  -0.157146  -0.002931  3.955585  -0.003  -0.168348  -0.001584  3.974888  -0.002  -0.02248  -0.150022  -0.003889  3.942668  -0.004
C  C26  1  0.68543602  0.61386456  0.22901150  1  -0.183615  0.003538  3.706431  0.004  -0.157077  0.002937  3.9556  0.003  -0.168275  0.001582  3.974895  0.002  -0.022474  -0.149955  0.00389  3.942683  0.004
C  C27  1  0.81457172  0.11386812  0.27099543  1  -0.183723  -0.003516  3.706591  -0.004  -0.157219  -0.002932  3.955782  -0.003  -0.168415  -0.001585  3.975078  -0.002  -0.022531  -0.150054  -0.00389  3.942818  -0.004
C  C28  1  0.24892389  0.29274303  0.81774958  1  0.086132  0.000974  3.674316  0.002  0.0441  0.000168  3.933444  0.001  0.053901  0.00063  3.949859  0.001  0.024778  0.038008  -0.000131  3.922739  0.001
C  C29  1  0.25107157  0.79273832  0.68224869  1  0.08599  -0.000974  3.674568  -0.002  0.043984  -0.000165  3.933714  -0.001  0.053791  -0.000632  3.950136  -0.001  0.024708  0.037894  0.000132  3.92301  -0.001
C  C30  1  0.75106372  0.70726276  0.18224173  1  0.085815  0.000952  3.674517  0.002  0.043855  0.000168  3.933634  0.001  0.05366  0.00063  3.950053  0.001  0.024675  0.037764  -0.000131  3.922928  0.001
C  C31  1  0.74894227  0.20726465  0.31776246  1  0.085889  -0.000974  3.674767  -0.002  0.043943  -0.000165  3.933819  -0.001  0.05375  -0.000631  3.950235  -0.001  0.024763  0.037842  0.000132  3.923115  -0.001
C  C32  1  0.49310123  0.32133066  0.95355867  1  0.039515  0.006304  3.607466  0.006  -0.000509  0.001429  3.898483  0.002  0.014548  0.002459  3.908782  0.003  0.052301  -0.010265  0.000561  3.892219  0.001
C  C33  1  0.00689031  0.82133621  0.54644026  1  0.039519  -0.00632  3.607742  -0.007  -0.000442  -0.001427  3.898749  -0.002  0.014618  -0.00246  3.909066  -0.003  0.052328  -0.010208  -0.00056  3.892489  -0.001
C  C34  1  0.50688635  0.67865345  0.04643728  1  0.039456  0.006272  3.607675  0.006  -0.000466  0.001429  3.898711  0.002  0.014596  0.002459  3.909021  0.003  0.052316  -0.010232  0.00056  3.892441  0.001
C  C35  1  0.99311982  0.17865733  0.45356231  1  0.039488  -0.006319  3.607762  -0.007  -0.000434  -0.001428  3.898849  -0.002  0.014644  -0.002461  3.909126  -0.003  0.052339  -0.010204  -0.000561  3.892598  -0.001
C  C36  1  0.29515591  0.80078816  0.35217929  1  0.640083  -0.002304  3.986092  -0.005  0.596934  0.000665  4.293686  -0.001  0.634192  0.000313  4.287012  -0.001  0.189051  0.571745  0.000973  4.297167  -0.002
C  C37  1  0.20486261  0.30079587  0.14781180  1  0.640233  0.002305  3.986097  0.005  0.597115  -0.000664  4.293631  0.001  0.63437  -0.000311  4.286958  0.001  0.189132  0.571917  -0.000972  4.297112  0.002
C  C38  1  0.70485550  0.19920632  0.64781583  1  0.640238  -0.002299  3.986206  -0.005  0.597133  0.000665  4.29374  -0.001  0.634392  0.000314  4.287061  -0.001  0.189153  0.571947  0.000973  4.297226  -0.002
C  C39  1  0.79512873  0.69921181  0.85218577  1  0.64057  0.002298  3.986069  0.005  0.597434  -0.000665  4.293629  0.001  0.634691  -0.000311  4.286947  0.001  0.189237  0.572234  -0.000973  4.29711  0.002
C  C40  1  0.25766821  0.84918381  0.23778864  1  -0.192469  0.00484  3.722117  0.005  -0.172413  0.003036  3.987585  0.003  -0.181604  0.001578  4.005317  0.002  -0.028923  -0.166492  0.004139  3.975607  0.004
C  C41  1  0.24233750  0.34918384  0.26220422  1  -0.192613  -0.004853  3.722221  -0.005  -0.172518  -0.003034  3.987615  -0.003  -0.18171  -0.00158  4.005344  -0.002  -0.028936  -0.166585  -0.004139  3.975628  -0.004
C  C42  1  0.74231563  0.15081822  0.76220415  1  -0.192779  0.004836  3.722179  0.005  -0.17278  0.003036  3.987705  0.003  -0.181978  0.001578  4.005435  0.002  -0.029032  -0.166867  0.004139  3.975737  0.004
C  C43  1  0.75766382  0.65081536  0.73780335  1  -0.192763  -0.004792  3.722207  -0.005  -0.172725  -0.003035  3.987727  -0.003  -0.181925  -0.001576  4.005462  -0.002  -0.028972  -0.166781  -0.004139  3.975723  -0.004
C  C44  1  0.31521482  0.95536438  0.20113308  1  0.085221  0.001125  3.66282  0.002  0.042312  0.000176  3.926753  0.001  0.051255  0.000654  3.944195  0.001  0.019032  0.036849  -8e-06  3.915123  0.0
C  C45  1  0.18480661  0.45536649  0.29886020  1  0.085343  -0.001097  3.66303  -0.002  0.042429  -0.000174  3.926961  -0.001  0.051377  -0.000655  3.944399  -0.001  0.019057  0.036965  7e-06  3.915323  0.0
C  C46  1  0.68476774  0.04463764  0.79886330  1  0.085474  0.001126  3.662718  0.002  0.042617  0.000177  3.926625  0.001  0.051566  0.000655  3.944062  0.001  0.019107  0.037152  -7e-06  3.914994  0.0
C  C47  1  0.81520727  0.54463836  0.70114322  1  0.085295  -0.00117  3.662802  -0.002  0.04236  -0.000172  3.92676  -0.001  0.05131  -0.000658  3.944198  -0.001  0.019035  0.036881  7e-06  3.915128  0.0
C  C48  1  0.14276845  0.87983850  0.04082876  1  0.029175  0.00671  3.639509  0.007  -0.014474  0.001937  3.941622  0.002  -0.000895  0.002816  3.952702  0.003  0.043274  -0.023143  0.001165  3.934676  0.001
C  C49  1  0.35722833  0.37982587  0.45916286  1  0.029423  -0.00671  3.639575  -0.007  -0.014154  -0.001931  3.941522  -0.002  -0.000575  -0.002815  3.952598  -0.003  0.043335  -0.022829  -0.001163  3.934594  -0.001
C  C50  1  0.85719407  0.12017106  0.95916543  1  0.029224  0.006723  3.639563  0.007  -0.014475  0.001935  3.941692  0.002  -0.000904  0.002816  3.952774  0.003  0.043404  -0.023153  0.001163  3.934736  0.001
C  C51  1  0.64279810  0.62016672  0.54083951  1  0.02931  -0.006767  3.639462  -0.007  -0.014342  -0.001931  3.941533  -0.002  -0.000764  -0.002817  3.952612  -0.003  0.043498  -0.023032  -0.001163  3.934604  -0.001
S  S52  1  0.51043169  0.42846346  0.85969880  1  0.206168  -0.005775  2.583889  -0.007  0.21148  -0.004482  2.894387  -0.006  0.210422  -0.003257  2.900204  -0.004  0.142524  0.21138  -0.005327  2.890955  -0.006
S  S53  1  0.98957260  0.92845699  0.64030262  1  0.206192  0.005778  2.58419  0.007  0.211511  0.004477  2.894692  0.006  0.210456  0.003252  2.900509  0.004  0.142518  0.211421  0.005325  2.891278  0.006
S  S54  1  0.48958972  0.57152725  0.14030244  1  0.206172  -0.005768  2.584024  -0.007  0.211479  -0.004481  2.8945  -0.006  0.210422  -0.003253  2.900315  -0.004  0.142572  0.211388  -0.005325  2.891079  -0.006
S  S55  1  0.01042251  0.07152335  0.35969193  1  0.206216  0.005774  2.58386  0.007  0.211537  0.00448  2.894323  0.006  0.210476  0.003254  2.900132  0.004  0.142586  0.211436  0.005325  2.890895  0.006
S  S56  1  0.11874858  0.76903476  0.12858174  1  0.228522  -0.005149  2.749811  -0.006  0.224808  -0.003624  3.108499  -0.005  0.226227  -0.002454  3.107439  -0.004  0.147691  0.222776  -0.004546  3.110175  -0.006
S  S57  1  0.38124124  0.26903337  0.37141608  1  0.228476  0.005145  2.750137  0.006  0.224739  0.003623  3.108814  0.005  0.226157  0.002452  3.107754  0.004  0.147677  0.222704  0.004544  3.110502  0.006
S  S58  1  0.88122520  0.23095784  0.87141731  1  0.228743  -0.005148  2.750096  -0.006  0.225048  -0.003626  3.108831  -0.005  0.226472  -0.002452  3.107768  -0.004  0.147723  0.223018  -0.004545  3.110513  -0.006
S  S59  1  0.61876136  0.73096206  0.62858636  1  0.228624  0.005157  2.749984  0.006  0.224918  0.003624  3.108701  0.005  0.226337  0.002453  3.10764  0.004  0.147674  0.222882  0.004546  3.110383  0.006
N  N60  1  0.35030318  0.25751805  0.92109359  1  -0.272076  -0.060278  3.327807  -0.075  -0.226703  -0.046957  3.631522  -0.062  -0.257755  -0.040381  3.65161  -0.056  -0.352693  -0.208444  -0.048885  3.619717  -0.062
N  N61  1  0.14969245  0.75751651  0.57890783  1  -0.272051  0.060299  3.327825  0.075  -0.226716  0.04696  3.631568  0.062  -0.257795  0.040382  3.651678  0.056  -0.352685  -0.20843  0.048891  3.619752  0.062
N  N62  1  0.64968065  0.74248492  0.07889920  1  -0.271867  -0.060275  3.327545  -0.075  -0.226613  -0.046964  3.631354  -0.062  -0.257677  -0.040386  3.651446  -0.056  -0.352702  -0.208334  -0.048891  3.619533  -0.062
N  N63  1  0.85032766  0.24248834  0.42110474  1  -0.2718  0.060296  3.327709  0.075  -0.226635  0.046956  3.63158  0.062  -0.257707  0.040379  3.651699  0.056  -0.352718  -0.208369  0.048887  3.619776  0.062
N  N64  1  0.24706552  0.97243814  0.08903525  1  -0.288211  -0.063933  3.347466  -0.08  -0.244233  -0.049129  3.655726  -0.065  -0.276743  -0.041958  3.679258  -0.058  -0.359515  -0.224852  -0.051511  3.641687  -0.066
N  N65  1  0.25294454  0.47243058  0.41095701  1  -0.288426  0.063926  3.347662  0.08  -0.244495  0.049127  3.656005  0.065  -0.277017  0.041954  3.679543  0.058  -0.359567  -0.225105  0.05151  3.641982  0.066
N  N66  1  0.75291204  0.02756765  0.91096000  1  -0.288409  -0.06394  3.347402  -0.08  -0.244423  -0.049127  3.655678  -0.065  -0.276933  -0.041956  3.679201  -0.058  -0.359659  -0.225045  -0.05151  3.641648  -0.066
N  N67  1  0.74707814  0.52756201  0.58904142  1  -0.288384  0.063959  3.347399  0.08  -0.244429  0.049119  3.655714  0.065  -0.276945  0.041951  3.67926  0.058  -0.359701  -0.225061  0.051505  3.641702  0.066
O  O68  1  0.31753549  0.53427586  0.63691134  1  -0.616029  0.087295  2.086611  0.115  -0.590303  0.061712  2.370001  0.089  -0.634338  0.04853  2.363293  0.074  -0.327241  -0.561214  0.068159  2.374416  0.094
O  O69  1  0.18246388  0.03427609  0.86308631  1  -0.616102  -0.087295  2.086571  -0.115  -0.590383  -0.061714  2.369941  -0.089  -0.63441  -0.048542  2.363227  -0.074  -0.327278  -0.561303  -0.068163  2.374348  -0.094
O  O70  1  0.68249718  0.46572616  0.36309631  1  -0.616016  0.087296  2.086424  0.115  -0.590301  0.06171  2.369786  0.089  -0.634333  0.04853  2.363095  0.074  -0.327212  -0.561228  0.068161  2.374195  0.094
O  O71  1  0.81751117  0.96572593  0.13690760  1  -0.615983  -0.087294  2.086494  -0.115  -0.59026  -0.061711  2.369846  -0.089  -0.634282  -0.04854  2.363132  -0.074  -0.32721  -0.561189  -0.068158  2.374277  -0.094
O  O72  1  0.09586751  0.40153343  0.60025499  1  -0.59982  -0.000508  2.012694  0.001  -0.576534  0.000169  2.276185  0.002  -0.606235  -0.000809  2.265572  0.0  -0.310764  -0.556709  0.001101  2.283228  0.003
O  O73  1  0.40413989  0.90153383  0.89974673  1  -0.599903  0.000501  2.012597  -0.001  -0.576647  -0.000174  2.276137  -0.002  -0.606312  0.000819  2.265449  0.0  -0.31082  -0.556807  -0.001101  2.283161  -0.003
O  O74  1  0.90415393  0.59846954  0.39974006  1  -0.600029  -0.000505  2.012542  0.001  -0.57676  0.000171  2.276067  0.002  -0.606457  -0.000811  2.265435  0.0  -0.310861  -0.556933  0.001101  2.283132  0.003
O  O75  1  0.59585266  0.09847102  0.10026119  1  -0.599982  0.00051  2.012505  -0.001  -0.576711  -0.000177  2.275996  -0.002  -0.606412  0.000822  2.265389  0.0  -0.310876  -0.556893  -0.001101  2.283078  -0.003
O  O76  1  0.17858744  0.72532251  0.35953267  1  -0.613919  0.082459  2.082476  0.109  -0.593487  0.053879  2.378431  0.078  -0.638406  0.042069  2.37159  0.064  -0.334273  -0.563059  0.059798  2.382549  0.083
O  O77  1  0.32141642  0.22531191  0.14046444  1  -0.613848  -0.082463  2.08264  -0.109  -0.59349  -0.053888  2.378684  -0.078  -0.6384  -0.042082  2.371837  -0.064  -0.33431  -0.563067  -0.059803  2.382792  -0.083
O  O78  1  0.82141392  0.27468423  0.64046716  1  -0.613974  0.082461  2.082523  0.109  -0.593556  0.053879  2.378462  0.078  -0.63847  0.042071  2.371627  0.064  -0.33432  -0.563142  0.059799  2.382573  0.083
O  O79  1  0.67857240  0.77468728  0.85953567  1  -0.613974  -0.082453  2.082778  -0.109  -0.593549  -0.053883  2.378744  -0.078  -0.638459  -0.042077  2.371887  -0.064  -0.33428  -0.56313  -0.0598  2.382856  -0.083
O  O80  1  0.42623300  0.83287065  0.42640575  1  -0.586391  -0.000665  1.928087  0.0  -0.552249  -0.000135  2.151437  0.0  -0.577159  -0.000804  2.143837  -0.001  -0.32463  -0.534707  0.000433  2.156076  0.001
O  O81  1  0.07379792  0.33289012  0.07357574  1  -0.586512  0.000661  1.927835  0.0  -0.55239  0.000126  2.151177  0.0  -0.5773  0.000809  2.143579  0.001  -0.324676  -0.534842  -0.000432  2.15581  -0.001
O  O82  1  0.57378470  0.16712760  0.57358459  1  -0.586457  -0.00067  1.928269  0.0  -0.552312  -0.000131  2.151578  0.0  -0.577224  -0.000806  2.143975  -0.001  -0.324678  -0.534769  0.000432  2.156217  0.001
O  O83  1  0.92618840  0.66712038  0.92642071  1  -0.586718  0.000668  1.927923  0.0  -0.552573  0.000127  2.151262  0.0  -0.577483  0.000807  2.143654  0.001  -0.32484  -0.535031  -0.000433  2.155903  -0.001
