# generated using pymatgen
data_CuH14C14(N5O3)2
_symmetry_space_group_name_H-M   'P 1'
_cell_length_a   6.82053972
_cell_length_b   7.99240519
_cell_length_c   16.89777335
_cell_angle_alpha   90.00065704
_cell_angle_beta   89.99921927
_cell_angle_gamma   97.88655732
_symmetry_Int_Tables_number   1
_chemical_formula_structural   CuH14C14(N5O3)2
_chemical_formula_sum   'Cu2 H28 C28 N20 O12'
_cell_volume   912.42772286
_cell_formula_units_Z   2
loop_
 _symmetry_equiv_pos_site_id
 _symmetry_equiv_pos_as_xyz
  1  'x, y, z'
loop_
 _atom_site_type_symbol
 _atom_site_label
 _atom_site_symmetry_multiplicity
 _atom_site_fract_x
 _atom_site_fract_y
 _atom_site_fract_z
 _atom_site_occupancy
 _atom_site_hle17_ddec_charge
 _atom_site_hle17_ddec_spin_density
 _atom_site_hle17_ddec_sum_bond_order
 _atom_site_hle17_magmom
 _atom_site_hse06_10hf_bader_charge
 _atom_site_hse06_10hf_bader_spin_density
 _atom_site_hse06_10hf_ddec_charge
 _atom_site_hse06_10hf_ddec_spin_density
 _atom_site_hse06_10hf_ddec_sum_bond_order
 _atom_site_hse06_10hf_magmom
 _atom_site_hse06_ddec_charge
 _atom_site_hse06_ddec_spin_density
 _atom_site_hse06_ddec_sum_bond_order
 _atom_site_hse06_magmom
 _atom_site_pbe_cm5_charge
 _atom_site_pbe_ddec_charge
 _atom_site_pbe_ddec_spin_density
 _atom_site_pbe_ddec_sum_bond_order
 _atom_site_pbe_magmom
Cu  Cu0  1  0.50000147  0.49999810  0.49999899  1  0.746244  -0.695031  1.940433  -0.532  1.129093  -0.649093  0.70882  -0.785958  2.339355  -0.646  0.786948  -0.843623  2.284678  -0.723  0.790628  0.660329  -0.743585  2.376935  -0.593
Cu  Cu1  1  0.49999805  0.00000229  0.00000039  1  0.74639  -0.695037  1.940195  -0.532  1.129125  -0.649099  0.708902  -0.785967  2.339214  -0.646  0.787125  -0.843635  2.284447  -0.723  0.790636  0.66037  -0.743588  2.376897  -0.593
H  H2  1  0.13681486  0.65041440  0.46222383  1  0.106547  0.000341  0.98447  0.0  0.243313  0.000186  0.11163  0.00021  1.055017  0.0  0.114864  0.000201  1.051114  0.0  0.148367  0.109047  0.000205  1.058021  0.0
H  H3  1  0.86318952  0.84958441  0.96222493  1  0.106562  0.000341  0.984435  0.0  0.24334  0.000186  0.111658  0.00021  1.054956  0.0  0.114892  0.000201  1.051055  0.0  0.148362  0.109052  0.000205  1.057996  0.0
H  H4  1  0.86318914  0.34958810  0.53777829  1  0.106583  0.000339  0.984427  0.0  0.243312  0.000186  0.111626  0.00021  1.055051  0.0  0.114861  0.000201  1.051142  0.0  0.148359  0.109039  0.000205  1.058069  0.0
H  H5  1  0.13680820  0.15041560  0.03777838  1  0.106623  0.00034  0.984407  0.0  0.24334  0.000187  0.111678  0.00021  1.054984  0.0  0.11491  0.0002  1.05108  0.0  0.148364  0.108925  0.000205  1.058526  0.0
H  H6  1  0.15260948  0.88300858  0.55223569  1  0.136474  -0.000206  0.953001  -0.001  0.225914  -0.000743  0.142846  -0.00035  1.019471  -0.001  0.145936  -0.000254  1.015841  0.0  0.132177  0.140418  -0.000419  1.022275  -0.001
H  H7  1  0.84738786  0.61699706  0.05224172  1  0.136435  -0.000206  0.952998  -0.001  0.2259  -0.000743  0.14277  -0.00035  1.019505  -0.001  0.145861  -0.000254  1.015876  0.0  0.132136  0.14034  -0.000419  1.02229  -0.001
H  H8  1  0.84738469  0.11699650  0.44776584  1  0.136463  -0.000205  0.95294  -0.001  0.225817  -0.000743  0.142864  -0.00035  1.019386  -0.001  0.145956  -0.000254  1.015752  0.0  0.132158  0.140428  -0.000419  1.022202  -0.001
H  H9  1  0.15261425  0.38300293  0.94776040  1  0.136454  -0.000204  0.952837  -0.001  0.225876  -0.000743  0.142772  -0.00035  1.019382  -0.001  0.145862  -0.000254  1.015753  0.0  0.132132  0.140342  -0.000419  1.022154  -0.001
H  H10  1  0.10827823  0.63479364  0.32349790  1  0.126818  -0.00015  0.965028  0.0  0.215882  -0.000697  0.133095  -0.000317  1.030824  -0.001  0.137176  -0.000231  1.025669  0.0  0.127154  0.12987  -0.00036  1.034734  -0.001
H  H11  1  0.89173243  0.86519725  0.82349833  1  0.126832  -0.000148  0.965043  0.0  0.215985  -0.000696  0.133086  -0.000317  1.030847  -0.001  0.137164  -0.000231  1.025696  0.0  0.127172  0.129862  -0.00036  1.034759  -0.001
H  H12  1  0.89173165  0.36521769  0.67650423  1  0.126759  -0.000148  0.965113  0.0  0.215978  -0.000696  0.133098  -0.000317  1.03083  -0.001  0.137178  -0.000231  1.025677  0.0  0.127156  0.12987  -0.00036  1.034746  -0.001
H  H13  1  0.10826130  0.13479646  0.17650557  1  0.126827  -0.000148  0.965002  0.0  0.216008  -0.000696  0.133122  -0.000317  1.030763  -0.001  0.1372  -0.000231  1.025611  0.0  0.127191  0.129816  -0.00036  1.03495  -0.001
H  H14  1  0.53650292  0.80934727  0.62427173  1  0.110898  0.000224  0.937699  0.0  0.175738  -0.000281  0.12042  -1.2e-05  0.996614  0.0  0.121779  2.1e-05  0.995078  0.0  0.130172  0.119262  -4.7e-05  0.997925  0.0
H  H15  1  0.46349475  0.69065731  0.12427141  1  0.110845  0.000224  0.937654  0.0  0.175785  -0.000281  0.12036  -1.2e-05  0.996586  0.0  0.121717  2.2e-05  0.995054  0.0  0.13015  0.119203  -4.7e-05  0.997874  0.0
H  H16  1  0.46348684  0.19064899  0.37572389  1  0.110784  0.000227  0.937668  0.0  0.175686  -0.000281  0.120375  -1.2e-05  0.996541  0.0  0.121736  2.1e-05  0.994999  0.0  0.130125  0.119193  -4.7e-05  0.997877  0.0
H  H17  1  0.53650674  0.30934774  0.87572953  1  0.110751  0.000225  0.937685  0.0  0.175791  -0.000282  0.120302  -1.2e-05  0.996592  0.0  0.12166  2.1e-05  0.995058  0.0  0.130121  0.119145  -4.7e-05  0.997895  0.0
H  H18  1  0.48044408  0.45123309  0.30933711  1  0.108026  0.000281  0.955226  0.0  0.1649  -0.000244  0.115053  2.4e-05  1.020096  0.0  0.1172  5.3e-05  1.017093  0.0  0.125191  0.11332  -1e-06  1.022354  0.0
H  H19  1  0.51956615  0.04876219  0.80933491  1  0.108072  0.000281  0.955222  0.0  0.164807  -0.000244  0.115076  2.4e-05  1.020113  0.0  0.117209  5.3e-05  1.017127  0.0  0.125194  0.113346  -1e-06  1.022374  0.0
H  H20  1  0.51956826  0.54875800  0.69066147  1  0.108101  0.000281  0.955266  0.0  0.184502  -0.000243  0.115073  2.4e-05  1.020182  0.0  0.117205  5.3e-05  1.017197  0.0  0.125219  0.113399  -1e-06  1.02238  0.0
H  H21  1  0.48042634  0.95124164  0.19066544  1  0.108064  0.00028  0.955234  0.0  0.184258  -0.000243  0.115071  2.4e-05  1.020117  0.0  0.117202  5.3e-05  1.017133  0.0  0.125197  0.113355  -1e-06  1.02234  0.0
H  H22  1  0.88089147  0.02299923  0.64477074  1  0.13787  -0.000435  0.956857  -0.001  0.149067  -0.000855  0.146224  -0.000404  1.013278  -0.001  0.148997  -0.000284  1.013621  0.0  0.11492  0.144168  -0.0005  1.013307  -0.001
H  H23  1  0.11910223  0.47701300  0.14477507  1  0.137866  -0.000433  0.956899  -0.001  0.148997  -0.000856  0.14621  -0.000404  1.01331  -0.001  0.148981  -0.000284  1.013654  0.0  0.114936  0.14415  -0.0005  1.013328  -0.001
H  H24  1  0.11909224  0.97700465  0.35522724  1  0.13782  -0.000436  0.956882  -0.001  0.149122  -0.000856  0.146172  -0.000404  1.013299  -0.001  0.148945  -0.000284  1.013643  0.0  0.114905  0.144115  -0.0005  1.013318  -0.001
H  H25  1  0.88090198  0.52299077  0.85522646  1  0.13788  -0.000435  0.956887  -0.001  0.14908  -0.000855  0.146221  -0.000404  1.013308  -0.001  0.148993  -0.000284  1.013652  0.0  0.114942  0.144165  -0.0005  1.013333  -0.001
H  H26  1  0.79836134  0.54134305  0.21627273  1  0.135017  -0.000424  0.98862  -0.001  0.177644  -0.000784  0.139356  -0.000365  1.053151  -0.001  0.142627  -0.000248  1.05256  0.0  0.10887  0.136951  -0.000465  1.053766  -0.001
H  H27  1  0.20165110  0.95864564  0.71627157  1  0.134999  -0.000425  0.988643  -0.001  0.177596  -0.000784  0.139328  -0.000365  1.053199  -0.001  0.1426  -0.000248  1.05261  0.0  0.108865  0.136921  -0.000465  1.053828  -0.001
H  H28  1  0.20165273  0.45866699  0.78372762  1  0.13502  -0.000424  0.988611  -0.001  0.177669  -0.000784  0.139357  -0.000365  1.053148  -0.001  0.142628  -0.000248  1.052557  0.0  0.108844  0.136953  -0.000465  1.053768  -0.001
H  H29  1  0.79833949  0.04134682  0.28373055  1  0.135109  -0.000424  0.988512  -0.001  0.177574  -0.000784  0.139413  -0.000365  1.05308  -0.001  0.142685  -0.000248  1.05249  0.0  0.108875  0.137006  -0.000465  1.053678  -0.001
C  C30  1  0.98937842  0.58484570  0.47915844  1  0.100714  0.001167  3.629552  0.0  0.683251  0.000116  0.040069  0.000359  3.888092  0.0  0.046473  0.000384  3.899359  0.0  0.135299  0.035834  0.000287  3.880618  0.0
C  C31  1  0.01062377  0.91515221  0.97915869  1  0.100718  0.001157  3.629411  0.0  0.683275  0.000118  0.040122  0.000361  3.887974  0.0  0.046526  0.000382  3.899237  0.0  0.1353  0.035628  0.000287  3.881371  0.0
C  C32  1  0.01062076  0.41515431  0.52084369  1  0.100738  0.001171  3.629407  0.0  0.706618  0.000114  0.040092  0.000359  3.887991  0.0  0.046499  0.000383  3.899258  0.0  0.135345  0.035852  0.000287  3.880529  0.0
C  C33  1  0.98937583  0.08485032  0.02084403  1  0.100704  0.001177  3.629392  0.0  0.706663  0.000113  0.040103  0.000357  3.888064  0.0  0.046511  0.000385  3.899325  0.0  0.135315  0.032342  0.000285  3.879193  0.0
C  C34  1  0.99751898  0.84021112  0.56448514  1  0.038728  -0.004923  3.605582  -0.005  0.294274  -0.002073  -0.016059  -0.001192  3.87245  -0.002  -0.005719  0.000415  3.884796  -0.001  0.035587  -0.02247  -0.002523  3.863899  -0.003
C  C35  1  0.00247988  0.65979730  0.06448898  1  0.038708  -0.004914  3.605414  -0.005  0.294524  -0.002071  -0.016025  -0.00119  3.872261  -0.002  -0.005685  0.000417  3.884603  -0.001  0.035587  -0.022458  -0.002522  3.863723  -0.003
C  C36  1  0.00247351  0.15979272  0.43551461  1  0.038746  -0.004942  3.605452  -0.005  0.294371  -0.002072  -0.016048  -0.001191  3.872275  -0.002  -0.005703  0.000417  3.884612  -0.001  0.035602  -0.022466  -0.002523  3.863725  -0.003
C  C37  1  0.99752097  0.34020396  0.93551255  1  0.038825  -0.004934  3.605356  -0.005  0.294242  -0.00207  -0.015916  -0.001189  3.872226  -0.002  -0.005574  0.000415  3.884568  -0.001  0.035602  -0.022349  -0.002521  3.863664  -0.003
C  C38  1  0.95296298  0.58432597  0.33217586  1  0.035814  -0.004112  3.606565  -0.005  0.288247  -0.001976  -0.015713  -0.00109  3.866397  -0.002  -0.005934  0.000422  3.878479  -0.001  0.03265  -0.021728  -0.002305  3.858135  -0.003
C  C39  1  0.04704720  0.91566384  0.83217650  1  0.035793  -0.004144  3.606531  -0.005  0.288364  -0.001976  -0.015641  -0.00109  3.866419  -0.002  -0.005858  0.000421  3.878496  -0.001  0.032643  -0.021667  -0.002305  3.858143  -0.003
C  C40  1  0.04704605  0.41568030  0.66782509  1  0.035845  -0.004131  3.606464  -0.005  0.288378  -0.001973  -0.015675  -0.001087  3.866296  -0.002  -0.005895  0.000421  3.878377  -0.001  0.032694  -0.021688  -0.002303  3.858035  -0.003
C  C41  1  0.95294842  0.08433239  0.16782621  1  0.035773  -0.004132  3.606325  -0.005  0.288422  -0.001975  -0.015653  -0.001089  3.866231  -0.002  -0.005871  0.000419  3.878309  -0.001  0.032533  -0.025415  -0.002309  3.855303  -0.003
C  C42  1  0.68183724  0.79821931  0.60078122  1  0.098467  0.004898  3.663766  0.001  0.411972  -0.001033  0.058818  1.6e-05  3.938145  -0.002  0.071528  0.001643  3.951331  0.0  0.035453  0.05057  -0.001128  3.929448  -0.003
C  C43  1  0.31815863  0.70178734  0.10078176  1  0.098463  0.004904  3.663724  0.001  0.41199  -0.001032  0.058802  1.6e-05  3.938155  -0.002  0.071511  0.001643  3.951346  0.0  0.035485  0.050549  -0.001127  3.929405  -0.003
C  C44  1  0.31815273  0.20177822  0.39921617  1  0.098563  0.004865  3.663727  0.001  0.411867  -0.001033  0.05885  1.6e-05  3.938113  -0.002  0.071559  0.001644  3.951301  0.0  0.035524  0.050616  -0.001128  3.929417  -0.003
C  C45  1  0.68184222  0.29821392  0.89921977  1  0.09865  0.004882  3.663644  0.001  0.412045  -0.00103  0.058986  1.8e-05  3.938024  -0.002  0.071696  0.001644  3.951214  0.0  0.035536  0.050732  -0.001127  3.92929  -0.003
C  C46  1  0.63127409  0.49160027  0.32801263  1  0.091409  0.003987  3.677995  0.0  0.404959  -0.00123  0.047923  -8.8e-05  3.959083  -0.002  0.060283  0.001488  3.972362  -0.001  0.031536  0.03999  -0.001267  3.950392  -0.003
C  C47  1  0.36873641  0.00839160  0.82801106  1  0.091306  0.00397  3.678135  0.0  0.404921  -0.001231  0.047808  -8.8e-05  3.959256  -0.002  0.060183  0.001488  3.972551  -0.001  0.031507  0.039866  -0.001267  3.950567  -0.003
C  C48  1  0.36873911  0.50839587  0.67198653  1  0.091289  0.00398  3.678243  0.0  0.385213  -0.00123  0.047842  -8.5e-05  3.959366  -0.002  0.060215  0.001487  3.972656  -0.001  0.031487  0.039849  -0.001266  3.950669  -0.003
C  C49  1  0.63125712  0.99160970  0.17198929  1  0.091355  0.003982  3.67813  0.0  0.385303  -0.001231  0.047868  -8.6e-05  3.959234  -0.002  0.060241  0.001487  3.972527  -0.001  0.031493  0.039472  -0.001267  3.951889  -0.003
C  C50  1  0.85924934  0.90802932  0.61013433  1  -0.184063  -0.005104  3.725024  -0.005  0.030657  -0.003108  -0.197344  -0.001911  3.985072  -0.002  -0.208578  -0.001413  4.005863  -0.002  -0.104686  -0.190108  -0.002443  3.971112  -0.003
C  C51  1  0.14074521  0.59198005  0.11013881  1  -0.183971  -0.005114  3.724981  -0.005  0.030677  -0.003108  -0.197244  -0.001911  3.984997  -0.002  -0.208472  -0.001413  4.00578  -0.002  -0.104659  -0.190001  -0.002443  3.971004  -0.003
C  C52  1  0.14073876  0.09197454  0.38986365  1  -0.183931  -0.005086  3.725115  -0.005  0.030731  -0.003107  -0.197208  -0.001911  3.985148  -0.002  -0.208441  -0.001413  4.005936  -0.002  -0.10464  -0.189961  -0.002443  3.971158  -0.003
C  C53  1  0.85925879  0.40802245  0.88986272  1  -0.184093  -0.005094  3.725029  -0.005  0.0306  -0.003108  -0.197371  -0.001912  3.985065  -0.002  -0.208599  -0.001413  4.005846  -0.002  -0.104687  -0.190132  -0.002443  3.971063  -0.003
C  C54  1  0.79723252  0.54093120  0.28031371  1  -0.186055  -0.004542  3.745225  -0.005  0.024662  -0.003057  -0.199215  -0.001856  4.005728  -0.002  -0.210061  -0.001375  4.026308  -0.002  -0.106337  -0.192241  -0.002349  3.991914  -0.003
C  C55  1  0.20277755  0.95905628  0.78031255  1  -0.186  -0.004526  3.745107  -0.005  0.024624  -0.003057  -0.199123  -0.001856  4.005601  -0.002  -0.209969  -0.001375  4.026175  -0.002  -0.106303  -0.19215  -0.002349  3.991811  -0.003
C  C56  1  0.20278048  0.45907252  0.71968604  1  -0.186042  -0.004535  3.745129  -0.005  0.02465  -0.003058  -0.199211  -0.001857  4.005677  -0.002  -0.210058  -0.001374  4.02625  -0.002  -0.106315  -0.192239  -0.00235  3.991896  -0.003
C  C57  1  0.79721556  0.04094249  0.21968898  1  -0.186184  -0.004535  3.744849  -0.005  0.024632  -0.003058  -0.199278  -0.001857  4.005356  -0.002  -0.210125  -0.001374  4.025928  -0.002  -0.106282  -0.192718  -0.00235  3.992946  -0.003
N  N58  1  0.70928125  0.66733601  0.55401013  1  -0.257876  -0.071583  3.16255  -0.095  -0.737069  -0.077329  -0.24182  -0.049871  3.481654  -0.07  -0.268349  -0.039804  3.502753  -0.06  -0.2634  -0.225525  -0.056214  3.468622  -0.075
N  N59  1  0.29071980  0.83266586  0.05400917  1  -0.25784  -0.071578  3.162516  -0.095  -0.737015  -0.077327  -0.241778  -0.04987  3.481634  -0.07  -0.26833  -0.039802  3.502744  -0.06  -0.263421  -0.225485  -0.056212  3.468543  -0.075
N  N60  1  0.29071918  0.33266272  0.44598963  1  -0.257872  -0.071567  3.16241  -0.095  -0.736973  -0.077329  -0.241829  -0.049871  3.481553  -0.07  -0.268362  -0.039803  3.502662  -0.06  -0.263408  -0.225527  -0.056214  3.468502  -0.075
N  N61  1  0.70928002  0.16733794  0.94599177  1  -0.257827  -0.071567  3.162544  -0.095  -0.736998  -0.077326  -0.241779  -0.04987  3.481663  -0.07  -0.26833  -0.039802  3.502776  -0.06  -0.263419  -0.225542  -0.056212  3.468795  -0.075
N  N62  1  0.87851101  0.55874368  0.40659112  1  0.022429  -0.001681  3.552183  -0.002  -0.851768  -0.004307  0.104185  -0.001966  3.784407  -0.002  0.094409  -0.001441  3.812357  -0.002  -0.148911  0.110576  -0.002345  3.765719  -0.003
N  N63  1  0.12149274  0.94124895  0.90659031  1  0.022515  -0.001677  3.552046  -0.002  -0.851819  -0.004306  0.104062  -0.001966  3.784486  -0.002  0.09429  -0.00144  3.812436  -0.002  -0.148874  0.110455  -0.002345  3.765739  -0.003
N  N64  1  0.12149507  0.44125376  0.59340923  1  0.022587  -0.001677  3.551901  -0.002  -0.851792  -0.004308  0.104256  -0.001967  3.78423  -0.002  0.09448  -0.00144  3.812178  -0.002  -0.148884  0.11065  -0.002345  3.765537  -0.003
N  N65  1  0.87850205  0.05875108  0.09341181  1  0.022634  -0.001681  3.551879  -0.002  -0.851786  -0.004307  0.104048  -0.001967  3.784504  -0.002  0.094271  -0.001439  3.812458  -0.002  -0.148796  0.123289  -0.002328  3.74775  -0.003
N  N66  1  0.68098618  0.50048656  0.40514517  1  -0.261018  -0.069021  3.156178  -0.091  -0.739551  -0.07588  -0.243153  -0.049017  3.475247  -0.068  -0.270015  -0.039244  3.497462  -0.059  -0.268534  -0.226738  -0.055064  3.4616  -0.073
N  N67  1  0.31901950  0.99950856  0.90514417  1  -0.261078  -0.069011  3.156048  -0.091  -0.739529  -0.075886  -0.243082  -0.04902  3.47508  -0.068  -0.269968  -0.039244  3.497299  -0.059  -0.268551  -0.226653  -0.055067  3.461373  -0.073
N  N68  1  0.31902345  0.49950581  0.59485518  1  -0.26112  -0.069016  3.156164  -0.091  -0.739624  -0.075889  -0.243168  -0.049021  3.475141  -0.068  -0.27003  -0.039245  3.497348  -0.059  -0.268573  -0.226749  -0.055068  3.46151  -0.073
N  N69  1  0.68097885  0.00049524  0.09485795  1  -0.261095  -0.069015  3.156238  -0.091  -0.739546  -0.075886  -0.243085  -0.04902  3.475316  -0.068  -0.26997  -0.039244  3.497539  -0.059  -0.268538  -0.230371  -0.055078  3.45876  -0.073
N  N70  1  0.90279972  0.69668085  0.53147534  1  0.023746  -0.001546  3.56181  -0.002  -0.854984  -0.004435  0.10533  -0.002029  3.794447  -0.002  0.095562  -0.0015  3.822035  -0.002  -0.146415  0.111772  -0.002426  3.775892  -0.003
N  N71  1  0.09720201  0.80332056  0.03147589  1  0.023747  -0.00155  3.561691  -0.002  -0.855145  -0.004436  0.105327  -0.00203  3.794315  -0.002  0.09556  -0.0015  3.821907  -0.002  -0.146423  0.111681  -0.002426  3.776006  -0.003
N  N72  1  0.09719653  0.30331917  0.46852619  1  0.02366  -0.001542  3.561775  -0.002  -0.854904  -0.004435  0.105259  -0.00203  3.794413  -0.002  0.095488  -0.001502  3.822001  -0.002  -0.14645  0.111702  -0.002427  3.77586  -0.003
N  N73  1  0.90279864  0.19667944  0.96852564  1  0.023595  -0.001543  3.561824  -0.002  -0.855089  -0.004437  0.105232  -0.002031  3.794375  -0.002  0.095461  -0.001498  3.821968  -0.002  -0.146431  0.111403  -0.002426  3.776855  -0.003
N  N74  1  0.52576482  0.17330479  0.61466225  1  0.698372  0.001123  4.158231  0.001  0.859661  0.000724  0.74762  0.000841  4.435881  0.001  0.776188  0.00065  4.44074  0.0  0.096831  0.728218  0.001044  4.431945  0.001
N  N75  1  0.47423352  0.32669415  0.11467445  1  0.698776  0.001139  4.157675  0.001  0.859671  0.000724  0.747948  0.00084  4.435387  0.001  0.776517  0.000651  4.440238  0.0  0.097001  0.728535  0.001044  4.431421  0.001
N  N76  1  0.47424313  0.82668632  0.38532922  1  0.698121  0.001116  4.158304  0.001  0.859605  0.000725  0.747297  0.000841  4.436029  0.001  0.775865  0.00065  4.440893  0.0  0.096598  0.727882  0.001044  4.432094  0.001
N  N77  1  0.52576315  0.67330839  0.88532649  1  0.698775  0.001147  4.15769  0.001  0.859656  0.000724  0.74796  0.000841  4.435382  0.001  0.776531  0.00065  4.440232  0.0  0.096972  0.728548  0.001044  4.431449  0.001
O  O78  1  0.61155685  0.24197048  0.55262977  1  -0.527034  0.000554  1.858018  -0.001  -0.627666  0.001015  -0.539758  0.001324  2.11768  0.0  -0.557573  0.001506  2.108179  0.0  -0.227746  -0.527065  0.000842  2.124018  -0.001
O  O79  1  0.38844017  0.25799939  0.05264798  1  -0.527194  0.000549  1.857935  -0.001  -0.627251  0.001018  -0.53988  0.001327  2.117609  0.0  -0.557707  0.001504  2.108104  0.0  -0.227752  -0.527195  0.000843  2.123961  -0.001
O  O80  1  0.38844686  0.75799536  0.44735875  1  -0.526883  0.00055  1.857974  -0.001  -0.627471  0.001017  -0.539557  0.001325  2.117583  0.0  -0.557377  0.001499  2.108086  0.0  -0.227629  -0.526896  0.000843  2.124007  -0.001
O  O81  1  0.61155840  0.74200567  0.94735237  1  -0.527169  0.000541  1.857866  -0.001  -0.627344  0.001019  -0.539884  0.001327  2.11753  0.0  -0.557712  0.0015  2.108024  0.0  -0.227751  -0.527207  0.000843  2.123903  -0.001
O  O82  1  0.35450198  0.09328303  0.60851495  1  -0.451922  -0.000555  1.748758  -0.001  -0.558462  0.000221  -0.447766  0.000273  1.953291  0.0  -0.460025  0.000337  1.947908  0.0  -0.188164  -0.438587  -0.000359  1.956659  -0.001
O  O83  1  0.64549695  0.40670947  0.10851894  1  -0.452188  -0.000559  1.748764  -0.001  -0.55836  0.00022  -0.447846  0.000271  1.953158  0.0  -0.460105  0.000333  1.947773  0.0  -0.188213  -0.438669  -0.000358  1.956556  -0.001
O  O84  1  0.64551221  0.90669287  0.39148303  1  -0.451898  -0.000544  1.748849  -0.001  -0.558383  0.000219  -0.447645  0.00027  1.953325  0.0  -0.459905  0.000346  1.947946  0.0  -0.188107  -0.438452  -0.000358  1.95669  -0.001
O  O85  1  0.35450244  0.59329180  0.89148200  1  -0.452175  -0.000559  1.748805  -0.001  -0.558374  0.00022  -0.447839  0.000272  1.953199  0.0  -0.460098  0.000333  1.947813  0.0  -0.188207  -0.438653  -0.000358  1.956567  -0.001
O  O86  1  0.61525797  0.18828817  0.68036064  1  -0.476462  -0.000774  1.724349  -0.001  -0.556944  0.000319  -0.466232  0.000403  1.919067  0.0  -0.48032  0.000485  1.913204  0.0  -0.195362  -0.455742  -0.000372  1.922684  -0.001
O  O87  1  0.38473595  0.31174122  0.18037325  1  -0.476622  -0.000772  1.724198  -0.001  -0.55745  0.000319  -0.466411  0.000402  1.918949  0.0  -0.480498  0.000491  1.913086  0.0  -0.195488  -0.455927  -0.000372  1.92257  -0.001
O  O88  1  0.38474127  0.81173838  0.31963261  1  -0.476446  -0.000773  1.724421  -0.001  -0.557154  0.000319  -0.466161  0.000403  1.91911  0.0  -0.480246  0.000485  1.913248  0.0  -0.195291  -0.455684  -0.000371  1.922767  -0.001
O  O89  1  0.61526115  0.68826385  0.81962769  1  -0.476645  -0.000767  1.724259  -0.001  -0.557378  0.000317  -0.466389  0.000401  1.918951  0.0  -0.480484  0.000499  1.913096  0.0  -0.195447  -0.455913  -0.000372  1.922603  -0.001
