# generated using pymatgen
data_CsH13C17SO9
_symmetry_space_group_name_H-M   'P 1'
_cell_length_a   6.28816002
_cell_length_b   11.45255460
_cell_length_c   12.86155013
_cell_angle_alpha   92.92890537
_cell_angle_beta   97.87455703
_cell_angle_gamma   94.26434252
_symmetry_Int_Tables_number   1
_chemical_formula_structural   CsH13C17SO9
_chemical_formula_sum   'Cs2 H26 C34 S2 O18'
_cell_volume   913.19445156
_cell_formula_units_Z   2
loop_
 _symmetry_equiv_pos_site_id
 _symmetry_equiv_pos_as_xyz
  1  'x, y, z'
loop_
 _atom_site_type_symbol
 _atom_site_label
 _atom_site_symmetry_multiplicity
 _atom_site_fract_x
 _atom_site_fract_y
 _atom_site_fract_z
 _atom_site_occupancy
 _atom_site_hle17_bader_spin_density
 _atom_site_hle17_ddec_charge
 _atom_site_hle17_ddec_spin_density
 _atom_site_hle17_ddec_sum_bond_order
 _atom_site_hle17_magmom
 _atom_site_hse06_10hf_bader_spin_density
 _atom_site_hse06_10hf_ddec_charge
 _atom_site_hse06_10hf_ddec_spin_density
 _atom_site_hse06_10hf_ddec_sum_bond_order
 _atom_site_hse06_10hf_magmom
 _atom_site_hse06_bader_spin_density
 _atom_site_hse06_ddec_charge
 _atom_site_hse06_ddec_spin_density
 _atom_site_hse06_ddec_sum_bond_order
 _atom_site_hse06_magmom
 _atom_site_pbe_bader_spin_density
 _atom_site_pbe_cm5_charge
 _atom_site_pbe_ddec_charge
 _atom_site_pbe_ddec_spin_density
 _atom_site_pbe_ddec_sum_bond_order
 _atom_site_pbe_magmom
Cs  Cs0  1  0.21696002  0.85732223  0.95782337  1  0  0.960411  0  0.603735  0  0  0.902932  0  0.846579  0  0  0.918596  0  0.822573  0  0  0.95524  0.891356  0  0.863638  0
Cs  Cs1  1  0.78304346  0.14267841  0.04217452  1  0  0.960419  0  0.603733  0  0  0.902942  0  0.846579  0  0  0.918612  0  0.822578  0  0  0.955245  0.891365  0  0.863638  0
H  H2  1  0.64376428  0.54955303  0.73352949  1  0  0.395275  0  0.813889  0  0  0.377732  0  0.867501  0  0  0.387966  0  0.856307  0  0  0.338699  0.37038  0  0.87558  0
H  H3  1  0.35623961  0.45044059  0.26646815  1  0  0.395409  0  0.813716  0  0  0.377809  0  0.86741  0  0  0.388047  0  0.856204  0  0  0.338668  0.370451  0  0.875508  0
H  H4  1  0.66080306  0.56420674  0.45577182  1  0  0.158708  0  0.942476  0  0  0.16606  0  1.004634  0  0  0.170787  0  1.001892  0  0  0.11403  0.162627  0  1.006885  0
H  H5  1  0.33919676  0.43579129  0.54422571  1  0  0.158753  0  0.942526  0  0  0.166144  0  1.004628  0  0  0.170875  0  1.00188  0  0  0.114045  0.162709  0  1.006883  0
H  H6  1  0.12366818  0.72729472  0.25896689  1  0  0.106042  0  0.956346  0  0  0.108916  0  1.026002  0  0  0.112765  0  1.02089  0  0  0.127265  0.106041  0  1.029809  0
H  H7  1  0.87632638  0.27271037  0.74103210  1  0  0.105844  0  0.956428  0  0  0.108776  0  1.026035  0  0  0.112625  0  1.020923  0  0  0.127219  0.1059  0  1.029842  0
H  H8  1  0.64862874  0.94474934  0.48949211  1  0  0.096326  0  0.977939  0  0  0.104519  0  1.044525  0  0  0.108038  0  1.041283  0  0  0.100133  0.102032  0  1.046771  0
H  H9  1  0.35136362  0.05525225  0.51050736  1  0  0.096347  0  0.977942  0  0  0.104536  0  1.044531  0  0  0.108055  0  1.04129  0  0  0.100142  0.102047  0  1.046782  0
H  H10  1  0.94119954  0.03190093  0.40299708  1  0  0.10736  0  0.96538  0  0  0.119838  0  1.025404  0  0  0.12231  0  1.025601  0  0  0.103981  0.118106  0  1.025381  0
H  H11  1  0.05879455  0.96810155  0.59700410  1  0  0.107349  0  0.965372  0  0  0.11983  0  1.025397  0  0  0.122305  0  1.025588  0  0  0.103969  0.118096  0  1.025375  0
H  H12  1  0.43922116  0.71174781  0.21407175  1  0  0.111722  0  0.952493  0  0  0.121738  0  1.01274  0  0  0.125341  0  1.009809  0  0  0.11193  0.119075  0  1.014995  0
H  H13  1  0.56077022  0.28825729  0.78592623  1  0  0.111674  0  0.952553  0  0  0.121698  0  1.012799  0  0  0.125301  0  1.009862  0  0  0.111915  0.119035  0  1.015048  0
H  H14  1  0.04296109  0.56691112  0.94277011  1  0  0.1087  0  0.939401  0  0  0.126728  0  0.999473  0  0  0.127671  0  0.999163  0  0  0.112918  0.125959  0  0.99976  0
H  H15  1  0.95703066  0.43308697  0.05722996  1  0  0.108612  0  0.939435  0  0  0.126621  0  0.99953  0  0  0.127564  0  0.999225  0  0  0.112875  0.125858  0  0.999801  0
H  H16  1  0.24943609  0.58450037  0.86000818  1  0  0.097778  0  0.940548  0  0  0.112227  0  1.006471  0  0  0.114082  0  1.004607  0  0  0.102725  0.110773  0  1.007924  0
H  H17  1  0.75056479  0.41549506  0.13999554  1  0  0.097779  0  0.940489  0  0  0.112178  0  1.006455  0  0  0.114069  0  1.004549  0  0  0.102714  0.110725  0  1.007906  0
H  H18  1  0.04473270  0.46448041  0.83276967  1  0  0.100212  0  0.955349  0  0  0.114884  0  1.021563  0  0  0.116012  0  1.020693  0  0  0.096964  0.113993  0  1.022255  0
H  H19  1  0.95526820  0.53551501  0.16723249  1  0  0.100258  0  0.95531  0  0  0.114898  0  1.02154  0  0  0.116023  0  1.020679  0  0  0.096998  0.114006  0  1.022236  0
H  H20  1  0.28130098  0.07571449  0.20322455  1  0  0.10838  0  0.918175  0  0  0.12864  0  0.974062  0  0  0.129971  0  0.972887  0  0  0.121183  0.127596  0  0.974961  0
H  H21  1  0.71870959  0.92428180  0.79678533  1  0  0.108302  0  0.918276  0  0  0.128563  0  0.97417  0  0  0.129884  0  0.972994  0  0  0.121162  0.127512  0  0.975069  0
H  H22  1  0.27044205  0.00863597  0.32575361  1  0  0.085833  0  0.970843  0  0  0.100471  0  1.043214  0  0  0.099906  0  1.044703  0  0  0.097119  0.10083  0  1.042268  0
H  H23  1  0.72954842  0.99135515  0.67425231  1  0  0.085829  0  0.970615  0  0  0.100404  0  1.043061  0  0  0.099838  0  1.044553  0  0  0.097092  0.100765  0  1.042115  0
H  H24  1  0.10983007  0.12781605  0.29255262  1  0  0.083864  0  0.963361  0  0  0.096632  0  1.037086  0  0  0.097078  0  1.03694  0  0  0.098769  0.09619  0  1.037336  0
H  H25  1  0.89017414  0.87218025  0.70745370  1  0  0.083836  0  0.963358  0  0  0.09659  0  1.037101  0  0  0.097037  0  1.036955  0  0  0.098779  0.096159  0  1.037343  0
H  H26  1  0.42029943  0.77907086  0.68913378  1  0  0.376121  0  0.909448  0  0  0.350069  0  0.981317  0  0  0.362598  0  0.968503  0  0  0.301782  0.341311  0  0.990126  0
H  H27  1  0.57969402  0.22093685  0.31086291  1  0  0.376088  0  0.909492  0  0  0.350026  0  0.981369  0  0  0.362554  0  0.968557  0  0  0.301738  0.341264  0  0.990188  0
C  C28  1  0.97736012  0.65711289  0.48351165  1  0  0.297512  0  3.78593  0  0  0.275318  0  4.057371  0  0  0.29174  0  4.072905  0  0  0.095479  0.264637  0  4.046557  0
C  C29  1  0.02264161  0.34288688  0.51648609  1  0  0.297575  0  3.785897  0  0  0.2754  0  4.057319  0  0  0.291825  0  4.07285  0  0  0.09554  0.264716  0  4.046504  0
C  C30  1  0.79560260  0.59974542  0.51372584  1  0  -0.304066  0  3.700143  0  0  -0.343394  0  3.980949  0  0  -0.354454  0  3.996596  0  0  -0.12538  -0.336212  0  3.970559  0
C  C31  1  0.20440975  0.40025078  0.48627250  1  0  -0.304056  0  3.700088  0  0  -0.343415  0  3.98083  0  0  -0.354481  0  3.996478  0  0  -0.125383  -0.336235  0  3.970444  0
C  C32  1  0.79253232  0.59139980  0.62137046  1  0  0.307523  0  3.824799  0  0  0.282736  0  4.110946  0  0  0.298941  0  4.122796  0  0  0.08603  0.272077  0  4.102405  0
C  C33  1  0.20747622  0.40859291  0.37862825  1  0  0.307418  0  3.824863  0  0  0.282624  0  4.11103  0  0  0.298831  0  4.122884  0  0  0.085956  0.271967  0  4.102482  0
C  C34  1  0.96642356  0.63792764  0.69714752  1  0  -0.014066  0  3.812948  0  0  -0.02585  0  4.084454  0  0  -0.028765  0  4.10145  0  0  0.044832  -0.02437  0  4.073033  0
C  C35  1  0.03357839  0.36206424  0.30285225  1  0  -0.014001  0  3.812949  0  0  -0.02581  0  4.084541  0  0  -0.02873  0  4.101541  0  0  0.044848  -0.024323  0  4.073115  0
C  C36  1  0.14717413  0.69568295  0.66499893  1  0  0.268736  0  3.837932  0  0  0.246017  0  4.11063  0  0  0.262221  0  4.123412  0  0  0.081924  0.235313  0  4.101789  0
C  C37  1  0.85282805  0.30431944  0.33499816  1  0  0.268771  0  3.837954  0  0  0.246026  0  4.110686  0  0  0.262225  0  4.123471  0  0  0.081949  0.235322  0  4.101842  0
C  C38  1  0.15500582  0.70546298  0.55546261  1  0  -0.277761  0  3.833394  0  0  -0.27285  0  4.086721  0  0  -0.29011  0  4.110198  0  0  -0.048629  -0.261821  0  4.07103  0
C  C39  1  0.84499065  0.29453419  0.44453387  1  0  -0.277771  0  3.833378  0  0  -0.272852  0  4.086658  0  0  -0.290101  0  4.110131  0  0  -0.048655  -0.261819  0  4.070969  0
C  C40  1  0.34053872  0.76444137  0.52046359  1  0  0.40099  0  3.797429  0  0  0.371806  0  4.066463  0  0  0.399305  0  4.068584  0  0  0.12815  0.353728  0  4.064426  0
C  C41  1  0.65946288  0.23555751  0.47953254  1  0  0.400912  0  3.79762  0  0  0.371747  0  4.066596  0  0  0.39924  0  4.068723  0  0  0.128112  0.353666  0  4.064563  0
C  C42  1  0.33449114  0.77058589  0.40736977  1  0  -0.151171  0  3.77208  0  0  -0.144979  0  4.028888  0  0  -0.157858  0  4.051287  0  0  -0.03155  -0.137035  0  4.014507  0
C  C43  1  0.66550173  0.22941831  0.59262596  1  0  -0.151013  0  3.772126  0  0  -0.14485  0  4.028926  0  0  -0.157726  0  4.05133  0  0  -0.031545  -0.136905  0  4.014548  0
C  C44  1  0.15146213  0.72345743  0.34432801  1  0  0.150507  0  3.59562  0  0  0.096388  0  3.87636  0  0  0.114145  0  3.883195  0  0  0.039173  0.084388  0  3.872234  0
C  C45  1  0.84853216  0.27654589  0.65566934  1  0  0.150714  0  3.595609  0  0  0.096548  0  3.876346  0  0  0.114307  0  3.883177  0  0  0.039257  0.084544  0  3.872219  0
C  C46  1  0.51540563  0.82327460  0.35889106  1  0  0.060908  0  3.788035  0  0  0.074404  0  4.028386  0  0  0.073964  0  4.052103  0  0  -0.019935  0.074543  0  4.012616  0
C  C47  1  0.48458752  0.17673136  0.64110553  1  0  0.06078  0  3.788287  0  0  0.074301  0  4.02861  0  0  0.073858  0  4.052338  0  0  -0.019891  0.07444  0  4.012844  0
C  C48  1  0.66353482  0.91299085  0.40997571  1  0  -0.063154  0  3.713276  0  0  -0.089694  0  3.971057  0  0  -0.086801  0  3.986491  0  0  -0.08523  -0.091541  0  3.960674  0
C  C49  1  0.33645639  0.08701337  0.59002301  1  0  -0.0632  0  3.713485  0  0  -0.089765  0  3.971276  0  0  -0.086868  0  3.986706  0  0  -0.085279  -0.091614  0  3.960895  0
C  C50  1  0.83017234  0.96231281  0.36083159  1  0  -0.199535  0  3.755005  0  0  -0.219449  0  4.013074  0  0  -0.226312  0  4.033416  0  0  -0.112851  -0.215034  0  3.999768  0
C  C51  1  0.16982190  0.03769054  0.63916886  1  0  -0.199441  0  3.755046  0  0  -0.219336  0  4.013073  0  0  -0.226199  0  4.033417  0  0  -0.112817  -0.21492  0  3.999767  0
C  C52  1  0.85387966  0.92355226  0.25831073  1  0  0.260744  0  3.81389  0  0  0.242391  0  4.076312  0  0  0.255431  0  4.091935  0  0  0.079649  0.233521  0  4.066018  0
C  C53  1  0.14611327  0.07645286  0.74169048  1  0  0.26067  0  3.814036  0  0  0.242317  0  4.076475  0  0  0.255356  0  4.0921  0  0  0.079619  0.233451  0  4.066183  0
C  C54  1  0.70714330  0.83292708  0.20599481  1  0  -0.229403  0  3.72962  0  0  -0.210233  0  3.985703  0  0  -0.219616  0  4.004901  0  0  -0.033882  -0.204422  0  3.973278  0
C  C55  1  0.29284938  0.16707626  0.79400320  1  0  -0.229396  0  3.729623  0  0  -0.210198  0  3.985675  0  0  -0.219583  0  4.00488  0  0  -0.033856  -0.204385  0  3.97325  0
C  C56  1  0.54335011  0.78410388  0.25651256  1  0  -0.091392  0  3.728869  0  0  -0.125747  0  3.981187  0  0  -0.123144  0  3.998542  0  0  -0.081528  -0.127197  0  3.969518  0
C  C57  1  0.45664593  0.21590032  0.74348494  1  0  -0.091275  0  3.728804  0  0  -0.125661  0  3.981135  0  0  -0.123052  0  3.998485  0  0  -0.081526  -0.127111  0  3.969467  0
C  C58  1  0.07952037  0.55631146  0.86220852  1  0  -0.089747  0  3.571805  0  0  -0.184137  0  3.835428  0  0  -0.178487  0  3.837771  0  0  -0.153172  -0.187748  0  3.833856  0
C  C59  1  0.92047752  0.44368484  0.13779113  1  0  -0.089668  0  3.571668  0  0  -0.183927  0  3.835266  0  0  -0.178311  0  3.837587  0  0  -0.153139  -0.187531  0  3.833697  0
C  C60  1  0.17717572  0.04976624  0.26121377  1  0  -0.079572  0  3.615949  0  0  -0.177548  0  3.884423  0  0  -0.169925  0  3.886694  0  0  -0.145412  -0.18255  0  3.882734  0
C  C61  1  0.82282540  0.95023097  0.73879392  1  0  -0.079472  0  3.615703  0  0  -0.177343  0  3.884189  0  0  -0.169709  0  3.88645  0  0  -0.145382  -0.182343  0  3.882491  0
S  S62  1  0.73571027  0.77182840  0.07772347  1  0  1.310058  0  5.724539  0  0  1.21792  0  6.249967  0  0  1.267475  0  6.223204  0  0  0.436349  1.183847  0  6.267287  0
S  S63  1  0.26429537  0.22817575  0.92227626  1  0  1.309918  0  5.72465  0  0  1.217761  0  6.25011  0  0  1.267313  0  6.223343  0  0  0.436309  1.183687  0  6.267432  0
O  O64  1  0.97992333  0.66739899  0.37778286  1  0  -0.19388  0  2.451112  0  0  -0.117046  0  2.680695  0  0  -0.13761  0  2.686797  0  0  -0.111123  -0.103256  0  2.676441  0
O  O65  1  0.02007388  0.33260256  0.62221462  1  0  -0.193993  0  2.451244  0  0  -0.117157  0  2.680811  0  0  -0.137726  0  2.686915  0  0  -0.111172  -0.103361  0  2.676546  0
O  O66  1  0.49898480  0.80793623  0.58715642  1  0  -0.519749  0  2.008854  0  0  -0.463259  0  2.227415  0  0  -0.485729  0  2.223652  0  0  -0.284357  -0.447812  0  2.229589  0
O  O67  1  0.50101838  0.19206265  0.41284138  1  0  -0.519748  0  2.008984  0  0  -0.463218  0  2.227481  0  0  -0.48569  0  2.223721  0  0  -0.284323  -0.447769  0  2.229657  0
O  O68  1  0.61731488  0.53858897  0.65625669  1  0  -0.476135  0  2.087301  0  0  -0.424398  0  2.291179  0  0  -0.442421  0  2.281348  0  0  -0.331576  -0.41128  0  2.29745  0
O  O69  1  0.38269355  0.46140286  0.34373965  1  0  -0.476259  0  2.087345  0  0  -0.424399  0  2.291137  0  0  -0.442423  0  2.281301  0  0  -0.331502  -0.411279  0  2.297412  0
O  O70  1  0.93835617  0.63148332  0.80139864  1  0  -0.278677  0  2.333793  0  0  -0.213462  0  2.57868  0  0  -0.227094  0  2.579418  0  0  -0.232063  -0.203746  0  2.577948  0
O  O71  1  0.06164657  0.36851293  0.19859824  1  0  -0.278781  0  2.333668  0  0  -0.213606  0  2.578576  0  0  -0.227237  0  2.57932  0  0  -0.232127  -0.203899  0  2.577847  0
O  O72  1  0.31168454  0.74448337  0.73609392  1  0  -0.531961  0  2.117784  0  0  -0.487383  0  2.338858  0  0  -0.506645  0  2.328819  0  0  -0.389068  -0.473674  0  2.345237  0
O  O73  1  0.68830714  0.25552348  0.26390338  1  0  -0.531941  0  2.117783  0  0  -0.487347  0  2.338851  0  0  -0.506608  0  2.328816  0  0  -0.389036  -0.473642  0  2.345237  0
O  O74  1  0.01234508  0.96740700  0.20493538  1  0  -0.29096  0  2.414469  0  0  -0.215741  0  2.660741  0  0  -0.234701  0  2.665065  0  0  -0.231746  -0.202366  0  2.657319  0
O  O75  1  0.98765684  0.03259457  0.79506865  1  0  -0.290896  0  2.414356  0  0  -0.21571  0  2.660628  0  0  -0.234664  0  2.664944  0  0  -0.231715  -0.202349  0  2.657215  0
O  O76  1  0.72902937  0.87161193  0.00843074  1  0  -0.799167  0  1.993254  0  0  -0.755039  0  2.255002  0  0  -0.776101  0  2.239938  0  0  -0.520008  -0.740088  0  2.264868  0
O  O77  1  0.27097407  0.12838872  0.99156948  1  0  -0.799182  0  1.993152  0  0  -0.755056  0  2.254915  0  0  -0.776115  0  2.239852  0  0  -0.52004  -0.74012  0  2.264811  0
O  O78  1  0.94674809  0.72264818  0.09047688  1  0  -0.695065  0  1.952606  0  0  -0.647855  0  2.204105  0  0  -0.669865  0  2.190113  0  0  -0.434798  -0.632174  0  2.213036  0
O  O79  1  0.05326990  0.27736295  0.90952868  1  0  -0.694931  0  1.952606  0  0  -0.647712  0  2.204104  0  0  -0.669753  0  2.190179  0  0  -0.434761  -0.632026  0  2.213019  0
O  O80  1  0.55225897  0.68480886  0.04909179  1  0  -0.668248  0  1.900855  0  0  -0.620347  0  2.126779  0  0  -0.640748  0  2.112752  0  0  -0.402015  -0.606031  0  2.135979  0
O  O81  1  0.44775158  0.31518650  0.95090950  1  0  -0.668232  0  1.900985  0  0  -0.620334  0  2.126925  0  0  -0.640728  0  2.112897  0  0  -0.402005  -0.606019  0  2.136124  0
