# generated using pymatgen
data_Zn3H14(C3O4)4
_symmetry_space_group_name_H-M   'P 1'
_cell_length_a   6.68347156
_cell_length_b   6.96195883
_cell_length_c   9.72267957
_cell_angle_alpha   85.21981303
_cell_angle_beta   77.29998668
_cell_angle_gamma   80.70748202
_symmetry_Int_Tables_number   1
_chemical_formula_structural   Zn3H14(C3O4)4
_chemical_formula_sum   'Zn3 H14 C12 O16'
_cell_volume   434.99912684
_cell_formula_units_Z   1
loop_
 _symmetry_equiv_pos_site_id
 _symmetry_equiv_pos_as_xyz
  1  'x, y, z'
loop_
 _atom_site_type_symbol
 _atom_site_label
 _atom_site_symmetry_multiplicity
 _atom_site_fract_x
 _atom_site_fract_y
 _atom_site_fract_z
 _atom_site_occupancy
 _atom_site_hle17_bader_spin_density
 _atom_site_hle17_ddec_charge
 _atom_site_hle17_ddec_spin_density
 _atom_site_hle17_ddec_sum_bond_order
 _atom_site_hle17_magmom
 _atom_site_hse06_10hf_bader_spin_density
 _atom_site_hse06_10hf_ddec_charge
 _atom_site_hse06_10hf_ddec_spin_density
 _atom_site_hse06_10hf_ddec_sum_bond_order
 _atom_site_hse06_10hf_magmom
 _atom_site_hse06_bader_spin_density
 _atom_site_hse06_ddec_charge
 _atom_site_hse06_ddec_spin_density
 _atom_site_hse06_ddec_sum_bond_order
 _atom_site_hse06_magmom
 _atom_site_pbe_bader_spin_density
 _atom_site_pbe_cm5_charge
 _atom_site_pbe_ddec_charge
 _atom_site_pbe_ddec_spin_density
 _atom_site_pbe_ddec_sum_bond_order
 _atom_site_pbe_magmom
Zn  Zn0  1  0.00000118  0.99999925  0.99999961  1  0  1.134891  0  1.771977  0  0  0.978839  0  2.21502  0  0  1.02586  0  2.157468  0  0  0.684528  0.94545  0  2.25482  0
Zn  Zn1  1  0.55504559  0.22643856  0.66944237  1  0  1.161071  0  1.661586  0  0  0.978984  0  2.129675  0  0  1.030701  0  2.066024  0  0  0.685396  0.94226  0  2.174106  0
Zn  Zn2  1  0.44495954  0.77356361  0.33055885  1  0  1.161093  0  1.661581  0  0  0.979007  0  2.12968  0  0  1.030724  0  2.06603  0  0  0.685411  0.942281  0  2.174109  0
H  H3  1  0.10439727  0.40828531  0.37076746  1  0  0.153446  0  0.936727  0  0  0.163794  0  0.995515  0  0  0.167611  0  0.993372  0  0  0.112693  0.161039  0  0.997173  0
H  H4  1  0.89560376  0.59171391  0.62922736  1  0  0.153436  0  0.936711  0  0  0.163743  0  0.995551  0  0  0.167558  0  0.99341  0  0  0.112676  0.160989  0  0.997207  0
H  H5  1  0.93337486  0.54404596  0.27478693  1  0  0.152052  0  0.908777  0  0  0.165702  0  0.96605  0  0  0.168682  0  0.964912  0  0  0.115585  0.163586  0  0.966927  0
H  H6  1  0.06662110  0.45595617  0.72521258  1  0  0.152014  0  0.908759  0  0  0.165673  0  0.966021  0  0  0.168647  0  0.964887  0  0  0.115573  0.163558  0  0.966899  0
H  H7  1  0.18237945  0.51951536  0.05637629  1  0  0.151966  0  0.924432  0  0  0.163491  0  0.982578  0  0  0.167118  0  0.980697  0  0  0.114322  0.160851  0  0.984061  0
H  H8  1  0.81761650  0.48048677  0.94362425  1  0  0.151979  0  0.924433  0  0  0.16349  0  0.982592  0  0  0.167118  0  0.98071  0  0  0.114333  0.160855  0  0.984068  0
H  H9  1  0.37924627  0.37024927  0.12298070  1  0  0.156657  0  0.907938  0  0  0.169526  0  0.961489  0  0  0.173351  0  0.959456  0  0  0.116832  0.166762  0  0.963087  0
H  H10  1  0.62074943  0.62975434  0.87702287  1  0  0.156662  0  0.907924  0  0  0.169541  0  0.961459  0  0  0.173365  0  0.959427  0  0  0.116835  0.166776  0  0.96306  0
H  H11  1  0.29003850  0.04418042  0.60867794  1  0  0.435277  0  0.863925  0  0  0.402422  0  0.930323  0  0  0.41277  0  0.91542  0  0  0.300181  0.395042  0  0.940996  0
H  H12  1  0.70996401  0.95581884  0.39132796  1  0  0.43523  0  0.863983  0  0  0.40238  0  0.930365  0  0  0.412726  0  0.915467  0  0  0.300152  0.395  0  0.941039  0
H  H13  1  0.34933155  0.18576033  0.47760873  1  0  0.442344  0  0.828161  0  0  0.410677  0  0.905508  0  0  0.420949  0  0.89043  0  0  0.309635  0.403125  0  0.915577  0
H  H14  1  0.65067273  0.81423747  0.52239597  1  0  0.442308  0  0.828178  0  0  0.410652  0  0.905533  0  0  0.420924  0  0.890458  0  0  0.309607  0.4031  0  0.915573  0
H  H15  1  0.79632681  0.22646323  0.19382997  1  0  0.394197  0  0.880012  0  0  0.366275  0  0.950482  0  0  0.377931  0  0.938429  0  0  0.306486  0.358093  0  0.958916  0
H  H16  1  0.20367339  0.77353162  0.80616523  1  0  0.394163  0  0.88009  0  0  0.366271  0  0.9505  0  0  0.377927  0  0.938451  0  0  0.306478  0.358089  0  0.958935  0
C  C17  1  0.80474137  0.31628802  0.40804764  1  0  0.733717  0  3.782089  0  0  0.677627  0  4.088287  0  0  0.711982  0  4.080736  0  0  0.223413  0.654215  0  4.092702  0
C  C18  1  0.19525942  0.68371267  0.59195021  1  0  0.733621  0  3.782268  0  0  0.677595  0  4.088379  0  0  0.711948  0  4.080827  0  0  0.223366  0.654187  0  4.092792  0
C  C19  1  0.98748307  0.39417973  0.31051805  1  0  -0.368307  0  3.609598  0  0  -0.411415  0  3.852647  0  0  -0.419537  0  3.859205  0  0  -0.166053  -0.405617  0  3.847942  0
C  C20  1  0.01251206  0.60581803  0.68947979  1  0  -0.368239  0  3.609537  0  0  -0.411339  0  3.852579  0  0  -0.419455  0  3.859138  0  0  -0.166056  -0.405549  0  3.847879  0
C  C21  1  0.07900814  0.26975348  0.18203956  1  0  0.25398  0  3.577682  0  0  0.250365  0  3.822883  0  0  0.254266  0  3.835881  0  0  0.067205  0.247658  0  3.813933  0
C  C22  1  0.92098521  0.73024573  0.81796051  1  0  0.25394  0  3.577616  0  0  0.250306  0  3.822891  0  0  0.254208  0  3.835881  0  0  0.067143  0.247597  0  3.813945  0
C  C23  1  0.24410193  0.36621242  0.07654138  1  0  -0.352033  0  3.592348  0  0  -0.393033  0  3.833007  0  0  -0.401248  0  3.838824  0  0  -0.162179  -0.387173  0  3.828778  0
C  C24  1  0.75589556  0.63378971  0.92345687  1  0  -0.352051  0  3.592266  0  0  -0.393016  0  3.832933  0  0  -0.401251  0  3.838797  0  0  -0.162202  -0.387163  0  3.828705  0
C  C25  1  0.32179306  0.27581479  0.93424623  1  0  0.738646  0  3.775076  0  0  0.686225  0  4.075763  0  0  0.721231  0  4.068489  0  0  0.220064  0.662235  0  4.080078  0
C  C26  1  0.67820464  0.72418590  0.06575722  1  0  0.738695  0  3.7751  0  0  0.68621  0  4.075872  0  0  0.721215  0  4.068597  0  0  0.220084  0.662216  0  4.080188  0
C  C27  1  0.17395689  0.06216184  0.22793864  1  0  0.600024  0  3.831307  0  0  0.548515  0  4.127128  0  0  0.580745  0  4.122866  0  0  0.209593  0.526454  0  4.129507  0
C  C28  1  0.82604543  0.93783886  0.77206001  1  0  0.600086  0  3.831356  0  0  0.548563  0  4.12716  0  0  0.580797  0  4.122892  0  0  0.20963  0.526503  0  4.129538  0
O  O29  1  0.70914769  0.20069261  0.36006652  1  0  -0.657062  0  2.014387  0  0  -0.591678  0  2.236397  0  0  -0.61694  0  2.224969  0  0  -0.309728  -0.574128  0  2.243976  0
O  O30  1  0.29085072  0.79930370  0.63993297  1  0  -0.657005  0  2.014447  0  0  -0.59165  0  2.236451  0  0  -0.616907  0  2.225017  0  0  -0.309699  -0.574107  0  2.244033  0
O  O31  1  0.75243063  0.37199022  0.53444862  1  0  -0.626917  0  2.0248  0  0  -0.546943  0  2.28705  0  0  -0.576428  0  2.27153  0  0  -0.305732  -0.526466  0  2.297293  0
O  O32  1  0.24756885  0.62800901  0.46555157  1  0  -0.626872  0  2.024854  0  0  -0.546969  0  2.287131  0  0  -0.576458  0  2.271618  0  0  -0.305721  -0.52649  0  2.297368  0
O  O33  1  0.27302092  0.11713075  0.90602455  1  0  -0.648887  0  2.015149  0  0  -0.582955  0  2.269449  0  0  -0.610324  0  2.256481  0  0  -0.315498  -0.563668  0  2.277926  0
O  O34  1  0.72697939  0.88287286  0.09397525  1  0  -0.648846  0  2.015248  0  0  -0.582887  0  2.269551  0  0  -0.610255  0  2.256585  0  0  -0.315441  -0.5636  0  2.278027  0
O  O35  1  0.44342236  0.37095513  0.84232035  1  0  -0.641649  0  2.008799  0  0  -0.564147  0  2.273842  0  0  -0.59448  0  2.25893  0  0  -0.313865  -0.543018  0  2.28366  0
O  O36  1  0.55658475  0.62904414  0.15768384  1  0  -0.641777  0  2.008929  0  0  -0.56419  0  2.27391  0  0  -0.594519  0  2.258995  0  0  -0.313917  -0.543058  0  2.283728  0
O  O37  1  0.29706740  0.04982142  0.31372070  1  0  -0.640619  0  2.06856  0  0  -0.565289  0  2.333136  0  0  -0.594609  0  2.319181  0  0  -0.313097  -0.544714  0  2.342351  0
O  O38  1  0.70294237  0.95018074  0.68627367  1  0  -0.640673  0  2.068688  0  0  -0.565329  0  2.333276  0  0  -0.594648  0  2.319315  0  0  -0.313113  -0.544753  0  2.342483  0
O  O39  1  0.13279592  0.91560502  0.17747282  1  0  -0.594395  0  2.042126  0  0  -0.53778  0  2.297677  0  0  -0.563864  0  2.286291  0  0  -0.300466  -0.519622  0  2.305071  0
O  O40  1  0.86719871  0.08439566  0.82253006  1  0  -0.59442  0  2.04215  0  0  -0.537785  0  2.297685  0  0  -0.563869  0  2.286298  0  0  -0.300478  -0.519613  0  2.30504  0
O  O41  1  0.91284130  0.25399966  0.11149461  1  0  -0.592402  0  2.12937  0  0  -0.524468  0  2.365862  0  0  -0.545548  0  2.353419  0  0  -0.375836  -0.50973  0  2.374237  0
O  O42  1  0.08715713  0.74599664  0.88850283  1  0  -0.592394  0  2.12936  0  0  -0.524498  0  2.365895  0  0  -0.545565  0  2.353422  0  0  -0.375805  -0.509753  0  2.374266  0
O  O43  1  0.31792763  0.18014443  0.58142538  1  0  -0.818514  0  1.924529  0  0  -0.755294  0  2.155834  0  0  -0.777269  0  2.119181  0  0  -0.561192  -0.739894  0  2.180992  0
O  O44  1  0.68207313  0.81985627  0.41857865  1  0  -0.818435  0  1.924619  0  0  -0.75521  0  2.155961  0  0  -0.777182  0  2.119309  0  0  -0.561142  -0.739808  0  2.181091  0
