# generated using pymatgen
data_AgH3C4N2O
_symmetry_space_group_name_H-M   'P 1'
_cell_length_a   7.44552799
_cell_length_b   8.49813735
_cell_length_c   8.49988660
_cell_angle_alpha   94.02838538
_cell_angle_beta   90.05168937
_cell_angle_gamma   89.97400642
_symmetry_Int_Tables_number   1
_chemical_formula_structural   AgH3C4N2O
_chemical_formula_sum   'Ag4 H12 C16 N8 O4'
_cell_volume   536.48534085
_cell_formula_units_Z   4
loop_
 _symmetry_equiv_pos_site_id
 _symmetry_equiv_pos_as_xyz
  1  'x, y, z'
loop_
 _atom_site_type_symbol
 _atom_site_label
 _atom_site_symmetry_multiplicity
 _atom_site_fract_x
 _atom_site_fract_y
 _atom_site_fract_z
 _atom_site_occupancy
 _atom_site_pbe_bader_spin_density
 _atom_site_pbe_cm5_charge
 _atom_site_pbe_ddec_charge
 _atom_site_pbe_ddec_spin_density
 _atom_site_pbe_ddec_sum_bond_order
 _atom_site_pbe_magmom
Ag  Ag0  1  0.00010376  0.49995247  0.99997809  1  0  0.442988  0.292129  0  1.809306  0
Ag  Ag1  1  0.49989921  0.50002826  0.00003703  1  0  0.443039  0.292094  0  1.810478  0
Ag  Ag2  1  0.50013912  0.00003027  0.50004645  1  0  0.442908  0.29208  0  1.809603  0
Ag  Ag3  1  0.99987889  0.99995269  0.49995977  1  0  0.443056  0.291935  0  1.809672  0
H  H4  1  0.18919913  0.65601234  0.71192356  1  0  0.111899  0.068889  0  1.024747  0
H  H5  1  0.31096690  0.78838673  0.84383340  1  0  0.111824  0.06895  0  1.025215  0
H  H6  1  0.68959703  0.84395477  0.78838575  1  0  0.111941  0.069012  0  1.025107  0
H  H7  1  0.81026650  0.71186360  0.65572395  1  0  0.11193  0.068975  0  1.025131  0
H  H8  1  0.81097385  0.34382392  0.28798342  1  0  0.112029  0.069023  0  1.025498  0
H  H9  1  0.68890259  0.21179955  0.15630665  1  0  0.112031  0.068844  0  1.0251  0
H  H10  1  0.31088091  0.15622848  0.21177506  1  0  0.111977  0.068986  0  1.025152  0
H  H11  1  0.18925224  0.28804058  0.34406442  1  0  0.111918  0.068906  0  1.025063  0
H  H12  1  0.29294984  0.55977846  0.44031535  1  0  0.107964  0.14469  0  1.035001  0
H  H13  1  0.20702212  0.06009974  0.94002717  1  0  0.107945  0.145268  0  1.033786  0
H  H14  1  0.79311736  0.94013084  0.06017231  1  0  0.107979  0.145369  0  1.033454  0
H  H15  1  0.70687383  0.44008880  0.55950316  1  0  0.10804  0.144989  0  1.034527  0
C  C16  1  0.93671707  0.71873771  0.28112735  1  0  0.294961  0.591572  0  4.139663  0
C  C17  1  0.56369934  0.21890339  0.78120007  1  0  0.295374  0.591631  0  4.140194  0
C  C18  1  0.43630314  0.78115932  0.21890400  1  0  0.295451  0.592201  0  4.13919  0
C  C19  1  0.06328936  0.28114458  0.71879423  1  0  0.294705  0.590856  0  4.139479  0
C  C20  1  0.17081535  0.53339683  0.66878409  1  0  0.055932  0.149847  0  3.994139  0
C  C21  1  0.32915743  0.83144049  0.96647213  1  0  0.055764  0.150202  0  3.994266  0
C  C22  1  0.67110895  0.96655901  0.83145883  1  0  0.055817  0.150049  0  3.993862  0
C  C23  1  0.82890630  0.66870025  0.53319584  1  0  0.055725  0.149904  0  3.993807  0
C  C24  1  0.82920582  0.46644650  0.33108279  1  0  0.055823  0.149921  0  3.994985  0
C  C25  1  0.67080206  0.16871009  0.03366503  1  0  0.055549  0.150159  0  3.994356  0
C  C26  1  0.32914067  0.03359572  0.16869943  1  0  0.055863  0.150344  0  3.994477  0
C  C27  1  0.17083408  0.33119939  0.46661534  1  0  0.055734  0.149728  0  3.994122  0
C  C28  1  0.22240266  0.48305784  0.51697190  1  0  -0.110423  -0.20995  0  3.970851  0
C  C29  1  0.27752722  0.98331809  0.01678833  1  0  -0.110767  -0.211625  0  3.970255  0
C  C30  1  0.72258809  0.01687349  0.98338139  1  0  -0.110641  -0.211671  0  3.97034  0
C  C31  1  0.77742370  0.51681061  0.48283854  1  0  -0.1104  -0.210596  0  3.970879  0
N  N32  1  0.90942313  0.56050533  0.23244767  1  0  -0.375124  -0.352159  0  3.559795  0
N  N33  1  0.59071960  0.26748183  0.93948279  1  0  -0.375098  -0.352218  0  3.560276  0
N  N34  1  0.40924352  0.93945104  0.26747729  1  0  -0.375074  -0.352627  0  3.560666  0
N  N35  1  0.09062939  0.23247045  0.56060299  1  0  -0.374932  -0.351587  0  3.558625  0
N  N36  1  0.09065716  0.43935214  0.76744602  1  0  -0.375007  -0.351603  0  3.55956  0
N  N37  1  0.40924256  0.73262127  0.06060854  1  0  -0.374789  -0.352253  0  3.559882  0
N  N38  1  0.59095640  0.06063133  0.73264051  1  0  -0.374866  -0.351683  0  3.559737  0
N  N39  1  0.90919030  0.76742559  0.43927399  1  0  -0.375071  -0.351895  0  3.559287  0
O  O40  1  0.98913264  0.81393385  0.18598386  1  0  -0.320944  -0.551771  0  2.201029  0
O  O41  1  0.51174330  0.31419237  0.68586451  1  0  -0.321071  -0.551608  0  2.20018  0
O  O42  1  0.48813698  0.68579297  0.31420871  1  0  -0.321179  -0.551745  0  2.200085  0
O  O43  1  0.01097186  0.18592739  0.81395818  1  0  -0.320779  -0.551562  0  2.200749  0
