# generated using pymatgen
data_CdH10C12N2O5
_symmetry_space_group_name_H-M   'P 1'
_cell_length_a   5.91634399
_cell_length_b   11.35828575
_cell_length_c   27.44590169
_cell_angle_alpha   89.99975424
_cell_angle_beta   89.99607106
_cell_angle_gamma   90.00058143
_symmetry_Int_Tables_number   1
_chemical_formula_structural   CdH10C12N2O5
_chemical_formula_sum   'Cd4 H40 C48 N8 O20'
_cell_volume   1844.35157062
_cell_formula_units_Z   4
loop_
 _symmetry_equiv_pos_site_id
 _symmetry_equiv_pos_as_xyz
  1  'x, y, z'
loop_
 _atom_site_type_symbol
 _atom_site_label
 _atom_site_symmetry_multiplicity
 _atom_site_fract_x
 _atom_site_fract_y
 _atom_site_fract_z
 _atom_site_occupancy
 _atom_site_pbe_bader_charge
 _atom_site_pbe_bader_spin_density
 _atom_site_pbe_cm5_charge
 _atom_site_pbe_ddec_charge
 _atom_site_pbe_ddec_spin_density
 _atom_site_pbe_ddec_sum_bond_order
 _atom_site_pbe_magmom
Cd  Cd0  1  0.73242767  0.86859387  0.37306082  1  1.268157  0  0.763371  0.871559  0  2.183905  0
Cd  Cd1  1  0.26756470  0.36860413  0.62694039  1  1.26814  0  0.763343  0.871501  0  2.183976  0
Cd  Cd2  1  0.76754361  0.86859258  0.87306775  1  1.268299  0  0.763304  0.871417  0  2.184011  0
Cd  Cd3  1  0.23248595  0.36857724  0.12692873  1  1.268174  0  0.763241  0.871426  0  2.183929  0
H  H4  1  0.95744233  0.98943900  0.46486858  1  0.105057  0  0.11908  0.096014  0  0.989027  0
H  H5  1  0.04253886  0.48945128  0.53513117  1  0.104983  0  0.119039  0.095986  0  0.989131  0
H  H6  1  0.54262330  0.98940544  0.96489359  1  0.104995  0  0.119086  0.096036  0  0.989102  0
H  H7  1  0.45742043  0.48942497  0.03510398  1  0.104726  0  0.119098  0.095998  0  0.988954  0
H  H8  1  0.85593018  0.11623034  0.53703810  1  0.12264  0  0.111037  0.12575  0  1.004542  0
H  H9  1  0.14406425  0.61624537  0.46296329  1  0.122723  0  0.111066  0.125785  0  1.004523  0
H  H10  1  0.64418996  0.11620370  0.03705360  1  0.124296  0  0.111086  0.125777  0  1.004613  0
H  H11  1  0.35586024  0.61622887  0.96294997  1  0.123995  0  0.111034  0.125738  0  1.004649  0
H  H12  1  0.23509091  0.20313226  0.46338711  1  0.11401  0  0.111708  0.121916  0  0.999263  0
H  H13  1  0.76490722  0.70313288  0.53661624  1  0.114013  0  0.111682  0.121881  0  0.999345  0
H  H14  1  0.26491136  0.20313634  0.96334563  1  0.113992  0  0.111748  0.122017  0  0.999603  0
H  H15  1  0.73508846  0.70311823  0.03665663  1  0.114056  0  0.111744  0.122069  0  0.99952  0
H  H16  1  0.36945780  0.08063208  0.39257839  1  0.116039  0  0.115749  0.089953  0  1.014221  0
H  H17  1  0.63052589  0.58063130  0.60742390  1  0.116114  0  0.115718  0.089845  0  1.014323  0
H  H18  1  0.13047203  0.08062998  0.89255875  1  0.116335  0  0.115733  0.089822  0  1.01478  0
H  H19  1  0.86954039  0.58061315  0.10743917  1  0.116277  0  0.115715  0.089787  0  1.014853  0
H  H20  1  0.10767184  0.66568058  0.36547366  1  0.123831  0  0.116635  0.091904  0  1.018645  0
H  H21  1  0.89229329  0.16572114  0.63453245  1  0.123989  0  0.116604  0.091915  0  1.01872  0
H  H22  1  0.39227462  0.66569459  0.86549536  1  0.124217  0  0.11661  0.092032  0  1.018515  0
H  H23  1  0.60775980  0.16565695  0.13450273  1  0.124672  0  0.116541  0.091834  0  1.018533  0
H  H24  1  0.27163489  0.53367518  0.30109082  1  0.104703  0  0.112677  0.121668  0  0.996788  0
H  H25  1  0.72834301  0.03368494  0.69890999  1  0.105051  0  0.112693  0.121649  0  0.996855  0
H  H26  1  0.22830543  0.53368838  0.80111270  1  0.10488  0  0.112746  0.121779  0  0.996706  0
H  H27  1  0.77170797  0.03366910  0.19889249  1  0.10465  0  0.112664  0.121642  0  0.996794  0
H  H28  1  0.66375096  0.58910653  0.21720206  1  0.132578  0  0.112709  0.133632  0  1.002439  0
H  H29  1  0.33624422  0.08909514  0.78279245  1  0.13269  0  0.112746  0.133647  0  1.002514  0
H  H30  1  0.83620678  0.58913382  0.71720368  1  0.132716  0  0.112624  0.13347  0  1.002564  0
H  H31  1  0.16376981  0.08911276  0.28279046  1  0.13271  0  0.112667  0.133534  0  1.002414  0
H  H32  1  0.53325654  0.72697411  0.28267686  1  0.108035  0  0.11721  0.08802  0  0.998186  0
H  H33  1  0.46674369  0.22698573  0.71732394  1  0.108067  0  0.117144  0.087928  0  0.99823  0
H  H34  1  0.96669280  0.72699185  0.78267968  1  0.108006  0  0.117128  0.087806  0  0.998515  0
H  H35  1  0.03328885  0.22695214  0.21730473  1  0.108286  0  0.117152  0.087752  0  0.998467  0
H  H36  1  0.20420675  0.85060596  0.39961816  1  0.650397  0  0.292736  0.394835  0  0.942126  0
H  H37  1  0.79577937  0.35061478  0.60037968  1  0.650463  0  0.292769  0.394871  0  0.942071  0
H  H38  1  0.29572914  0.85059054  0.89963840  1  0.649505  0  0.292795  0.394875  0  0.942127  0
H  H39  1  0.70431782  0.35057121  0.10036308  1  0.649746  0  0.292727  0.39478  0  0.942243  0
H  H40  1  0.19538848  0.92640115  0.35229767  1  0.650272  0  0.297153  0.399764  0  0.928455  0
H  H41  1  0.80459619  0.42641113  0.64769975  1  0.650272  0  0.297135  0.399756  0  0.928443  0
H  H42  1  0.30461606  0.92638633  0.85232030  1  0.650661  0  0.297163  0.399788  0  0.92843  0
H  H43  1  0.69538889  0.42638545  0.14767640  1  0.65109  0  0.297234  0.400017  0  0.928181  0
C  C44  1  0.80018671  0.03938010  0.46593278  1  0.497089  0  0.04666  0.093561  0  3.948124  0
C  C45  1  0.19978534  0.53938843  0.53406868  1  0.497403  0  0.046675  0.093556  0  3.948119  0
C  C46  1  0.69983554  0.03936518  0.96594280  1  0.497463  0  0.046746  0.093774  0  3.948613  0
C  C47  1  0.30018722  0.53937254  0.03406011  1  0.497861  0  0.046878  0.094069  0  3.948527  0
C  C48  1  0.74190999  0.10797551  0.50605392  1  -0.000979  0  -0.075973  -0.140303  0  3.92891  0
C  C49  1  0.25807806  0.60798274  0.49394942  1  0.043518  0  -0.076051  -0.14045  0  3.928815  0
C  C50  1  0.75812812  0.10795307  0.00605853  1  -0.00264  0  -0.076036  -0.140332  0  3.929071  0
C  C51  1  0.24188697  0.60797613  0.99394189  1  -0.002237  0  -0.07604  -0.140423  0  3.928989  0
C  C52  1  0.53269414  0.16549200  0.50612067  1  -0.035644  0  0.003757  0.021701  0  3.942138  0
C  C53  1  0.46730476  0.66549945  0.49388034  1  -0.080173  0  0.003844  0.022005  0  3.941892  0
C  C54  1  0.96735312  0.16549267  0.00610349  1  -0.035863  0  0.004102  0.022175  0  3.941647  0
C  C55  1  0.03266775  0.66550055  0.99389278  1  -0.036136  0  0.004172  0.022162  0  3.941516  0
C  C56  1  0.39736984  0.15790715  0.46447571  1  -0.004129  0  -0.079031  -0.143936  0  3.948254  0
C  C57  1  0.60262447  0.65790947  0.53552796  1  -0.00397  0  -0.079116  -0.144177  0  3.948182  0
C  C58  1  0.10265033  0.15790949  0.96444420  1  -0.008255  0  -0.079228  -0.144425  0  3.948972  0
C  C59  1  0.89736595  0.65790450  0.03555546  1  -0.007833  0  -0.079316  -0.144494  0  3.948693  0
C  C60  1  0.47120680  0.09018490  0.42538371  1  0.437332  0  0.043804  0.088824  0  3.966163  0
C  C61  1  0.52877334  0.59018875  0.57462025  1  0.436843  0  0.043927  0.089137  0  3.966092  0
C  C62  1  0.02877613  0.09018524  0.92536016  1  0.440474  0  0.043881  0.089247  0  3.966817  0
C  C63  1  0.97123613  0.59018313  0.07463652  1  0.438825  0  0.043789  0.089097  0  3.966343  0
C  C64  1  0.44978670  0.23176189  0.55016213  1  1.591204  0  0.198241  0.564742  0  4.226173  0
C  C65  1  0.55021430  0.73175397  0.44983787  1  1.590794  0  0.198198  0.564548  0  4.226319  0
C  C66  1  0.05031737  0.23176208  0.05015025  1  1.591014  0  0.198273  0.564393  0  4.225278  0
C  C67  1  0.94972081  0.73177138  0.94984538  1  1.591133  0  0.198194  0.564383  0  4.225244  0
C  C68  1  0.01559036  0.64720281  0.33186673  1  0.485109  0  0.045123  0.089503  0  3.945649  0
C  C69  1  0.98437689  0.14723119  0.66813710  1  0.485178  0  0.045179  0.089354  0  3.945444  0
C  C70  1  0.48436262  0.64721998  0.83188306  1  0.485355  0  0.045092  0.089177  0  3.945913  0
C  C71  1  0.51563505  0.14718761  0.16811385  1  0.486124  0  0.04524  0.089533  0  3.945598  0
C  C72  1  0.10588425  0.57376476  0.29628517  1  -0.037833  0  -0.076094  -0.14193  0  3.943304  0
C  C73  1  0.89408990  0.07378528  0.70371613  1  -0.038842  0  -0.076218  -0.141895  0  3.943061  0
C  C74  1  0.39405850  0.57378751  0.79630866  1  -0.039837  0  -0.076137  -0.141845  0  3.942986  0
C  C75  1  0.60593931  0.07376429  0.20369337  1  -0.039572  0  -0.076064  -0.141831  0  3.94284  0
C  C76  1  0.98313043  0.55438868  0.25344771  1  -0.020786  0  0.005432  0.024628  0  3.941864  0
C  C77  1  0.01687105  0.05440815  0.74655133  1  -0.020446  0  0.005478  0.024706  0  3.942133  0
C  C78  1  0.51681170  0.55441230  0.75345717  1  -0.01975  0  0.005466  0.024615  0  3.942302  0
C  C79  1  0.48318133  0.05439598  0.24654624  1  -0.019908  0  0.005464  0.024569  0  3.942058  0
C  C80  1  0.76941693  0.60594557  0.24889310  1  0.030976  0  -0.075496  -0.138436  0  3.92131  0
C  C81  1  0.23056910  0.10594869  0.75110735  1  0.031177  0  -0.075515  -0.138547  0  3.921732  0
C  C82  1  0.73052433  0.60596574  0.74890109  1  0.031288  0  -0.075389  -0.138174  0  3.921487  0
C  C83  1  0.26945495  0.10594525  0.25109098  1  0.031183  0  -0.075559  -0.138406  0  3.921355  0
C  C84  1  0.69438920  0.68078767  0.28560510  1  0.439194  0  0.047908  0.094376  0  3.957048  0
C  C85  1  0.30558847  0.18079907  0.71439531  1  0.438872  0  0.047889  0.094422  0  3.956931  0
C  C86  1  0.80555887  0.68081331  0.78561714  1  0.439001  0  0.047959  0.09445  0  3.957489  0
C  C87  1  0.19442895  0.18077871  0.21437016  1  0.439279  0  0.048016  0.094646  0  3.957331  0
C  C88  1  0.08537937  0.48567413  0.21211572  1  1.544421  0  0.197255  0.556634  0  4.237529  0
C  C89  1  0.91462320  0.98568156  0.78788555  1  1.544852  0  0.197256  0.556612  0  4.237738  0
C  C90  1  0.41453163  0.48570502  0.71213227  1  1.547282  0  0.196704  0.556051  0  4.238196  0
C  C91  1  0.58543714  0.98569997  0.28787884  1  1.547045  0  0.196928  0.556616  0  4.238223  0
N  N92  1  0.66618541  0.02925619  0.42647030  1  -1.242164  0  -0.326712  -0.240546  0  3.48728  0
N  N93  1  0.33379179  0.52926633  0.57353204  1  -1.242255  0  -0.326665  -0.240526  0  3.487228  0
N  N94  1  0.83380717  0.02926242  0.92647343  1  -1.242382  0  -0.326813  -0.240778  0  3.487664  0
N  N95  1  0.16623426  0.52925393  0.07352636  1  -1.240891  0  -0.326841  -0.240845  0  3.48751  0
N  N96  1  0.81592584  0.70239947  0.32603751  1  -1.256137  0  -0.328676  -0.242816  0  3.516136  0
N  N97  1  0.18404683  0.20242707  0.67396512  1  -1.256536  0  -0.3286  -0.242635  0  3.516099  0
N  N98  1  0.68403492  0.70240355  0.82604492  1  -1.256996  0  -0.32874  -0.242687  0  3.516893  0
N  N99  1  0.31597155  0.20236224  0.17394679  1  -1.258386  0  -0.328795  -0.242818  0  3.516832  0
O  O100  1  0.24222478  0.25978539  0.55149412  1  -1.159582  0  -0.326072  -0.547062  0  2.171978  0
O  O101  1  0.75778575  0.75977765  0.44850582  1  -1.159274  0  -0.326053  -0.547005  0  2.1719  0
O  O102  1  0.25789866  0.25978937  0.05146304  1  -1.159093  0  -0.326109  -0.547007  0  2.171572  0
O  O103  1  0.74213385  0.75979568  0.94853108  1  -1.159102  0  -0.326044  -0.546967  0  2.171383  0
O  O104  1  0.11034639  0.91040203  0.38261787  1  -1.260422  0  -0.589741  -0.766056  0  2.102467  0
O  O105  1  0.88964250  0.41041422  0.61737833  1  -1.260433  0  -0.589756  -0.766088  0  2.102539  0
O  O106  1  0.38961817  0.91038355  0.88263926  1  -1.260126  0  -0.589774  -0.766113  0  2.102438  0
O  O107  1  0.61040451  0.41037899  0.11736205  1  -1.26077  0  -0.589754  -0.76616  0  2.102203  0
O  O108  1  0.59006381  0.25496319  0.58419158  1  -1.20264  0  -0.328874  -0.585307  0  2.23035  0
O  O109  1  0.40993750  0.75494698  0.41580589  1  -1.202439  0  -0.328853  -0.585233  0  2.230445  0
O  O110  1  0.91002696  0.25494548  0.08419115  1  -1.201947  0  -0.329063  -0.585318  0  2.230192  0
O  O111  1  0.09001492  0.75494621  0.91580668  1  -1.20219  0  -0.328991  -0.585272  0  2.230333  0
O  O112  1  0.94974918  0.43855063  0.18097360  1  -1.181184  0  -0.330021  -0.582357  0  2.264524  0
O  O113  1  0.05027293  0.93856725  0.81902546  1  -1.181187  0  -0.33001  -0.582201  0  2.26479  0
O  O114  1  0.55014563  0.43858373  0.68098681  1  -1.182494  0  -0.329754  -0.582024  0  2.265069  0
O  O115  1  0.44981056  0.93859226  0.31901772  1  -1.182645  0  -0.329852  -0.58225  0  2.265418  0
O  O116  1  0.29723133  0.47914582  0.20898289  1  -1.119656  0  -0.321507  -0.540249  0  2.124764  0
O  O117  1  0.70277189  0.97915685  0.79102430  1  -1.11959  0  -0.321542  -0.54032  0  2.124846  0
O  O118  1  0.20268273  0.47920299  0.70901034  1  -1.120342  0  -0.321202  -0.539978  0  2.12474  0
O  O119  1  0.79727993  0.97921589  0.29100377  1  -1.120105  0  -0.321295  -0.540212  0  2.12465  0
