# generated using pymatgen
data_CaH14(C2O)8
_symmetry_space_group_name_H-M   'P 1'
_cell_length_a   7.81343514
_cell_length_b   10.81128925
_cell_length_c   10.81132803
_cell_angle_alpha   63.49563574
_cell_angle_beta   85.68429881
_cell_angle_gamma   85.68384393
_symmetry_Int_Tables_number   1
_chemical_formula_structural   CaH14(C2O)8
_chemical_formula_sum   'Ca2 H28 C32 O16'
_cell_volume   814.07773236
_cell_formula_units_Z   2
loop_
 _symmetry_equiv_pos_site_id
 _symmetry_equiv_pos_as_xyz
  1  'x, y, z'
loop_
 _atom_site_type_symbol
 _atom_site_label
 _atom_site_symmetry_multiplicity
 _atom_site_fract_x
 _atom_site_fract_y
 _atom_site_fract_z
 _atom_site_occupancy
 _atom_site_hle17_bader_spin_density
 _atom_site_hle17_ddec_charge
 _atom_site_hle17_ddec_spin_density
 _atom_site_hle17_ddec_sum_bond_order
 _atom_site_hle17_magmom
 _atom_site_hse06_10hf_bader_spin_density
 _atom_site_hse06_10hf_ddec_charge
 _atom_site_hse06_10hf_ddec_spin_density
 _atom_site_hse06_10hf_ddec_sum_bond_order
 _atom_site_hse06_10hf_magmom
 _atom_site_hse06_bader_spin_density
 _atom_site_hse06_ddec_charge
 _atom_site_hse06_ddec_spin_density
 _atom_site_hse06_ddec_sum_bond_order
 _atom_site_hse06_magmom
 _atom_site_pbe_bader_spin_density
 _atom_site_pbe_cm5_charge
 _atom_site_pbe_ddec_charge
 _atom_site_pbe_ddec_spin_density
 _atom_site_pbe_ddec_sum_bond_order
 _atom_site_pbe_magmom
Ca  Ca0  1  0.74999919  0.94623426  0.05376906  1  0  1.558119  0  1.090179  0  0  1.425237  0  1.441796  0  0  1.46991  0  1.394767  0  0  0.874147  1.391407  0  1.4756  0
Ca  Ca1  1  0.25000179  0.05376606  0.94623149  1  0  1.558092  0  1.090204  0  0  1.425234  0  1.441784  0  0  1.469873  0  1.394804  0  0  0.874135  1.391395  0  1.475591  0
H  H2  1  0.47309046  0.91920218  0.25524955  1  0  0.431597  0  0.869668  0  0  0.398604  0  0.93677  0  0  0.409997  0  0.920106  0  0  0.29728  0.390493  0  0.948602  0
H  H3  1  0.02690375  0.74475385  0.08079419  1  0  0.431667  0  0.869575  0  0  0.398593  0  0.936802  0  0  0.409988  0  0.920134  0  0  0.297256  0.390483  0  0.948632  0
H  H4  1  0.52690931  0.08079711  0.74475059  1  0  0.431588  0  0.86968  0  0  0.398587  0  0.936796  0  0  0.409981  0  0.920131  0  0  0.297264  0.390476  0  0.948629  0
H  H5  1  0.97309719  0.25524852  0.91920358  1  0  0.43169  0  0.869537  0  0  0.398614  0  0.936765  0  0  0.410006  0  0.920101  0  0  0.297277  0.390504  0  0.948595  0
H  H6  1  0.63322678  0.91653545  0.33892072  1  0  0.434039  0  0.862603  0  0  0.403212  0  0.925793  0  0  0.413372  0  0.910755  0  0  0.301465  0.396055  0  0.936409  0
H  H7  1  0.86677000  0.66108161  0.08346268  1  0  0.434065  0  0.862592  0  0  0.403231  0  0.925792  0  0  0.413393  0  0.910751  0  0  0.301461  0.396073  0  0.93641  0
H  H8  1  0.36677167  0.08346386  0.66108131  1  0  0.43404  0  0.862609  0  0  0.403205  0  0.925812  0  0  0.413368  0  0.91077  0  0  0.301459  0.396048  0  0.936429  0
H  H9  1  0.13323100  0.33891973  0.91653464  1  0  0.434098  0  0.862531  0  0  0.403269  0  0.925722  0  0  0.413432  0  0.910679  0  0  0.301494  0.396113  0  0.936338  0
H  H10  1  0.73734629  0.34805122  0.08130157  1  0  0.043398  0  0.936552  0  0  0.051203  0  1.002996  0  0  0.053526  0  0.999021  0  0  0.107994  0.049448  0  1.005972  0
H  H11  1  0.76265222  0.91870403  0.65195974  1  0  0.043403  0  0.936355  0  0  0.051186  0  1.002814  0  0  0.053508  0  0.99884  0  0  0.107997  0.049423  0  1.005796  0
H  H12  1  0.26266610  0.65195518  0.91869021  1  0  0.04332  0  0.936413  0  0  0.051103  0  1.00293  0  0  0.053425  0  0.998959  0  0  0.107949  0.049336  0  1.005917  0
H  H13  1  0.23735267  0.08129214  0.34804806  1  0  0.043366  0  0.936497  0  0  0.051157  0  1.002932  0  0  0.053482  0  0.998955  0  0  0.10795  0.049402  0  1.005917  0
H  H14  1  0.64602242  0.70944892  0.81686019  1  0  0.105171  0  0.938897  0  0  0.113751  0  1.001177  0  0  0.117816  0  0.998078  0  0  0.110515  0.110844  0  1.003414  0
H  H15  1  0.85398327  0.18313323  0.29055827  1  0  0.105199  0  0.938875  0  0  0.113769  0  1.001163  0  0  0.117835  0  0.998062  0  0  0.110521  0.110861  0  1.0034  0
H  H16  1  0.35397982  0.29055344  0.18313661  1  0  0.105165  0  0.938914  0  0  0.113743  0  1.001194  0  0  0.117807  0  0.998094  0  0  0.11051  0.110834  0  1.003431  0
H  H17  1  0.14601531  0.81686194  0.70944747  1  0  0.105205  0  0.938848  0  0  0.113785  0  1.001124  0  0  0.11785  0  0.998022  0  0  0.110532  0.110878  0  1.00336  0
H  H18  1  0.48649375  0.77863186  0.60250634  1  0  0.099822  0  0.96669  0  0  0.105374  0  1.032333  0  0  0.108815  0  1.030497  0  0  0.102255  0.102989  0  1.033623  0
H  H19  1  0.01351327  0.39748677  0.22137007  1  0  0.099861  0  0.966634  0  0  0.105353  0  1.032334  0  0  0.108791  0  1.030502  0  0  0.102247  0.10297  0  1.033625  0
H  H20  1  0.51351237  0.22137046  0.39748939  1  0  0.099843  0  0.966611  0  0  0.105381  0  1.032291  0  0  0.108817  0  1.030458  0  0  0.102251  0.103009  0  1.033544  0
H  H21  1  0.98647877  0.60251258  0.77863129  1  0  0.099864  0  0.966575  0  0  0.105408  0  1.032224  0  0  0.108847  0  1.030392  0  0  0.102268  0.103024  0  1.033516  0
H  H22  1  0.38141450  0.59622826  0.54903675  1  0  0.090063  0  0.942919  0  0  0.10244  0  0.999189  0  0  0.104639  0  0.999636  0  0  0.104429  0.100426  0  0.999897  0
H  H23  1  0.11858456  0.45097031  0.40376707  1  0  0.09009  0  0.942867  0  0  0.102417  0  0.999191  0  0  0.104618  0  0.999638  0  0  0.104432  0.100404  0  0.999899  0
H  H24  1  0.61859287  0.40377610  0.45095523  1  0  0.09011  0  0.9429  0  0  0.102444  0  0.999208  0  0  0.104645  0  0.999655  0  0  0.104452  0.100431  0  0.999918  0
H  H25  1  0.88140345  0.54903219  0.59623490  1  0  0.090027  0  0.942906  0  0  0.102353  0  0.999234  0  0  0.104554  0  0.99968  0  0  0.1044  0.10034  0  0.999943  0
H  H26  1  0.43896345  0.34653953  0.70790867  1  0  0.109937  0  0.957205  0  0  0.118934  0  1.01934  0  0  0.122688  0  1.016951  0  0  0.114166  0.116135  0  1.021409  0
H  H27  1  0.06102655  0.29210355  0.65345371  1  0  0.109885  0  0.95743  0  0  0.118918  0  1.019527  0  0  0.122671  0  1.017139  0  0  0.114152  0.116117  0  1.021599  0
H  H28  1  0.56104000  0.65346488  0.29208623  1  0  0.109957  0  0.957149  0  0  0.118962  0  1.019288  0  0  0.122716  0  1.016899  0  0  0.11419  0.116164  0  1.021358  0
H  H29  1  0.93896281  0.70789790  0.34654775  1  0  0.109873  0  0.957441  0  0  0.11887  0  1.019573  0  0  0.122622  0  1.017185  0  0  0.114151  0.11607  0  1.021645  0
C  C30  1  0.73428992  0.45732550  0.00239631  1  0  0.340002  0  3.670811  0  0  0.292786  0  3.94548  0  0  0.313213  0  3.946606  0  0  0.102781  0.278354  0  3.945546  0
C  C31  1  0.76570483  0.99760851  0.54268099  1  0  0.340074  0  3.670774  0  0  0.292889  0  3.945369  0  0  0.313319  0  3.946487  0  0  0.102769  0.278465  0  3.945433  0
C  C32  1  0.26570996  0.54267274  0.99760152  1  0  0.340213  0  3.671066  0  0  0.292975  0  3.94577  0  0  0.313395  0  3.946901  0  0  0.102807  0.278552  0  3.945839  0
C  C33  1  0.23429488  0.00238976  0.45732424  1  0  0.340123  0  3.670798  0  0  0.292925  0  3.945451  0  0  0.313356  0  3.94657  0  0  0.102899  0.278488  0  3.945508  0
C  C34  1  0.64080491  0.49169314  0.87695342  1  0  -0.051334  0  3.790194  0  0  -0.03689  0  4.025372  0  0  -0.043437  0  4.051312  0  0  -0.022507  -0.031961  0  4.007826  0
C  C35  1  0.85919424  0.12304942  0.50831377  1  0  -0.0514  0  3.790392  0  0  -0.036827  0  4.025445  0  0  -0.043373  0  4.051387  0  0  -0.022486  -0.031897  0  4.007894  0
C  C36  1  0.35919861  0.50830921  0.12304334  1  0  -0.051472  0  3.790225  0  0  -0.037034  0  4.025436  0  0  -0.043579  0  4.051375  0  0  -0.022539  -0.032105  0  4.007886  0
C  C37  1  0.14080684  0.87694780  0.49169002  1  0  -0.051406  0  3.790426  0  0  -0.036892  0  4.025529  0  0  -0.043439  0  4.051471  0  0  -0.022544  -0.031961  0  4.007979  0
C  C38  1  0.60304288  0.63183936  0.78897865  1  0  -0.072859  0  3.721099  0  0  -0.097795  0  3.977339  0  0  -0.099363  0  3.998468  0  0  -0.07478  -0.096261  0  3.962488  0
C  C39  1  0.89695530  0.21101981  0.36816269  1  0  -0.072895  0  3.720923  0  0  -0.097855  0  3.977127  0  0  -0.099424  0  3.998256  0  0  -0.074783  -0.096322  0  3.962278  0
C  C40  1  0.39696209  0.36815987  0.21101853  1  0  -0.072862  0  3.721007  0  0  -0.097786  0  3.977242  0  0  -0.099354  0  3.99837  0  0  -0.074764  -0.096253  0  3.962389  0
C  C41  1  0.10304475  0.78897327  0.63184023  1  0  -0.072763  0  3.720947  0  0  -0.097708  0  3.977157  0  0  -0.099273  0  3.998284  0  0  -0.074702  -0.096175  0  3.962306  0
C  C42  1  0.51203411  0.66963699  0.67086478  1  0  -0.064127  0  3.741124  0  0  -0.079533  0  3.998958  0  0  -0.082241  0  4.020436  0  0  -0.082318  -0.077624  0  3.98393  0
C  C43  1  0.98796994  0.32913475  0.33036539  1  0  -0.06416  0  3.741105  0  0  -0.079512  0  3.99891  0  0  -0.08222  0  4.020391  0  0  -0.082324  -0.077606  0  3.983884  0
C  C44  1  0.48796932  0.33036742  0.32913105  1  0  -0.064049  0  3.741047  0  0  -0.079455  0  3.998862  0  0  -0.082161  0  4.020341  0  0  -0.082278  -0.077541  0  3.983837  0
C  C45  1  0.01202605  0.67086352  0.66963444  1  0  -0.064266  0  3.741258  0  0  -0.079673  0  3.999083  0  0  -0.082384  0  4.020565  0  0  -0.082382  -0.077763  0  3.984056  0
C  C46  1  0.45382620  0.56689394  0.64119894  1  0  -0.031392  0  3.718161  0  0  -0.046162  0  3.966722  0  0  -0.047244  0  3.988231  0  0  -0.072168  -0.045207  0  3.95292  0
C  C47  1  0.04617664  0.35880556  0.43310371  1  0  -0.031437  0  3.718496  0  0  -0.046145  0  3.967009  0  0  -0.04723  0  3.988515  0  0  -0.072189  -0.04519  0  3.953205  0
C  C48  1  0.54617600  0.43310843  0.35879971  1  0  -0.03146  0  3.718282  0  0  -0.046181  0  3.96682  0  0  -0.047264  0  3.988328  0  0  -0.072222  -0.045229  0  3.953023  0
C  C49  1  0.95381804  0.64119171  0.56689940  1  0  -0.031275  0  3.718543  0  0  -0.04598  0  3.967053  0  0  -0.047063  0  3.988559  0  0  -0.072102  -0.045025  0  3.95325  0
C  C50  1  0.48569872  0.42718879  0.72958802  1  0  -0.08073  0  3.707603  0  0  -0.101969  0  3.953553  0  0  -0.104216  0  3.973932  0  0  -0.075043  -0.100384  0  3.940325  0
C  C51  1  0.01429774  0.27042406  0.57280974  1  0  -0.080725  0  3.707977  0  0  -0.101965  0  3.953942  0  0  -0.104211  0  3.974321  0  0  -0.075043  -0.10038  0  3.94071  0
C  C52  1  0.51430219  0.57281461  0.27040837  1  0  -0.080876  0  3.707592  0  0  -0.102135  0  3.953561  0  0  -0.104384  0  3.973941  0  0  -0.075116  -0.100551  0  3.940335  0
C  C53  1  0.98569548  0.72957736  0.42719157  1  0  -0.08072  0  3.708054  0  0  -0.101955  0  3.953998  0  0  -0.104201  0  3.974378  0  0  -0.075093  -0.100371  0  3.940768  0
C  C54  1  0.58084657  0.38832178  0.84709189  1  0  -0.058105  0  3.698241  0  0  -0.043793  0  3.930827  0  0  -0.048568  0  3.952829  0  0  0.001709  -0.040882  0  3.916065  0
C  C55  1  0.91914637  0.15291615  0.61167848  1  0  -0.058012  0  3.698357  0  0  -0.043862  0  3.931118  0  0  -0.048642  0  3.953119  0  0  0.001727  -0.04095  0  3.916351  0
C  C56  1  0.41915578  0.61167850  0.15290491  1  0  -0.057981  0  3.698212  0  0  -0.043662  0  3.930764  0  0  -0.048437  0  3.952767  0  0  0.001738  -0.040752  0  3.916001  0
C  C57  1  0.08084957  0.84708112  0.38832551  1  0  -0.058195  0  3.698471  0  0  -0.043965  0  3.931137  0  0  -0.048748  0  3.953141  0  0  0.001682  -0.041051  0  3.916369  0
C  C58  1  0.61938458  0.23702143  0.93562526  1  0  0.664258  0  3.9238  0  0  0.612915  0  4.220827  0  0  0.647059  0  4.21258  0  0  0.222463  0.589711  0  4.225349  0
C  C59  1  0.88063188  0.06438476  0.76298728  1  0  0.66411  0  3.924248  0  0  0.612755  0  4.22136  0  0  0.646913  0  4.213088  0  0  0.222369  0.589552  0  4.225879  0
C  C60  1  0.38061649  0.76297887  0.06437160  1  0  0.664152  0  3.923962  0  0  0.612843  0  4.220935  0  0  0.646987  0  4.212688  0  0  0.222424  0.589643  0  4.225448  0
C  C61  1  0.11936664  0.93561146  0.23701892  1  0  0.664249  0  3.924166  0  0  0.612911  0  4.221228  0  0  0.647068  0  4.212954  0  0  0.222427  0.589706  0  4.225753  0
O  O62  1  0.80616317  0.54465364  0.02151401  1  0  -0.449703  0  2.039167  0  0  -0.393168  0  2.261327  0  0  -0.412147  0  2.258105  0  0  -0.251445  -0.380449  0  2.264104  0
O  O63  1  0.69383768  0.97848447  0.45535602  1  0  -0.449707  0  2.039264  0  0  -0.393211  0  2.261423  0  0  -0.412195  0  2.258193  0  0  -0.251428  -0.380499  0  2.26419  0
O  O64  1  0.19384376  0.45535799  0.97847936  1  0  -0.449715  0  2.039603  0  0  -0.393171  0  2.261775  0  0  -0.412147  0  2.258556  0  0  -0.25139  -0.380452  0  2.264544  0
O  O65  1  0.30616072  0.02151280  0.54465248  1  0  -0.449721  0  2.039174  0  0  -0.393211  0  2.261358  0  0  -0.412196  0  2.258128  0  0  -0.251483  -0.380498  0  2.264133  0
O  O66  1  0.59660293  0.88908072  0.27016746  1  0  -0.894088  0  1.774903  0  0  -0.840431  0  1.953687  0  0  -0.860738  0  1.921094  0  0  -0.629053  -0.825653  0  1.976574  0
O  O67  1  0.90339001  0.72983574  0.11091461  1  0  -0.894174  0  1.774778  0  0  -0.840463  0  1.953665  0  0  -0.860773  0  1.921066  0  0  -0.629028  -0.825686  0  1.976552  0
O  O68  1  0.40339548  0.11091962  0.72983319  1  0  -0.894085  0  1.774888  0  0  -0.840429  0  1.953693  0  0  -0.860733  0  1.921098  0  0  -0.629038  -0.825653  0  1.976582  0
O  O69  1  0.09660978  0.27016456  0.88908230  1  0  -0.894204  0  1.774717  0  0  -0.840508  0  1.953629  0  0  -0.860812  0  1.921031  0  0  -0.629073  -0.825731  0  1.976514  0
O  O70  1  0.77111893  0.19668397  0.97818776  1  0  -0.691105  0  2.015147  0  0  -0.628931  0  2.245185  0  0  -0.65647  0  2.234933  0  0  -0.335575  -0.609142  0  2.251388  0
O  O71  1  0.72887690  0.02181621  0.80332129  1  0  -0.691091  0  2.014848  0  0  -0.628919  0  2.24488  0  0  -0.656468  0  2.234619  0  0  -0.335612  -0.609131  0  2.251089  0
O  O72  1  0.22888209  0.80331634  0.02181095  1  0  -0.691054  0  2.01524  0  0  -0.628899  0  2.245271  0  0  -0.65643  0  2.235007  0  0  -0.335555  -0.609108  0  2.251466  0
O  O73  1  0.27112039  0.97818000  0.19668218  1  0  -0.691127  0  2.014813  0  0  -0.628989  0  2.244859  0  0  -0.656532  0  2.234593  0  0  -0.335654  -0.609203  0  2.251074  0
O  O74  1  0.50150707  0.15315275  0.96314126  1  0  -0.703947  0  2.01308  0  0  -0.643149  0  2.261109  0  0  -0.671632  0  2.252119  0  0  -0.359233  -0.622573  0  2.266566  0
O  O75  1  0.99848976  0.03686969  0.84684102  1  0  -0.703786  0  2.013855  0  0  -0.642973  0  2.261892  0  0  -0.671452  0  2.252891  0  0  -0.359124  -0.622402  0  2.26735  0
O  O76  1  0.49849127  0.84684965  0.03685755  1  0  -0.7039  0  2.013098  0  0  -0.643123  0  2.261135  0  0  -0.67161  0  2.252144  0  0  -0.359219  -0.62255  0  2.26659  0
O  O77  1  0.00150635  0.96312344  0.15316574  1  0  -0.703826  0  2.013809  0  0  -0.643026  0  2.261849  0  0  -0.671507  0  2.252845  0  0  -0.359103  -0.622455  0  2.267309  0
