# generated using pymatgen
data_NaH4C3N6ClO2
_symmetry_space_group_name_H-M   'P 1'
_cell_length_a   8.29028900
_cell_length_b   9.48262793
_cell_length_c   10.22862388
_cell_angle_alpha   89.99996885
_cell_angle_beta   109.03992455
_cell_angle_gamma   90.00002366
_symmetry_Int_Tables_number   1
_chemical_formula_structural   NaH4C3N6ClO2
_chemical_formula_sum   'Na4 H16 C12 N24 Cl4 O8'
_cell_volume   760.11855931
_cell_formula_units_Z   4
loop_
 _symmetry_equiv_pos_site_id
 _symmetry_equiv_pos_as_xyz
  1  'x, y, z'
loop_
 _atom_site_type_symbol
 _atom_site_label
 _atom_site_symmetry_multiplicity
 _atom_site_fract_x
 _atom_site_fract_y
 _atom_site_fract_z
 _atom_site_occupancy
 _atom_site_pbe_bader_charge
 _atom_site_pbe_bader_spin_density
 _atom_site_pbe_cm5_charge
 _atom_site_pbe_ddec_charge
 _atom_site_pbe_ddec_spin_density
 _atom_site_pbe_ddec_sum_bond_order
 _atom_site_pbe_magmom
Na  Na0  1  0.97723840  0.18597894  0.92335783  1  0.891078  0  0.698984  0.806517  0  0.571696  0
Na  Na1  1  0.52276054  0.68597974  0.07664129  1  0.891081  0  0.698975  0.806522  0  0.571676  0
Na  Na2  1  0.02276263  0.81402116  0.07664243  1  0.891088  0  0.698987  0.806534  0  0.571665  0
Na  Na3  1  0.47724049  0.31402036  0.92335897  1  0.89109  0  0.698976  0.806516  0  0.571691  0
H  H4  1  0.83243952  0.30785986  0.32529416  1  0.153849  0  0.113459  0.102437  0  1.049752  0
H  H5  1  0.66756201  0.80786037  0.67470656  1  0.153934  0  0.113451  0.102427  0  1.049762  0
H  H6  1  0.16756279  0.69214024  0.67470644  1  0.153934  0  0.113456  0.102448  0  1.049776  0
H  H7  1  0.33243775  0.19213974  0.32529336  1  0.153932  0  0.113453  0.102435  0  1.049758  0
H  H8  1  0.61837576  0.27929074  0.31820436  1  0.145139  0  0.117004  0.102796  0  1.031759  0
H  H9  1  0.88162576  0.77928921  0.68179540  1  0.145136  0  0.117001  0.102792  0  1.031697  0
H  H10  1  0.38162527  0.72070937  0.68179493  1  0.14513  0  0.116998  0.102777  0  1.031754  0
H  H11  1  0.11837400  0.22070984  0.31820452  1  0.145131  0  0.117  0.102792  0  1.031719  0
H  H12  1  0.93878131  0.16704020  0.54598840  1  0.112015  0  0.097311  0.093023  0  1.043613  0
H  H13  1  0.56122017  0.66704080  0.45401238  1  0.112026  0  0.097319  0.093019  0  1.043638  0
H  H14  1  0.06121972  0.83295885  0.45401186  1  0.112022  0  0.097322  0.093019  0  1.043626  0
H  H15  1  0.43877958  0.33295931  0.54598754  1  0.112031  0  0.097323  0.093021  0  1.043636  0
H  H16  1  0.81501093  0.31619292  0.56094125  1  0.104833  0  0.097118  0.102638  0  1.016686  0
H  H17  1  0.68498932  0.81619357  0.43905913  1  0.104828  0  0.09712  0.102634  0  1.01667  0
H  H18  1  0.18499010  0.68380613  0.43905901  1  0.104826  0  0.097116  0.102626  0  1.016675  0
H  H19  1  0.31501043  0.18380653  0.56094177  1  0.104822  0  0.097106  0.102609  0  1.016715  0
C  C20  1  0.74723406  0.23483367  0.35463020  1  0.278287  0  -0.058913  -0.099432  0  3.900368  0
C  C21  1  0.75276616  0.73483316  0.64537022  1  0.278163  0  -0.058922  -0.099436  0  3.900379  0
C  C22  1  0.25276697  0.76516644  0.64537006  1  0.278212  0  -0.058903  -0.09944  0  3.900348  0
C  C23  1  0.24723359  0.26516694  0.35463068  1  0.27822  0  -0.058924  -0.09942  0  3.900382  0
C  C24  1  0.60907678  0.02283233  0.20595504  1  1.453082  0  0.33634  0.363198  0  4.110357  0
C  C25  1  0.89092339  0.52283073  0.79404547  1  1.453278  0  0.336331  0.36315  0  4.110408  0
C  C26  1  0.39092426  0.97716778  0.79404522  1  1.453143  0  0.336309  0.363117  0  4.110363  0
C  C27  1  0.10907637  0.47716832  0.20595543  1  1.453086  0  0.336282  0.363064  0  4.110459  0
C  C28  1  0.81160118  0.21431084  0.50990337  1  0.025161  0  -0.125435  -0.109635  0  3.907731  0
C  C29  1  0.68839904  0.71431146  0.49009705  1  0.025158  0  -0.125428  -0.109607  0  3.907744  0
C  C30  1  0.18839857  0.78568821  0.49009655  1  0.025167  0  -0.125447  -0.109612  0  3.907668  0
C  C31  1  0.31160072  0.28568864  0.50990385  1  0.025152  0  -0.125414  -0.109573  0  3.907733  0
N  N32  1  0.74457494  0.10343340  0.28071316  1  -0.778366  0  -0.116402  0.063577  0  3.684961  0
N  N33  1  0.75542652  0.60343286  0.71928667  1  -0.778315  0  -0.116403  0.063553  0  3.684972  0
N  N34  1  0.25542609  0.89656670  0.71928710  1  -0.778368  0  -0.116405  0.063567  0  3.684962  0
N  N35  1  0.24457451  0.39656619  0.28071359  1  -0.778368  0  -0.116367  0.063542  0  3.685067  0
N  N36  1  0.67373677  0.90628787  0.16603393  1  -0.645372  0  -0.295932  -0.377884  0  3.287137  0
N  N37  1  0.82626351  0.40628707  0.83396544  1  -0.645501  0  -0.295932  -0.377864  0  3.28714  0
N  N38  1  0.32626426  0.09371223  0.83396633  1  -0.645451  0  -0.295931  -0.377881  0  3.287122  0
N  N39  1  0.17373625  0.59371198  0.16603351  1  -0.645383  0  -0.295927  -0.377842  0  3.287102  0
N  N40  1  0.89028014  0.03809395  0.28506501  1  -0.107625  0  -0.067966  -0.083243  0  3.166548  0
N  N41  1  0.60972131  0.53809335  0.71493485  1  -0.107661  0  -0.067967  -0.083214  0  3.166478  0
N  N42  1  0.10972089  0.96190616  0.71493525  1  -0.107676  0  -0.067963  -0.083212  0  3.166528  0
N  N43  1  0.39027972  0.46190570  0.28506443  1  -0.107609  0  -0.067967  -0.083205  0  3.166526  0
N  N44  1  0.44950356  0.07500666  0.18464292  1  -0.629881  0  -0.219652  -0.41077  0  3.177084  0
N  N45  1  0.05049822  0.57500388  0.81535629  1  -0.629914  0  -0.219685  -0.410764  0  3.177128  0
N  N46  1  0.55049875  0.92499450  0.81535768  1  -0.629858  0  -0.219621  -0.41069  0  3.17702  0
N  N47  1  0.94950153  0.42499517  0.18464363  1  -0.629835  0  -0.219619  -0.410666  0  3.177042  0
N  N48  1  0.84620676  0.92114980  0.21597681  1  -0.144281  0  -0.130514  -0.095183  0  3.371112  0
N  N49  1  0.65379352  0.42114897  0.78402254  1  -0.144218  0  -0.130496  -0.095171  0  3.371031  0
N  N50  1  0.15379427  0.07884925  0.78402345  1  -0.14419  0  -0.130493  -0.095158  0  3.371076  0
N  N51  1  0.34620623  0.57885009  0.21597640  1  -0.144273  0  -0.130505  -0.095173  0  3.371025  0
N  N52  1  0.31660877  0.99688718  0.11863723  1  0.584633  0  0.095903  0.662411  0  4.342458  0
N  N53  1  0.18339186  0.49688313  0.88136244  1  0.584529  0  0.095827  0.662336  0  4.342718  0
N  N54  1  0.68339226  0.00311398  0.88136303  1  0.58462  0  0.095874  0.66238  0  4.342606  0
N  N55  1  0.81660790  0.50311592  0.11863651  1  0.584532  0  0.095809  0.662314  0  4.342667  0
Cl  Cl56  1  0.67574522  0.09977504  0.56679540  1  -0.276748  0  -0.015268  -0.082743  0  1.60723  0
Cl  Cl57  1  0.82425497  0.59977574  0.43320409  1  -0.276768  0  -0.01526  -0.082737  0  1.607212  0
Cl  Cl58  1  0.32425581  0.90022401  0.43320388  1  -0.276756  0  -0.015263  -0.082742  0  1.607193  0
Cl  Cl59  1  0.17574479  0.40022331  0.56679681  1  -0.27673  0  -0.015272  -0.082757  0  1.607208  0
O  O60  1  0.17085364  0.05037000  0.10320442  1  -0.587828  0  -0.272161  -0.527531  0  2.025656  0
O  O61  1  0.32914686  0.55036411  0.89679446  1  -0.587693  0  -0.272069  -0.527486  0  2.02582  0
O  O62  1  0.82914739  0.94963116  0.89679584  1  -0.587863  0  -0.272152  -0.527546  0  2.025698  0
O  O63  1  0.67085162  0.44963600  0.10320512  1  -0.587719  0  -0.272086  -0.5275  0  2.025744  0
O  O64  1  0.32485837  0.87322422  0.07354971  1  -0.577975  0  -0.253879  -0.510197  0  2.022604  0
O  O65  1  0.17513967  0.37322120  0.92645227  1  -0.578081  0  -0.253869  -0.510141  0  2.022519  0
O  O66  1  0.67514139  0.12677589  0.92645119  1  -0.577997  0  -0.253874  -0.510187  0  2.02269  0
O  O67  1  0.82486009  0.62677786  0.07354863  1  -0.578047  0  -0.253869  -0.510152  0  2.022615  0
