# generated using pymatgen
data_ZnH8(C3O4)2
_symmetry_space_group_name_H-M   'P 1'
_cell_length_a   5.98551490
_cell_length_b   10.37916646
_cell_length_c   13.25165901
_cell_angle_alpha   90.00016151
_cell_angle_beta   90.00008667
_cell_angle_gamma   90.00007673
_symmetry_Int_Tables_number   1
_chemical_formula_structural   ZnH8(C3O4)2
_chemical_formula_sum   'Zn4 H32 C24 O32'
_cell_volume   823.25475178
_cell_formula_units_Z   4
loop_
 _symmetry_equiv_pos_site_id
 _symmetry_equiv_pos_as_xyz
  1  'x, y, z'
loop_
 _atom_site_type_symbol
 _atom_site_label
 _atom_site_symmetry_multiplicity
 _atom_site_fract_x
 _atom_site_fract_y
 _atom_site_fract_z
 _atom_site_occupancy
 _atom_site_hle17_bader_spin_density
 _atom_site_hle17_ddec_charge
 _atom_site_hle17_ddec_spin_density
 _atom_site_hle17_ddec_sum_bond_order
 _atom_site_hle17_magmom
 _atom_site_hse06_10hf_bader_spin_density
 _atom_site_hse06_10hf_ddec_charge
 _atom_site_hse06_10hf_ddec_spin_density
 _atom_site_hse06_10hf_ddec_sum_bond_order
 _atom_site_hse06_10hf_magmom
 _atom_site_hse06_bader_spin_density
 _atom_site_hse06_ddec_charge
 _atom_site_hse06_ddec_spin_density
 _atom_site_hse06_ddec_sum_bond_order
 _atom_site_hse06_magmom
 _atom_site_pbe_bader_spin_density
 _atom_site_pbe_cm5_charge
 _atom_site_pbe_ddec_charge
 _atom_site_pbe_ddec_spin_density
 _atom_site_pbe_ddec_sum_bond_order
 _atom_site_pbe_magmom
Zn  Zn0  1  0.58723465  0.16742896  0.05005525  1  0  1.211788  0  1.677095  0  0  1.045584  0  2.127587  0  0  1.093828  0  2.065789  0  0  0.694402  1.011223  0  2.170722  0
Zn  Zn1  1  0.91276723  0.83257202  0.55005010  1  0  1.211814  0  1.677087  0  0  1.045593  0  2.127635  0  0  1.093827  0  2.065839  0  0  0.694388  1.011233  0  2.170773  0
Zn  Zn2  1  0.08723428  0.33257372  0.94994863  1  0  1.211831  0  1.6771  0  0  1.045624  0  2.127621  0  0  1.093867  0  2.065824  0  0  0.694433  1.011257  0  2.170755  0
Zn  Zn3  1  0.41276309  0.66742545  0.44994756  1  0  1.211888  0  1.676974  0  0  1.045708  0  2.127447  0  0  1.093941  0  2.06565  0  0  0.694452  1.011341  0  2.17058  0
H  H4  1  0.11250223  0.10149813  0.30016710  1  0  0.149545  0  0.948896  0  0  0.159445  0  1.010007  0  0  0.162894  0  1.008778  0  0  0.113356  0.15708  0  1.010832  0
H  H5  1  0.38749797  0.89850147  0.80016434  1  0  0.149514  0  0.948933  0  0  0.159438  0  1.010005  0  0  0.162882  0  1.00879  0  0  0.113362  0.157075  0  1.010825  0
H  H6  1  0.61248867  0.39849686  0.69983755  1  0  0.149564  0  0.948816  0  0  0.159467  0  1.009905  0  0  0.162914  0  1.008677  0  0  0.113364  0.157094  0  1.01073  0
H  H7  1  0.88751038  0.60150755  0.19983859  1  0  0.149572  0  0.94887  0  0  0.159495  0  1.009916  0  0  0.162937  0  1.008696  0  0  0.113353  0.157126  0  1.010736  0
H  H8  1  0.37606511  0.02811566  0.31039677  1  0  0.148164  0  0.902403  0  0  0.161888  0  0.957494  0  0  0.165619  0  0.955045  0  0  0.115879  0.159061  0  0.959649  0
H  H9  1  0.12393346  0.97188301  0.81039474  1  0  0.148155  0  0.902408  0  0  0.161892  0  0.957485  0  0  0.165626  0  0.955028  0  0  0.11588  0.159063  0  0.959642  0
H  H10  1  0.87605003  0.47188433  0.68960127  1  0  0.148198  0  0.902414  0  0  0.161913  0  0.957469  0  0  0.165643  0  0.955021  0  0  0.115881  0.159083  0  0.959622  0
H  H11  1  0.62395399  0.52811715  0.18959894  1  0  0.148203  0  0.902392  0  0  0.161915  0  0.95745  0  0  0.165643  0  0.955004  0  0  0.115867  0.159086  0  0.959602  0
H  H12  1  0.19997592  0.84504139  0.24391839  1  0  0.144328  0  0.93401  0  0  0.151814  0  0.99728  0  0  0.155197  0  0.995877  0  0  0.108591  0.149353  0  0.998425  0
H  H13  1  0.30002576  0.15495608  0.74392600  1  0  0.144323  0  0.933843  0  0  0.151779  0  0.997172  0  0  0.155162  0  0.995766  0  0  0.10858  0.149318  0  0.998317  0
H  H14  1  0.69998198  0.65495497  0.75607988  1  0  0.144416  0  0.93389  0  0  0.151857  0  0.997198  0  0  0.15524  0  0.995795  0  0  0.108647  0.149396  0  0.998342  0
H  H15  1  0.80002227  0.34504193  0.25607727  1  0  0.144356  0  0.93388  0  0  0.151784  0  0.997213  0  0  0.155167  0  0.995808  0  0  0.108585  0.149321  0  0.998358  0
H  H16  1  0.94965246  0.91423788  0.19853648  1  0  0.146068  0  0.933872  0  0  0.155534  0  0.995726  0  0  0.159013  0  0.993822  0  0  0.113508  0.153039  0  0.99719  0
H  H17  1  0.55034826  0.08575785  0.69853697  1  0  0.146043  0  0.933837  0  0  0.155556  0  0.995658  0  0  0.159033  0  0.993755  0  0  0.113515  0.153056  0  0.997127  0
H  H18  1  0.44965430  0.58576443  0.80146121  1  0  0.146023  0  0.933922  0  0  0.155546  0  0.995687  0  0  0.159023  0  0.993786  0  0  0.113535  0.153047  0  0.997153  0
H  H19  1  0.05034758  0.41423324  0.30146009  1  0  0.146001  0  0.933983  0  0  0.155527  0  0.995745  0  0  0.159005  0  0.993842  0  0  0.113511  0.153028  0  0.997212  0
H  H20  1  0.65988586  0.97716416  0.91772187  1  0  0.452891  0  0.836207  0  0  0.421081  0  0.899849  0  0  0.431788  0  0.884101  0  0  0.304308  0.413186  0  0.911486  0
H  H21  1  0.84011058  0.02284006  0.41772084  1  0  0.452809  0  0.836316  0  0  0.420995  0  0.899964  0  0  0.431703  0  0.884216  0  0  0.304265  0.413098  0  0.911603  0
H  H22  1  0.15989849  0.52284373  0.08228090  1  0  0.452805  0  0.836307  0  0  0.420977  0  0.899985  0  0  0.431688  0  0.884231  0  0  0.304253  0.413082  0  0.911622  0
H  H23  1  0.34010098  0.47715701  0.58228019  1  0  0.452808  0  0.836293  0  0  0.420974  0  0.899981  0  0  0.431685  0  0.884227  0  0  0.304263  0.413077  0  0.91162  0
H  H24  1  0.52785741  0.92286837  0.13777188  1  0  0.408304  0  0.883289  0  0  0.375292  0  0.96016  0  0  0.387832  0  0.94614  0  0  0.304382  0.366483  0  0.969948  0
H  H25  1  0.97214143  0.07713485  0.63777113  1  0  0.408299  0  0.883279  0  0  0.375306  0  0.960115  0  0  0.387834  0  0.946108  0  0  0.304384  0.366496  0  0.969901  0
H  H26  1  0.02785443  0.57713075  0.86222778  1  0  0.408336  0  0.883218  0  0  0.375339  0  0.960068  0  0  0.387872  0  0.946056  0  0  0.30441  0.366527  0  0.969853  0
H  H27  1  0.47214766  0.42286714  0.36222773  1  0  0.408312  0  0.883255  0  0  0.375309  0  0.960119  0  0  0.387841  0  0.946107  0  0  0.304384  0.366495  0  0.969906  0
H  H28  1  0.78080829  0.10694011  0.87908352  1  0  0.426426  0  0.868079  0  0  0.39619  0  0.931003  0  0  0.405986  0  0.916724  0  0  0.299747  0.389081  0  0.941406  0
H  H29  1  0.71918802  0.89306205  0.37908283  1  0  0.426431  0  0.868159  0  0  0.396213  0  0.930995  0  0  0.406009  0  0.916714  0  0  0.299764  0.389103  0  0.9414  0
H  H30  1  0.28080862  0.39306656  0.12092048  1  0  0.42652  0  0.868025  0  0  0.396255  0  0.930957  0  0  0.406057  0  0.916665  0  0  0.29977  0.389143  0  0.941364  0
H  H31  1  0.21918764  0.60693529  0.62091847  1  0  0.426449  0  0.868182  0  0  0.396219  0  0.931  0  0  0.406016  0  0.916717  0  0  0.299774  0.389107  0  0.941407  0
H  H32  1  0.11342977  0.79622559  0.94354844  1  0  0.40326  0  0.882575  0  0  0.367092  0  0.967644  0  0  0.379624  0  0.954765  0  0  0.30634  0.358412  0  0.976435  0
H  H33  1  0.38656758  0.20378030  0.44354935  1  0  0.403253  0  0.882519  0  0  0.367081  0  0.967594  0  0  0.379615  0  0.954715  0  0  0.306314  0.358404  0  0.976378  0
H  H34  1  0.61343359  0.70377745  0.05645279  1  0  0.40331  0  0.882465  0  0  0.367116  0  0.967589  0  0  0.379654  0  0.954703  0  0  0.306326  0.358434  0  0.976384  0
H  H35  1  0.88655829  0.29622066  0.55645096  1  0  0.403329  0  0.882438  0  0  0.367151  0  0.967515  0  0  0.379684  0  0.954636  0  0  0.306347  0.35847  0  0.976308  0
C  C36  1  0.24085176  0.02325657  0.15982613  1  0  0.276091  0  3.583769  0  0  0.269837  0  3.826167  0  0  0.273986  0  3.838084  0  0  0.072045  0.266841  0  3.818172  0
C  C37  1  0.25915132  0.97674638  0.65982421  1  0  0.27603  0  3.583755  0  0  0.269892  0  3.826116  0  0  0.27403  0  3.838041  0  0  0.072058  0.266897  0  3.818122  0
C  C38  1  0.74084722  0.47674718  0.84017634  1  0  0.276131  0  3.583731  0  0  0.269742  0  3.826283  0  0  0.273886  0  3.838207  0  0  0.072057  0.266746  0  3.81828  0
C  C39  1  0.75915397  0.52325291  0.34017636  1  0  0.276261  0  3.583645  0  0  0.269885  0  3.826141  0  0  0.274025  0  3.838063  0  0  0.072109  0.266888  0  3.818143  0
C  C40  1  0.09614741  0.11023641  0.09093443  1  0  0.64692  0  3.796287  0  0  0.594238  0  4.089  0  0  0.627941  0  4.08242  0  0  0.225524  0.57093  0  4.093289  0
C  C41  1  0.40384207  0.88976244  0.59092940  1  0  0.647202  0  3.795772  0  0  0.594258  0  4.088865  0  0  0.627958  0  4.082292  0  0  0.225612  0.570953  0  4.093155  0
C  C42  1  0.59614790  0.38976243  0.90906870  1  0  0.64679  0  3.796426  0  0  0.594159  0  4.089104  0  0  0.627857  0  4.08253  0  0  0.225477  0.570853  0  4.093387  0
C  C43  1  0.90385687  0.61023502  0.40906901  1  0  0.646936  0  3.796415  0  0  0.594356  0  4.089018  0  0  0.628057  0  4.08244  0  0  0.225605  0.571039  0  4.093326  0
C  C44  1  0.27413904  0.09098668  0.26175761  1  0  -0.380663  0  3.61878  0  0  -0.421299  0  3.859607  0  0  -0.42923  0  3.865352  0  0  -0.168496  -0.415537  0  3.855543  0
C  C45  1  0.22586103  0.90901375  0.76175703  1  0  -0.380619  0  3.618773  0  0  -0.421255  0  3.859589  0  0  -0.429188  0  3.865336  0  0  -0.168517  -0.415492  0  3.855526  0
C  C46  1  0.77413065  0.40901228  0.73824262  1  0  -0.380788  0  3.618753  0  0  -0.421304  0  3.859544  0  0  -0.429234  0  3.865289  0  0  -0.168539  -0.415539  0  3.855472  0
C  C47  1  0.72587187  0.59098745  0.23824277  1  0  -0.380793  0  3.618735  0  0  -0.421284  0  3.859552  0  0  -0.429209  0  3.86529  0  0  -0.168489  -0.415521  0  3.855485  0
C  C48  1  0.38013510  0.22353396  0.25937696  1  0  0.757188  0  3.735894  0  0  0.697288  0  4.043636  0  0  0.732129  0  4.034873  0  0  0.233556  0.673553  0  4.048805  0
C  C49  1  0.11986831  0.77646549  0.75937374  1  0  0.757155  0  3.735602  0  0  0.697156  0  4.043496  0  0  0.731989  0  4.034745  0  0  0.233532  0.673424  0  4.048664  0
C  C50  1  0.88012638  0.27646989  0.74062334  1  0  0.757414  0  3.735462  0  0  0.697376  0  4.043369  0  0  0.732212  0  4.034611  0  0  0.233629  0.673644  0  4.048534  0
C  C51  1  0.61986445  0.72352696  0.24062598  1  0  0.757365  0  3.735205  0  0  0.697236  0  4.043295  0  0  0.732078  0  4.034533  0  0  0.233618  0.673503  0  4.048459  0
C  C52  1  0.12436334  0.89395654  0.17911747  1  0  -0.373622  0  3.630721  0  0  -0.415246  0  3.870222  0  0  -0.423347  0  3.876548  0  0  -0.169267  -0.409522  0  3.865871  0
C  C53  1  0.37563981  0.10604551  0.67911748  1  0  -0.373517  0  3.630541  0  0  -0.415256  0  3.870048  0  0  -0.423356  0  3.876377  0  0  -0.169277  -0.409529  0  3.865694  0
C  C54  1  0.62436448  0.60604554  0.82088678  1  0  -0.373732  0  3.630932  0  0  -0.415303  0  3.870431  0  0  -0.423402  0  3.876757  0  0  -0.169365  -0.409578  0  3.866075  0
C  C55  1  0.87563665  0.39395159  0.32088358  1  0  -0.373734  0  3.630682  0  0  -0.415315  0  3.8702  0  0  -0.423416  0  3.87653  0  0  -0.169277  -0.409588  0  3.865846  0
C  C56  1  0.12540893  0.80260030  0.09074202  1  0  0.748236  0  3.733966  0  0  0.691442  0  4.049745  0  0  0.725478  0  4.038534  0  0  0.238338  0.668146  0  4.05701  0
C  C57  1  0.37459726  0.19741396  0.59074978  1  0  0.748092  0  3.734436  0  0  0.691478  0  4.049939  0  0  0.725506  0  4.038738  0  0  0.238273  0.668181  0  4.057202  0
C  C58  1  0.62541060  0.69740082  0.90925695  1  0  0.748374  0  3.734167  0  0  0.691583  0  4.049902  0  0  0.725615  0  4.038694  0  0  0.238404  0.668286  0  4.057167  0
C  C59  1  0.87458916  0.30258700  0.40925203  1  0  0.748708  0  3.734015  0  0  0.691887  0  4.049772  0  0  0.725921  0  4.038559  0  0  0.23844  0.668589  0  4.057041  0
O  O60  1  0.45209998  0.00433982  0.11191822  1  0  -0.626404  0  2.207668  0  0  -0.556041  0  2.463202  0  0  -0.576713  0  2.446852  0  0  -0.388263  -0.541518  0  2.474406  0
O  O61  1  0.04789792  0.99566199  0.61191846  1  0  -0.626454  0  2.207751  0  0  -0.556096  0  2.46325  0  0  -0.576745  0  2.446893  0  0  -0.388253  -0.541569  0  2.474451  0
O  O62  1  0.95210066  0.49565734  0.88808062  1  0  -0.626502  0  2.207754  0  0  -0.556146  0  2.463378  0  0  -0.576811  0  2.447029  0  0  -0.388322  -0.541623  0  2.474578  0
O  O63  1  0.54790236  0.50434197  0.38807970  1  0  -0.626555  0  2.207833  0  0  -0.556206  0  2.463462  0  0  -0.576856  0  2.4471  0  0  -0.388319  -0.541675  0  2.474654  0
O  O64  1  0.19581965  0.16656839  0.01743731  1  0  -0.657564  0  2.129812  0  0  -0.582937  0  2.408667  0  0  -0.612415  0  2.391586  0  0  -0.303845  -0.562241  0  2.420127  0
O  O65  1  0.30417459  0.83343212  0.51743586  1  0  -0.657659  0  2.129826  0  0  -0.582929  0  2.408807  0  0  -0.61237  0  2.391672  0  0  -0.303883  -0.562235  0  2.420267  0
O  O66  1  0.69582191  0.33343244  0.98256588  1  0  -0.65748  0  2.129848  0  0  -0.582862  0  2.408711  0  0  -0.612314  0  2.391592  0  0  -0.303825  -0.562168  0  2.420169  0
O  O67  1  0.80418644  0.66656624  0.48256399  1  0  -0.657571  0  2.129969  0  0  -0.582988  0  2.408828  0  0  -0.612466  0  2.391752  0  0  -0.30389  -0.562293  0  2.420298  0
O  O68  1  0.89493422  0.12314336  0.11619646  1  0  -0.613327  0  2.059291  0  0  -0.553923  0  2.323589  0  0  -0.580566  0  2.310242  0  0  -0.305129  -0.535411  0  2.332393  0
O  O69  1  0.60506121  0.87685015  0.61619195  1  0  -0.613471  0  2.058859  0  0  -0.554024  0  2.323333  0  0  -0.58067  0  2.309995  0  0  -0.305172  -0.535512  0  2.332134  0
O  O70  1  0.39494376  0.37685183  0.88380461  1  0  -0.613226  0  2.059216  0  0  -0.553904  0  2.323599  0  0  -0.580546  0  2.310259  0  0  -0.305116  -0.535396  0  2.332399  0
O  O71  1  0.10506174  0.62314518  0.38380097  1  0  -0.613298  0  2.059242  0  0  -0.553971  0  2.323563  0  0  -0.580614  0  2.310221  0  0  -0.305156  -0.535458  0  2.332372  0
O  O72  1  0.46201437  0.27232678  0.17895918  1  0  -0.671645  0  2.040924  0  0  -0.596743  0  2.292866  0  0  -0.624204  0  2.278462  0  0  -0.30742  -0.577457  0  2.302532  0
O  O73  1  0.03798543  0.72767335  0.67895732  1  0  -0.671592  0  2.040835  0  0  -0.596653  0  2.292799  0  0  -0.624106  0  2.278397  0  0  -0.307385  -0.577365  0  2.302463  0
O  O74  1  0.96200746  0.22767713  0.82104268  1  0  -0.671748  0  2.040585  0  0  -0.596777  0  2.292556  0  0  -0.62423  0  2.278153  0  0  -0.307452  -0.577491  0  2.302221  0
O  O75  1  0.53799367  0.77232194  0.32104612  1  0  -0.671648  0  2.040594  0  0  -0.596725  0  2.292689  0  0  -0.62418  0  2.278287  0  0  -0.307446  -0.577438  0  2.302353  0
O  O76  1  0.37593518  0.28564314  0.34264056  1  0  -0.62882  0  2.052189  0  0  -0.56037  0  2.276624  0  0  -0.588464  0  2.268216  0  0  -0.295761  -0.540892  0  2.281949  0
O  O77  1  0.12407018  0.71435179  0.84263646  1  0  -0.628841  0  2.051864  0  0  -0.560371  0  2.276349  0  0  -0.588461  0  2.267947  0  0  -0.295804  -0.540893  0  2.281675  0
O  O78  1  0.87592268  0.21435300  0.65736200  1  0  -0.628914  0  2.051983  0  0  -0.560453  0  2.276503  0  0  -0.588542  0  2.268095  0  0  -0.295825  -0.540977  0  2.281833  0
O  O79  1  0.62405284  0.78564451  0.15736327  1  0  -0.628983  0  2.051873  0  0  -0.560441  0  2.27639  0  0  -0.588544  0  2.267991  0  0  -0.295825  -0.540963  0  2.281718  0
O  O80  1  0.10115029  0.85986196  0.00226863  1  0  -0.54324  0  2.100085  0  0  -0.486673  0  2.324901  0  0  -0.509416  0  2.310469  0  0  -0.325455  -0.470779  0  2.334439  0
O  O81  1  0.39883889  0.14013850  0.50226948  1  0  -0.543309  0  2.099844  0  0  -0.486758  0  2.324531  0  0  -0.509501  0  2.3101  0  0  -0.325452  -0.470867  0  2.334068  0
O  O82  1  0.60118051  0.64014011  0.99773184  1  0  -0.543287  0  2.100005  0  0  -0.486672  0  2.324752  0  0  -0.50941  0  2.310305  0  0  -0.325435  -0.470785  0  2.334308  0
O  O83  1  0.89882789  0.35985669  0.49772631  1  0  -0.543616  0  2.099872  0  0  -0.486981  0  2.324625  0  0  -0.509717  0  2.310178  0  0  -0.325588  -0.471093  0  2.334176  0
O  O84  1  0.14588991  0.68501285  0.10206576  1  0  -0.594057  0  1.977045  0  0  -0.546623  0  2.20397  0  0  -0.567978  0  2.192804  0  0  -0.295768  -0.531841  0  2.211616  0
O  O85  1  0.35412801  0.31498315  0.60207301  1  0  -0.593925  0  1.977603  0  0  -0.546537  0  2.204416  0  0  -0.567889  0  2.193258  0  0  -0.295706  -0.53176  0  2.212061  0
O  O86  1  0.64587012  0.81499599  0.89793020  1  0  -0.59413  0  1.976923  0  0  -0.546723  0  2.203841  0  0  -0.568075  0  2.192681  0  0  -0.295827  -0.531944  0  2.211492  0
O  O87  1  0.85412458  0.18500816  0.39792577  1  0  -0.594114  0  1.977257  0  0  -0.546695  0  2.204181  0  0  -0.56805  0  2.19302  0  0  -0.295752  -0.531921  0  2.211834  0
O  O88  1  0.64904187  0.07237473  0.91459145  1  0  -0.829865  0  1.890201  0  0  -0.766845  0  2.09383  0  0  -0.788972  0  2.060071  0  0  -0.570528  -0.751146  0  2.117897  0
O  O89  1  0.85095456  0.92762756  0.41458865  1  0  -0.829817  0  1.890372  0  0  -0.766801  0  2.093926  0  0  -0.788928  0  2.060171  0  0  -0.570524  -0.751099  0  2.117997  0
O  O90  1  0.14905052  0.42763088  0.08541096  1  0  -0.829882  0  1.890203  0  0  -0.766845  0  2.093767  0  0  -0.788977  0  2.060005  0  0  -0.570526  -0.751148  0  2.117836  0
O  O91  1  0.35094896  0.57237180  0.58540972  1  0  -0.829819  0  1.89035  0  0  -0.766783  0  2.093862  0  0  -0.78891  0  2.060106  0  0  -0.570522  -0.751085  0  2.117933  0
