# generated using pymatgen
data_CuH11C9N6Cl
_symmetry_space_group_name_H-M   'P 1'
_cell_length_a   6.07794808
_cell_length_b   7.12043923
_cell_length_c   13.64956042
_cell_angle_alpha   90.00033937
_cell_angle_beta   90.00060303
_cell_angle_gamma   89.99949086
_symmetry_Int_Tables_number   1
_chemical_formula_structural   CuH11C9N6Cl
_chemical_formula_sum   'Cu2 H22 C18 N12 Cl2'
_cell_volume   590.72103491
_cell_formula_units_Z   2
loop_
 _symmetry_equiv_pos_site_id
 _symmetry_equiv_pos_as_xyz
  1  'x, y, z'
loop_
 _atom_site_type_symbol
 _atom_site_label
 _atom_site_symmetry_multiplicity
 _atom_site_fract_x
 _atom_site_fract_y
 _atom_site_fract_z
 _atom_site_occupancy
 _atom_site_hle17_ddec_charge
 _atom_site_hle17_ddec_spin_density
 _atom_site_hle17_ddec_sum_bond_order
 _atom_site_hle17_magmom
 _atom_site_hse06_10hf_ddec_charge
 _atom_site_hse06_10hf_ddec_spin_density
 _atom_site_hse06_10hf_ddec_sum_bond_order
 _atom_site_hse06_10hf_magmom
 _atom_site_hse06_ddec_charge
 _atom_site_hse06_ddec_spin_density
 _atom_site_hse06_ddec_sum_bond_order
 _atom_site_hse06_magmom
 _atom_site_pbe_cm5_charge
 _atom_site_pbe_ddec_charge
 _atom_site_pbe_ddec_spin_density
 _atom_site_pbe_ddec_sum_bond_order
 _atom_site_pbe_magmom
Cu  Cu0  1  0.32648467  0.91690712  0.49999557  1  0.74197  0.700546  2.01211  0.534  0.696346  0.775041  2.408404  0.63  0.77239  0.831835  2.354026  0.703  0.734623  0.648422  0.734914  2.446126  0.581
Cu  Cu1  1  0.67352448  0.41688886  0.00000515  1  0.741962  0.700555  2.012173  0.534  0.696376  0.775061  2.408582  0.63  0.772426  0.831815  2.354175  0.703  0.734647  0.648426  0.734913  2.446308  0.581
H  H2  1  0.50456422  0.77913057  0.13653792  1  0.292115  0.000483  0.933489  0.001  0.271509  0.000432  1.002339  0.001  0.278912  0.000331  0.996893  0.001  0.283411  0.266151  0.000522  1.006368  0.001
H  H3  1  0.49542497  0.27913184  0.36346092  1  0.291988  0.000484  0.933592  0.001  0.271464  0.000432  1.002332  0.001  0.27887  0.000331  0.99688  0.001  0.283384  0.266105  0.000522  1.00636  0.001
H  H4  1  0.49543478  0.27913199  0.63654956  1  0.291966  0.000483  0.933862  0.001  0.271516  0.000432  1.002496  0.001  0.278924  0.000331  0.997035  0.001  0.283417  0.266158  0.000522  1.006528  0.001
H  H5  1  0.50456294  0.77913049  0.86345070  1  0.29215  0.000483  0.933625  0.001  0.271565  0.000432  1.002445  0.001  0.278971  0.000331  0.996988  0.001  0.283426  0.266206  0.000522  1.006476  0.001
H  H6  1  0.99313482  0.98131672  0.31901192  1  0.101762  -0.000139  0.97449  0.0  0.108245  0.000139  1.039518  0.0  0.110055  6.4e-05  1.039248  0.0  0.112564  0.106895  0.000213  1.03971  0.0
H  H7  1  0.00686544  0.48131401  0.18099267  1  0.101718  -0.000148  0.974498  0.0  0.108215  0.000139  1.039511  0.0  0.110025  6.4e-05  1.039242  0.0  0.112584  0.106866  0.000213  1.039701  0.0
H  H8  1  0.00687133  0.48130640  0.81902420  1  0.101793  -0.000138  0.974394  0.0  0.10827  0.000139  1.039429  0.0  0.11008  6.4e-05  1.039161  0.0  0.112582  0.106919  0.000213  1.039624  0.0
H  H9  1  0.99312758  0.98130895  0.68097962  1  0.101745  -0.000146  0.974503  0.0  0.108245  0.000139  1.039501  0.0  0.110055  6.5e-05  1.039232  0.0  0.112621  0.106896  0.000213  1.039689  0.0
H  H10  1  0.10208233  0.88884438  0.12812515  1  0.10743  0.000613  0.976397  0.001  0.116415  0.000536  1.03867  0.001  0.118107  0.000408  1.038634  0.0  0.116328  0.115088  0.000652  1.03886  0.001
H  H11  1  0.89790408  0.38885112  0.37188281  1  0.107374  0.000614  0.976374  0.001  0.116374  0.000536  1.038621  0.001  0.118068  0.000408  1.038584  0.0  0.116304  0.11505  0.000652  1.038807  0.001
H  H12  1  0.89790547  0.38884556  0.62813502  1  0.107562  0.000615  0.976315  0.001  0.11652  0.000536  1.038609  0.001  0.118215  0.000408  1.03857  0.0  0.11629  0.115195  0.000652  1.038797  0.001
H  H13  1  0.10209441  0.88885001  0.87186485  1  0.107562  0.000616  0.976416  0.001  0.116526  0.000536  1.038701  0.001  0.118219  0.000408  1.038662  0.0  0.116317  0.115197  0.000652  1.038891  0.001
H  H14  1  0.64306211  0.77196296  0.31414835  1  0.089266  -0.000162  0.960577  0.0  0.096874  -4.2e-05  1.027026  0.0  0.0984  -5.9e-05  1.025786  0.0  0.130944  0.095731  -1.3e-05  1.027778  0.0
H  H15  1  0.35693539  0.27194781  0.18584607  1  0.089202  -0.000163  0.960462  0.0  0.096856  -4.1e-05  1.026879  0.0  0.098385  -5.9e-05  1.025637  0.0  0.13094  0.0957  -1.3e-05  1.027661  0.0
H  H16  1  0.35693129  0.27194998  0.81416227  1  0.089248  -0.000165  0.960383  0.0  0.096856  -4.1e-05  1.026835  0.0  0.098384  -5.9e-05  1.025589  0.0  0.130962  0.095709  -1.3e-05  1.027595  0.0
H  H17  1  0.64306651  0.77194822  0.68583797  1  0.089256  -0.000162  0.96038  0.0  0.096857  -4.1e-05  1.026843  0.0  0.098386  -5.9e-05  1.025596  0.0  0.130951  0.095708  -1.3e-05  1.027603  0.0
H  H18  1  0.05827098  0.56655053  0.49999513  1  0.094754  0.000647  1.0028  0.001  0.098914  0.000559  1.075037  0.001  0.101685  0.000322  1.071535  0.001  0.09362  0.096607  0.000608  1.077963  0.001
H  H19  1  0.94172866  0.06651760  0.00000011  1  0.094813  0.000638  1.002429  0.001  0.098859  0.000559  1.074834  0.001  0.101629  0.000324  1.071328  0.001  0.093667  0.096562  0.000609  1.077756  0.001
H  H20  1  0.59719136  0.56389416  0.49999713  1  0.096894  0.000585  0.989009  0.001  0.099384  0.000562  1.062437  0.001  0.10205  0.000329  1.059759  0.001  0.095788  0.09718  0.000608  1.064784  0.001
H  H21  1  0.40281848  0.06386398  0.99999662  1  0.096954  0.000576  0.989237  0.001  0.0994  0.000561  1.062658  0.001  0.102063  0.00033  1.059987  0.001  0.095706  0.097195  0.000608  1.064998  0.001
H  H22  1  0.82521962  0.12384881  0.49999185  1  0.076187  -0.000126  0.956801  0.001  0.081649  0.000229  1.028196  0.001  0.083237  0.000113  1.025506  0.001  0.116244  0.080393  0.000285  1.030299  0.001
H  H23  1  0.17478930  0.62381900  0.00000504  1  0.076205  -0.000134  0.956937  0.001  0.081639  0.000228  1.028342  0.001  0.08322  0.000111  1.025661  0.001  0.116265  0.080381  0.000283  1.030447  0.001
C  C24  1  0.14422657  0.92355929  0.28994590  1  -0.01514  -0.001788  3.751704  0.0  -0.043343  -8.1e-05  4.016602  0.001  -0.040735  -0.001128  4.039181  0.0  -0.01154  -0.044942  0.000669  4.001576  0.001
C  C25  1  0.85577593  0.42355468  0.21005851  1  -0.01501  -0.001704  3.751489  0.0  -0.043211  -8e-05  4.016385  0.001  -0.040605  -0.00113  4.038968  0.0  -0.011545  -0.044811  0.00067  4.001361  0.001
C  C26  1  0.85576798  0.42355236  0.78995630  1  -0.015238  -0.001767  3.751789  0.0  -0.043386  -8.2e-05  4.016655  0.001  -0.040779  -0.001129  4.039237  0.0  -0.011672  -0.044988  0.00067  4.001632  0.001
C  C27  1  0.14422660  0.92355466  0.71004514  1  -0.01524  -0.001707  3.752014  0.0  -0.043434  -8.2e-05  4.016915  0.001  -0.040825  -0.001127  4.039494  0.0  -0.011738  -0.045031  0.00067  4.001892  0.001
C  C28  1  0.19696716  0.87882536  0.19495242  1  -0.022043  0.003753  3.714385  0.004  -0.055419  0.002039  3.969796  0.002  -0.054554  0.001775  3.990084  0.002  -0.00281  -0.056041  0.002253  3.956295  0.002
C  C29  1  0.80301771  0.37882644  0.30504746  1  -0.021957  0.003716  3.714411  0.004  -0.055334  0.002039  3.969839  0.002  -0.05447  0.001775  3.990132  0.002  -0.002737  -0.055955  0.002253  3.956337  0.002
C  C30  1  0.80304041  0.37881742  0.69496551  1  -0.022124  0.003734  3.714324  0.004  -0.055474  0.00204  3.969682  0.002  -0.054612  0.001775  3.989974  0.002  -0.002706  -0.056094  0.002253  3.956186  0.002
C  C31  1  0.19695463  0.87882883  0.80503653  1  -0.022065  0.003704  3.714525  0.004  -0.055409  0.00204  3.969861  0.002  -0.054546  0.001775  3.990148  0.002  -0.002685  -0.056029  0.002254  3.956365  0.002
C  C32  1  0.48132774  0.81855467  0.29117660  1  0.214476  -0.009277  3.64792  -0.004  0.160553  -0.00282  3.916928  0.0  0.176857  -0.004283  3.929832  -0.002  0.136325  0.150088  -0.001902  3.907985  0.0
C  C33  1  0.51868079  0.31854698  0.20882015  1  0.214688  -0.009243  3.647786  -0.004  0.160728  -0.002823  3.916802  0.0  0.177027  -0.004282  3.929714  -0.002  0.136377  0.150261  -0.001903  3.907851  0.0
C  C34  1  0.51868438  0.31854748  0.79118909  1  0.214586  -0.009235  3.64777  -0.004  0.160692  -0.002823  3.916818  0.0  0.176998  -0.004281  3.929721  -0.002  0.136276  0.150226  -0.001903  3.90788  0.0
C  C35  1  0.48131787  0.81855002  0.70881057  1  0.214537  -0.009247  3.647536  -0.004  0.160648  -0.002824  3.916549  0.0  0.176953  -0.004285  3.929449  -0.002  0.136247  0.150186  -0.001904  3.907608  0.0
C  C36  1  0.94037400  0.68144459  0.49999298  1  -0.04151  0.001534  3.773407  0.003  -0.068072  0.001462  4.03653  0.002  -0.064645  3.9e-05  4.055593  0.001  -0.027482  -0.070127  0.002516  4.023592  0.004
C  C37  1  0.05963760  0.18142538  0.00000042  1  -0.040973  0.00155  3.773293  0.003  -0.067388  0.001462  4.036417  0.002  -0.063954  3.9e-05  4.055484  0.001  -0.027294  -0.069438  0.002516  4.023448  0.004
C  C38  1  0.71326940  0.68016042  0.49999611  1  -0.052376  0.002666  3.781701  0.004  -0.075183  0.001988  4.047954  0.003  -0.072804  0.000613  4.067878  0.001  -0.03019  -0.076673  0.002997  4.034546  0.004
C  C39  1  0.28673070  0.18012404  0.00000095  1  -0.052799  0.002707  3.782097  0.004  -0.075518  0.001992  4.048393  0.003  -0.073141  0.000617  4.068322  0.001  -0.030121  -0.077002  0.003002  4.034984  0.004
C  C40  1  0.82522508  0.97166449  0.49999609  1  0.169531  -0.011916  3.73627  -0.005  0.126628  -0.002367  4.018396  0.001  0.142625  -0.005133  4.033294  -0.002  0.105571  0.11586  -0.000776  4.008229  0.002
C  C41  1  0.17478186  0.47165142  0.00000407  1  0.169221  -0.011836  3.734963  -0.005  0.126445  -0.00237  4.017192  0.001  0.142441  -0.005143  4.032093  -0.002  0.105414  0.115681  -0.000781  4.007025  0.002
N  N42  1  0.32267257  0.88479028  0.34951594  1  -0.3512  0.077902  3.297598  0.104  -0.309625  0.056752  3.604738  0.08  -0.340476  0.04587  3.627041  0.069  -0.365257  -0.290565  0.063752  3.590875  0.085
N  N43  1  0.67733363  0.38478494  0.15048615  1  -0.35138  0.077889  3.297706  0.104  -0.309823  0.056757  3.604887  0.08  -0.340677  0.045879  3.627194  0.069  -0.365305  -0.290757  0.063758  3.591016  0.085
N  N44  1  0.67732873  0.38478049  0.84952478  1  -0.351182  0.077883  3.297928  0.104  -0.309717  0.056753  3.605154  0.08  -0.340571  0.045875  3.627456  0.069  -0.365216  -0.290651  0.063752  3.591287  0.085
N  N45  1  0.32265473  0.88478637  0.65047582  1  -0.351128  0.077875  3.297825  0.104  -0.309628  0.056748  3.60502  0.08  -0.340478  0.045867  3.627317  0.069  -0.365141  -0.290571  0.063745  3.591167  0.085
N  N46  1  0.40998351  0.81273875  0.19730894  1  -0.277407  0.000962  3.477028  0.002  -0.209058  0.000975  3.704667  0.002  -0.225697  0.000507  3.720796  0.001  -0.378968  -0.197925  0.001347  3.693683  0.002
N  N47  1  0.59001357  0.31273862  0.30268707  1  -0.277451  0.000959  3.477114  0.002  -0.209163  0.000976  3.704721  0.002  -0.2258  0.000508  3.720849  0.001  -0.379029  -0.198028  0.001348  3.69373  0.002
N  N48  1  0.59000178  0.31273805  0.69731736  1  -0.277375  0.000964  3.47698  0.002  -0.209115  0.000975  3.704453  0.002  -0.225764  0.000509  3.720586  0.001  -0.378945  -0.197978  0.001348  3.693471  0.002
N  N49  1  0.40998901  0.81274219  0.80268741  1  -0.277537  0.000964  3.476967  0.002  -0.209204  0.000975  3.704543  0.002  -0.225851  0.000508  3.720675  0.001  -0.378981  -0.198063  0.001348  3.693559  0.002
N  N50  1  0.00858325  0.86549857  0.49999475  1  -0.35459  0.079942  3.399319  0.106  -0.307534  0.053537  3.705399  0.074  -0.338362  0.043257  3.7271  0.064  -0.397952  -0.286694  0.061544  3.690196  0.081
N  N51  1  0.99141328  0.36546527  0.00000509  1  -0.354854  0.079904  3.399342  0.106  -0.307973  0.053527  3.705629  0.074  -0.338795  0.043254  3.727318  0.064  -0.398229  -0.28713  0.061532  3.690432  0.081
N  N52  1  0.64275616  0.86411563  0.49999696  1  -0.373867  0.081055  3.416193  0.108  -0.331791  0.054361  3.734418  0.076  -0.363187  0.04387  3.75648  0.065  -0.403553  -0.310639  0.062433  3.719067  0.083
N  N53  1  0.35726177  0.36407450  0.00000067  1  -0.37349  0.081027  3.414943  0.108  -0.3315  0.054358  3.733234  0.076  -0.36289  0.043875  3.755292  0.065  -0.403394  -0.310348  0.062434  3.71788  0.083
Cl  Cl54  1  0.31420918  0.27878642  0.50000701  1  -0.635432  0.00029  0.809328  0.003  -0.592643  -0.001231  1.039079  0.001  -0.604732  -0.002213  1.015284  0.0  -0.328668  -0.583289  -0.000109  1.055968  0.002
Cl  Cl55  1  0.68579513  0.77876684  0.99999692  1  -0.635547  0.000285  0.809302  0.003  -0.592624  -0.001233  1.039038  0.001  -0.604711  -0.002214  1.01524  0.0  -0.328639  -0.583272  -0.000112  1.055927  0.002
