# generated using pymatgen
data_CuH21C20SBr2N7O
_symmetry_space_group_name_H-M   'P 1'
_cell_length_a   8.53079580
_cell_length_b   14.78889588
_cell_length_c   21.14190844
_cell_angle_alpha   90.00027290
_cell_angle_beta   90.00157060
_cell_angle_gamma   89.99991640
_symmetry_Int_Tables_number   1
_chemical_formula_structural   CuH21C20SBr2N7O
_chemical_formula_sum   'Cu4 H84 C80 S4 Br8 N28 O4'
_cell_volume   2667.28538655
_cell_formula_units_Z   4
loop_
 _symmetry_equiv_pos_site_id
 _symmetry_equiv_pos_as_xyz
  1  'x, y, z'
loop_
 _atom_site_type_symbol
 _atom_site_label
 _atom_site_symmetry_multiplicity
 _atom_site_fract_x
 _atom_site_fract_y
 _atom_site_fract_z
 _atom_site_occupancy
 _atom_site_pbe_bader_charge
 _atom_site_pbe_bader_spin_density
 _atom_site_pbe_cm5_charge
 _atom_site_pbe_ddec_charge
 _atom_site_pbe_ddec_spin_density
 _atom_site_pbe_ddec_sum_bond_order
 _atom_site_pbe_magmom
Cu  Cu0  1  0.82827433  0.00159065  0.37290843  1  0.875631  -0.468598  0.589028  0.615552  -0.626315  2.334812  -0.471
Cu  Cu1  1  0.17172659  0.99840946  0.87291053  1  0.875442  -0.468594  0.589001  0.615535  -0.626307  2.334764  -0.471
Cu  Cu2  1  0.67172866  0.50159123  0.87291293  1  0.875499  0.468591  0.588978  0.615491  0.626304  2.334816  0.471
Cu  Cu3  1  0.32828281  0.49841294  0.37290320  1  0.875359  0.468593  0.589015  0.615551  0.626327  2.334771  0.471
H  H4  1  0.95998678  0.17063990  0.42034933  1  0.102958  -0.002398  0.118023  0.092672  -0.001164  1.011853  -0.002
H  H5  1  0.04001974  0.82936392  0.92035038  1  0.103098  -0.002398  0.118055  0.092701  -0.001164  1.011845  -0.002
H  H6  1  0.54001668  0.67063720  0.92035380  1  0.102879  0.002396  0.118046  0.092675  0.001163  1.011917  0.002
H  H7  1  0.45998984  0.32935918  0.42035111  1  0.102873  0.002399  0.118007  0.092672  0.001165  1.011806  0.002
H  H8  1  0.91695367  0.33657990  0.40385984  1  0.121171  -0.000661  0.092189  0.112617  -0.000294  1.050656  -0.001
H  H9  1  0.08305406  0.66342516  0.90385893  1  0.121266  -0.000661  0.09224  0.112662  -0.000294  1.050721  -0.001
H  H10  1  0.58304940  0.83657649  0.90386573  1  0.121162  0.000661  0.092213  0.112571  0.000294  1.050758  0.001
H  H11  1  0.41695248  0.16341910  0.40386533  1  0.121143  0.000661  0.092218  0.112704  0.000294  1.050665  0.001
H  H12  1  0.72329356  0.38635961  0.32080865  1  0.143547  -0.000327  0.103474  0.116378  -0.000289  1.004306  0.0
H  H13  1  0.27670496  0.61363609  0.82080638  1  0.143545  -0.000327  0.103485  0.116448  -0.000289  1.004173  0.0
H  H14  1  0.77669430  0.88636618  0.82081335  1  0.143787  0.000327  0.10348  0.116425  0.000289  1.004274  0.0
H  H15  1  0.22329367  0.11364168  0.32081303  1  0.143863  0.000327  0.103462  0.116346  0.000289  1.004484  0.0
H  H16  1  0.65324276  0.01814335  0.27585240  1  0.077684  0.000501  0.092921  0.090637  0.000527  1.060236  0.0
H  H17  1  0.34673392  0.98186150  0.77584880  1  0.077616  0.000501  0.09295  0.090672  0.000527  1.060206  0.0
H  H18  1  0.84674649  0.51814649  0.77585172  1  0.077837  -0.000501  0.092903  0.090606  -0.000527  1.060227  0.0
H  H19  1  0.15326769  0.48185092  0.27584712  1  0.077656  -0.000501  0.092953  0.090718  -0.000527  1.060206  0.0
H  H20  1  0.46716335  0.06305047  0.19078723  1  0.114204  -0.000238  0.108325  0.113831  -0.000213  0.998548  0.0
H  H21  1  0.53280279  0.93694770  0.69078268  1  0.11397  -0.000237  0.108328  0.113787  -0.000213  0.998765  0.0
H  H22  1  0.03281827  0.56305928  0.69078974  1  0.114128  0.000237  0.10832  0.113743  0.000213  0.998767  0.0
H  H23  1  0.96718773  0.43694634  0.19078349  1  0.114  0.000238  0.108288  0.11373  0.000213  0.998714  0.0
H  H24  1  0.54518775  0.34443469  0.23636064  1  0.096942  -0.000472  0.094888  0.098203  -0.000262  1.075756  0.0
H  H25  1  0.45479793  0.65556583  0.73635857  1  0.097021  -0.000472  0.094851  0.098241  -0.000262  1.075784  0.0
H  H26  1  0.95478621  0.84444180  0.73636398  1  0.097062  0.000472  0.094859  0.098237  0.000262  1.075844  0.0
H  H27  1  0.04519244  0.15556346  0.23636374  1  0.097165  0.000472  0.094884  0.098249  0.000262  1.075722  0.0
H  H28  1  0.96764157  0.26110097  0.01889617  1  0.108074  -3.6e-05  0.10262  0.118365  -2.3e-05  1.026636  0.0
H  H29  1  0.03237139  0.73890210  0.51889778  1  0.107949  -3.5e-05  0.102637  0.118395  -2.3e-05  1.026588  0.0
H  H30  1  0.53235168  0.76109220  0.51889488  1  0.107994  3.6e-05  0.10269  0.118485  2.3e-05  1.0266  0.0
H  H31  1  0.46764252  0.23889736  0.01889434  1  0.108075  3.6e-05  0.102643  0.118447  2.3e-05  1.026738  0.0
H  H32  1  0.94548162  0.36093187  0.97209162  1  0.143877  -0.000265  0.090112  0.132543  -0.000298  1.030839  0.0
H  H33  1  0.05451204  0.63906486  0.47209828  1  0.143564  -0.000265  0.090103  0.132554  -0.000298  1.03098  0.0
H  H34  1  0.55451200  0.86092909  0.47209901  1  0.143741  0.000266  0.090077  0.132539  0.000298  1.030903  0.0
H  H35  1  0.44547931  0.13906223  0.97209183  1  0.143726  0.000265  0.090107  0.132594  0.000298  1.030775  0.0
H  H36  1  0.21645329  0.39138044  0.89884547  1  0.140425  -0.000178  0.107762  0.118074  -0.000117  0.994807  0.0
H  H37  1  0.78354941  0.60861715  0.39884913  1  0.140282  -0.000178  0.107766  0.11808  -0.000117  0.994824  0.0
H  H38  1  0.28355348  0.89138626  0.39884118  1  0.140293  0.000179  0.107811  0.118128  0.000117  0.994702  0.0
H  H39  1  0.71644453  0.10861673  0.89884301  1  0.140316  0.000178  0.107819  0.11816  0.000117  0.994741  0.0
H  H40  1  0.35448557  0.31092985  0.81112885  1  0.102327  -0.000833  0.095109  0.112375  -0.000421  1.03243  -0.001
H  H41  1  0.64551345  0.68905698  0.31112748  1  0.101995  -0.000833  0.095058  0.112302  -0.00042  1.032462  -0.001
H  H42  1  0.14551656  0.81094526  0.31111974  1  0.101816  0.000832  0.095036  0.112225  0.00042  1.032496  0.001
H  H43  1  0.85448832  0.18906727  0.81113091  1  0.102323  0.000833  0.095093  0.112356  0.000421  1.03247  0.001
H  H44  1  0.32974575  0.14175358  0.80356336  1  0.081316  -0.001839  0.114076  0.082682  -0.000828  0.99556  -0.001
H  H45  1  0.67026095  0.85823185  0.30356046  1  0.081218  -0.001839  0.114013  0.082552  -0.000829  0.995889  -0.001
H  H46  1  0.17025630  0.64176897  0.30355500  1  0.081061  0.00184  0.114032  0.082577  0.000829  0.995776  0.001
H  H47  1  0.82974689  0.35824283  0.80356693  1  0.081162  0.001838  0.114057  0.082603  0.000828  0.995728  0.001
H  H48  1  0.04791352  0.13177108  0.96302376  1  0.145693  -0.002131  0.11751  0.09732  -0.001055  1.025027  -0.001
H  H49  1  0.95208655  0.86822694  0.46302018  1  0.145778  -0.002131  0.117497  0.097316  -0.001055  1.024905  -0.001
H  H50  1  0.45207254  0.63177609  0.46301801  1  0.145505  0.002132  0.117504  0.097353  0.001055  1.025015  0.001
H  H51  1  0.54791229  0.36822396  0.96302499  1  0.145712  0.002131  0.117521  0.097332  0.001055  1.024986  0.001
H  H52  1  0.87070239  0.02170018  0.52792687  1  0.102294  -0.00018  0.110498  0.044878  5.1e-05  1.016538  0.0
H  H53  1  0.12930884  0.97828876  0.02793168  1  0.102118  -0.00018  0.110469  0.044768  5e-05  1.016621  0.0
H  H54  1  0.62931203  0.52171086  0.02793319  1  0.102057  0.00018  0.110432  0.044758  -5e-05  1.016606  0.0
H  H55  1  0.37070741  0.47829972  0.52793056  1  0.10227  0.00018  0.110492  0.044877  -5.1e-05  1.016567  0.0
H  H56  1  0.26055483  0.08857477  0.48178968  1  0.099601  -0.001282  0.103405  0.128668  -0.00119  1.031765  0.0
H  H57  1  0.73945473  0.91143150  0.98178494  1  0.099615  -0.001282  0.103386  0.128633  -0.00119  1.031719  0.0
H  H58  1  0.23946077  0.58856514  0.98178735  1  0.099534  0.001283  0.103405  0.128677  0.001189  1.031666  0.0
H  H59  1  0.76054880  0.41143166  0.48178963  1  0.09953  0.001281  0.10336  0.128608  0.00119  1.031827  0.0
H  H60  1  0.31706697  0.10129402  0.56259113  1  0.060574  -0.00052  0.101187  0.116326  -0.000419  0.990973  0.0
H  H61  1  0.68293961  0.89871206  0.06258282  1  0.060332  -0.000521  0.101185  0.116349  -0.00042  0.991159  0.0
H  H62  1  0.18293975  0.60128370  0.06258527  1  0.060235  0.000521  0.101212  0.116361  0.00042  0.991067  0.0
H  H63  1  0.81707621  0.39871224  0.56258868  1  0.060173  0.00052  0.101218  0.116399  0.000419  0.990895  0.0
H  H64  1  0.23241916  0.19485127  0.52096308  1  0.018174  -0.000156  0.099261  0.112396  8e-06  0.98271  0.0
H  H65  1  0.76757519  0.80515655  0.02095680  1  0.018346  -0.000156  0.099283  0.112445  8e-06  0.982787  0.0
H  H66  1  0.26757509  0.69483953  0.02095909  1  0.018351  0.000156  0.09927  0.112415  -8e-06  0.982663  0.0
H  H67  1  0.73242864  0.30515410  0.52095985  1  0.018354  0.000156  0.099201  0.112327  -7e-06  0.982678  0.0
H  H68  1  0.90904652  0.08280172  0.61870895  1  0.076525  -0.000896  0.110015  0.127542  -0.000747  0.985751  0.0
H  H69  1  0.09096391  0.91719055  0.11871409  1  0.076514  -0.000897  0.110036  0.127587  -0.000748  0.985598  0.0
H  H70  1  0.59096225  0.58280838  0.11871675  1  0.076566  0.000896  0.109968  0.127487  0.000748  0.985727  0.0
H  H71  1  0.40905053  0.41719200  0.61870961  1  0.076521  0.000896  0.110033  0.127564  0.000747  0.985804  0.0
H  H72  1  0.01894998  0.18580842  0.61646557  1  0.018967  -9.9e-05  0.100612  0.112614  2.6e-05  0.97888  0.0
H  H73  1  0.98104154  0.81418519  0.11646734  1  0.018834  -0.0001  0.100622  0.112672  2.6e-05  0.978767  0.0
H  H74  1  0.48104615  0.68581138  0.11647007  1  0.018868  9.9e-05  0.100587  0.112589  -2.6e-05  0.978913  0.0
H  H75  1  0.51895592  0.31418967  0.61646521  1  0.018934  9.9e-05  0.100603  0.1126  -2.6e-05  0.978811  0.0
H  H76  1  0.10732737  0.08395706  0.64481527  1  0.078502  -0.000377  0.095379  0.113942  -0.000211  1.019177  0.0
H  H77  1  0.89267196  0.91604147  0.14481498  1  0.078511  -0.000378  0.095403  0.114029  -0.000212  1.019139  0.0
H  H78  1  0.39267215  0.58395671  0.14481927  1  0.078452  0.000378  0.09537  0.113962  0.000212  1.019055  0.0
H  H79  1  0.60732601  0.41603980  0.64481902  1  0.078488  0.000378  0.0954  0.11399  0.000212  1.019056  0.0
H  H80  1  0.39603443  0.41889719  0.18280329  1  0.447485  5.1e-05  0.279788  0.255556  3.7e-05  1.016203  0.0
H  H81  1  0.60394992  0.58110431  0.68280118  1  0.447598  5.1e-05  0.279749  0.25554  3.7e-05  1.016231  0.0
H  H82  1  0.10394572  0.91890188  0.68280231  1  0.447517  -5.2e-05  0.279802  0.255611  -3.7e-05  1.01611  0.0
H  H83  1  0.89603629  0.08109827  0.18280169  1  0.447509  -5.2e-05  0.279757  0.255563  -3.7e-05  1.016102  0.0
H  H84  1  0.52958520  0.38892176  0.12822564  1  0.484012  4.2e-05  0.300944  0.27484  0.000135  0.995948  0.0
H  H85  1  0.47041768  0.61107937  0.62821650  1  0.484037  4.2e-05  0.300893  0.274783  0.000135  0.995892  0.0
H  H86  1  0.97041170  0.88892411  0.62821875  1  0.483975  -4.2e-05  0.300888  0.274791  -0.000135  0.995821  0.0
H  H87  1  0.02959352  0.11107634  0.12822576  1  0.483908  -4.2e-05  0.300943  0.274821  -0.000135  0.995944  0.0
C  C88  1  0.87833546  0.19472882  0.38455840  1  0.514845  0.002294  0.052746  0.104625  0.001015  3.929158  0.002
C  C89  1  0.12166743  0.80527137  0.88455884  1  0.51481  0.002296  0.052721  0.104583  0.001016  3.928932  0.002
C  C90  1  0.62166314  0.69473147  0.88456424  1  0.51539  -0.002296  0.052717  0.104579  -0.001016  3.929016  -0.002
C  C91  1  0.37833741  0.30527210  0.38455963  1  0.515419  -0.002293  0.05274  0.104636  -0.001014  3.929213  -0.002
C  C92  1  0.85234213  0.28770194  0.37531137  1  -0.019243  -0.005468  -0.088482  -0.1285  -0.003899  3.972384  -0.004
C  C93  1  0.14766247  0.71229548  0.87531180  1  -0.019333  -0.005468  -0.088517  -0.12854  -0.003899  3.972289  -0.004
C  C94  1  0.64765910  0.78770388  0.87531560  1  -0.01948  0.005467  -0.088435  -0.128341  0.003898  3.972329  0.004
C  C95  1  0.35234550  0.21229895  0.37531466  1  -0.019309  0.005468  -0.088473  -0.128578  0.003899  3.972306  0.004
C  C96  1  0.74883317  0.31500879  0.32914803  1  -0.062519  0.003827  -0.058707  -0.052814  0.002587  3.890409  0.002
C  C97  1  0.25117295  0.68499439  0.82915045  1  -0.062568  0.003828  -0.058682  -0.05286  0.002587  3.890272  0.002
C  C98  1  0.75115779  0.81501269  0.82915435  1  -0.062276  -0.003829  -0.05878  -0.052904  -0.002588  3.890378  -0.002
C  C99  1  0.24883309  0.18498983  0.32915123  1  -0.062716  -0.003826  -0.058683  -0.052757  -0.002586  3.890636  -0.002
C  C100  1  0.67321534  0.24881444  0.29151326  1  -0.017882  -0.005482  -0.004532  0.040486  -0.003918  3.996771  -0.005
C  C101  1  0.32677882  0.75118782  0.79151151  1  -0.01709  -0.005479  -0.004474  0.040644  -0.003916  3.996688  -0.005
C  C102  1  0.82677204  0.74881827  0.79151377  1  -0.018128  0.005482  -0.004572  0.040555  0.003917  3.996689  0.005
C  C103  1  0.17322564  0.25118263  0.29151478  1  -0.018097  0.005483  -0.004584  0.040461  0.003918  3.996698  0.005
C  C104  1  0.70540513  0.15565403  0.30357179  1  0.461418  -0.001104  0.105731  0.186961  -0.001468  3.980281  -0.001
C  C105  1  0.29459454  0.84434087  0.80357095  1  0.460499  -0.001105  0.105742  0.186852  -0.001468  3.980436  -0.001
C  C106  1  0.79458800  0.65566059  0.80357290  1  0.460959  0.001105  0.105694  0.186796  0.001469  3.980445  0.001
C  C107  1  0.20541988  0.34434783  0.30357031  1  0.461412  0.001103  0.105752  0.186958  0.001467  3.980317  0.001
C  C108  1  0.62859517  0.08918785  0.26652588  1  -0.071442  -0.001484  -0.094947  -0.167217  -0.000766  4.001638  -0.001
C  C109  1  0.37139141  0.91081288  0.76652563  1  -0.07196  -0.001483  -0.094933  -0.167117  -0.000765  4.001196  -0.001
C  C110  1  0.87139091  0.58919096  0.76653115  1  -0.072073  0.001484  -0.094841  -0.166937  0.000766  4.0009  0.001
C  C111  1  0.12861092  0.41080909  0.26652462  1  -0.071912  0.001484  -0.094949  -0.167221  0.000766  4.001585  0.001
C  C112  1  0.52623027  0.11386638  0.21947190  1  -0.003384  0.001149  -0.075648  -0.078974  0.000673  3.932781  0.001
C  C113  1  0.47375777  0.88613808  0.71946748  1  -0.002632  0.00115  -0.075681  -0.078983  0.000674  3.932671  0.001
C  C114  1  0.97375837  0.61387144  0.71947119  1  -0.002436  -0.00115  -0.075673  -0.078978  -0.000674  3.932649  -0.001
C  C115  1  0.02624257  0.38613234  0.21947103  1  -0.002402  -0.00115  -0.075633  -0.078835  -0.000674  3.932506  -0.001
C  C116  1  0.49357743  0.20678539  0.20678286  1  0.024825  -0.000529  -0.005599  0.030041  -0.000363  4.028484  0.0
C  C117  1  0.50640271  0.79321560  0.70678511  1  0.026051  -0.000528  -0.005578  0.030159  -0.000363  4.028475  0.0
C  C118  1  0.00640258  0.70678745  0.70678838  1  0.026067  0.000529  -0.005543  0.030295  0.000363  4.02833  0.0
C  C119  1  0.99358928  0.29320949  0.20678290  1  0.025522  0.000529  -0.005664  0.029887  0.000363  4.028434  0.0
C  C120  1  0.56718250  0.27261460  0.24287236  1  -0.047841  -0.000322  -0.085291  -0.147142  -0.000274  3.91118  0.0
C  C121  1  0.43281067  0.72738596  0.74287028  1  -0.048388  -0.000322  -0.085331  -0.147347  -0.000274  3.911129  0.0
C  C122  1  0.93279913  0.77262240  0.74287498  1  -0.048336  0.000322  -0.085282  -0.147421  0.000274  3.911046  0.0
C  C123  1  0.06719052  0.22738425  0.24287286  1  -0.048133  0.000322  -0.085304  -0.147216  0.000274  3.91118  0.0
C  C124  1  0.38037524  0.22614506  0.15720539  1  0.922084  5.6e-05  0.211231  0.172047  3.3e-05  4.037216  0.0
C  C125  1  0.61961087  0.77385694  0.65720550  1  0.921461  5.6e-05  0.211369  0.172034  3.3e-05  4.03681  0.0
C  C126  1  0.11960717  0.72615041  0.65720837  1  0.921367  -5.6e-05  0.211317  0.172019  -3.4e-05  4.036759  0.0
C  C127  1  0.88038598  0.27385227  0.15720347  1  0.922124  -5.6e-05  0.211404  0.172312  -3.3e-05  4.037027  0.0
C  C128  1  0.23065985  0.29307955  0.08660604  1  0.841354  0.000591  0.21203  0.151045  0.000309  4.124966  0.0
C  C129  1  0.76932728  0.70693143  0.58661325  1  0.842197  0.000591  0.211981  0.150838  0.000309  4.125335  0.0
C  C130  1  0.26931988  0.79307058  0.58661302  1  0.841922  -0.000591  0.211943  0.150781  -0.000309  4.125364  0.0
C  C131  1  0.73067311  0.20692349  0.08660579  1  0.841506  -0.000591  0.211883  0.150729  -0.000309  4.125268  0.0
C  C132  1  0.03001438  0.31133631  0.99049972  1  -0.152152  -0.001077  -0.146914  -0.225391  -0.00074  3.884302  -0.001
C  C133  1  0.96998992  0.68866190  0.49050332  1  -0.151572  -0.001077  -0.146906  -0.225427  -0.000739  3.884316  -0.001
C  C134  1  0.46998248  0.81133523  0.49050409  1  -0.1518  0.001078  -0.146951  -0.225556  0.00074  3.884269  0.001
C  C135  1  0.53000892  0.18866569  0.99050272  1  -0.152071  0.001078  -0.146927  -0.225568  0.00074  3.884306  0.001
C  C136  1  0.12004761  0.26781561  0.93790082  1  0.017696  -0.005222  -0.004701  0.089659  -0.003672  3.96816  -0.004
C  C137  1  0.87995308  0.73218360  0.43790121  1  0.017333  -0.005222  -0.004739  0.089674  -0.003672  3.968031  -0.004
C  C138  1  0.37994341  0.76782000  0.43789759  1  0.017219  0.005224  -0.00466  0.089865  0.003673  3.968105  0.004
C  C139  1  0.62004673  0.23218191  0.93790018  1  0.017609  0.005222  -0.00465  0.089804  0.003672  3.968048  0.004
C  C140  1  0.20764280  0.31801795  0.89431118  1  -0.070661  0.003773  -0.06539  -0.08305  0.002514  3.905922  0.002
C  C141  1  0.79236194  0.68197825  0.39431234  1  -0.07077  0.003772  -0.065461  -0.083142  0.002514  3.905961  0.002
C  C142  1  0.29235800  0.81802444  0.39430746  1  -0.070504  -0.003772  -0.065523  -0.083254  -0.002514  3.906129  -0.002
C  C143  1  0.70764205  0.18197716  0.89431180  1  -0.070619  -0.003773  -0.06553  -0.083286  -0.002514  3.906035  -0.002
C  C144  1  0.28448981  0.27316991  0.84531500  1  0.004497  -0.005245  -0.085578  -0.112154  -0.003764  3.976175  -0.004
C  C145  1  0.71551039  0.72682122  0.34531452  1  0.004898  -0.005245  -0.085401  -0.11194  -0.003765  3.976075  -0.004
C  C146  1  0.21551008  0.77317985  0.34530666  1  0.004762  0.005245  -0.085401  -0.111877  0.003764  3.976128  0.004
C  C147  1  0.78448894  0.22682683  0.84531530  1  0.004556  0.005244  -0.085556  -0.112097  0.003764  3.976268  0.004
C  C148  1  0.27200912  0.17965515  0.84110466  1  0.418509  0.000986  0.038121  0.07331  0.000126  3.959776  0.001
C  C149  1  0.72799548  0.82033528  0.34110321  1  0.418469  0.000985  0.038136  0.073416  0.000124  3.960135  0.001
C  C150  1  0.22799190  0.67966643  0.34109787  1  0.418414  -0.000985  0.038083  0.073353  -0.000124  3.960077  -0.001
C  C151  1  0.77201153  0.32033955  0.84110716  1  0.418653  -0.000985  0.038159  0.073407  -0.000125  3.959937  -0.001
C  C152  1  0.11445480  0.17404455  0.93054936  1  0.470441  0.001604  0.047284  0.040175  0.000495  3.878667  0.001
C  C153  1  0.88553835  0.82595528  0.43054681  1  0.470914  0.001605  0.047264  0.040107  0.000495  3.878631  0.001
C  C154  1  0.38553596  0.67404827  0.43054146  1  0.471176  -0.001605  0.047315  0.040032  -0.000495  3.878755  -0.001
C  C155  1  0.61445602  0.32595292  0.93054950  1  0.470612  -0.001604  0.047263  0.040087  -0.000495  3.878683  -0.001
C  C156  1  0.98413538  0.04213160  0.50697577  1  1.377651  0.000231  0.164456  0.289976  0.000258  4.123639  0.0
C  C157  1  0.01586738  0.95786395  0.00697880  1  1.377971  0.000231  0.164519  0.289999  0.000257  4.12375  0.0
C  C158  1  0.51586817  0.54213292  0.00697943  1  1.378028  -0.000231  0.16452  0.289946  -0.000257  4.123739  0.0
C  C159  1  0.48413928  0.45787008  0.50697798  1  1.377674  -0.000231  0.164443  0.289951  -0.000257  4.123752  0.0
C  C160  1  0.23018636  0.12081669  0.52672023  1  0.293823  -0.001592  -0.137727  -0.274807  -0.001514  3.915237  -0.001
C  C161  1  0.76981424  0.87918306  0.02672037  1  0.293887  -0.001594  -0.137761  -0.274926  -0.001515  3.915237  -0.001
C  C162  1  0.26981902  0.62081306  0.02672241  1  0.293681  0.001594  -0.137759  -0.274957  0.001515  3.915075  0.001
C  C163  1  0.73018979  0.37918872  0.52671866  1  0.294042  0.001592  -0.137663  -0.274804  0.001514  3.915201  0.001
C  C164  1  0.02516733  0.11201316  0.60994006  1  0.286619  -0.000993  -0.132953  -0.274637  -0.001024  3.942863  0.0
C  C165  1  0.97482609  0.88798108  0.10994058  1  0.286767  -0.000994  -0.132959  -0.274905  -0.001025  3.942821  0.0
C  C166  1  0.47483089  0.61201815  0.10994212  1  0.286703  0.000994  -0.132866  -0.274669  0.001024  3.942776  0.0
C  C167  1  0.52516839  0.38798623  0.60993852  1  0.286741  0.000994  -0.132963  -0.274684  0.001024  3.942703  0.0
S  S168  1  0.15178984  0.38010216  0.04226160  1  0.194971  0.001566  0.048686  0.048429  0.001634  2.733738  0.0
S  S169  1  0.84820831  0.61990108  0.54226797  1  0.194489  0.001565  0.048658  0.048405  0.001633  2.733356  0.0
S  S170  1  0.34820538  0.88009853  0.54226708  1  0.194516  -0.001564  0.048678  0.048477  -0.001632  2.73338  0.0
S  S171  1  0.65179160  0.11990065  0.04226248  1  0.194853  -0.001566  0.048675  0.048478  -0.001634  2.733733  0.0
Br  Br172  1  0.59920555  0.02736845  0.44562156  1  -0.561423  -0.170375  -0.28579  -0.494141  -0.132493  1.147757  -0.126
Br  Br173  1  0.40081677  0.97263149  0.94562278  1  -0.561331  -0.170376  -0.28574  -0.494089  -0.132535  1.147762  -0.126
Br  Br174  1  0.90081643  0.52737424  0.94562762  1  -0.561394  0.170362  -0.285761  -0.494122  0.132477  1.147728  0.126
Br  Br175  1  0.09921293  0.47264462  0.44561436  1  -0.561339  0.170378  -0.285783  -0.494126  0.132543  1.147843  0.126
Br  Br176  1  0.00318970  0.97696909  0.27839749  1  -0.575023  -0.164723  -0.281965  -0.493337  -0.128849  1.106709  -0.12
Br  Br177  1  0.99678832  0.02302766  0.77839975  1  -0.57499  -0.164739  -0.281997  -0.493368  -0.128861  1.106634  -0.12
Br  Br178  1  0.49680390  0.47697859  0.77839965  1  -0.575009  0.164746  -0.281975  -0.493363  0.128868  1.106712  0.12
Br  Br179  1  0.50319640  0.52303507  0.27839144  1  -0.575084  0.16471  -0.281982  -0.493364  0.128826  1.106693  0.12
N  N180  1  0.80734452  0.13102892  0.35064091  1  -1.219098  -0.08122  -0.35557  -0.251315  -0.055994  3.646369  -0.071
N  N181  1  0.19266191  0.86897172  0.85064329  1  -1.218702  -0.081212  -0.355679  -0.25138  -0.055989  3.646135  -0.071
N  N182  1  0.69265895  0.63103015  0.85064327  1  -1.219534  0.081222  -0.355601  -0.251354  0.055996  3.646251  0.071
N  N183  1  0.30735451  0.36896980  0.35063998  1  -1.219769  0.081221  -0.355557  -0.251348  0.055994  3.646341  0.071
N  N184  1  0.29070866  0.16369071  0.13002938  1  -0.698165  -0.000385  -0.235921  -0.261174  -0.000226  3.240288  0.0
N  N185  1  0.70927910  0.83631449  0.63003542  1  -0.698913  -0.000385  -0.236047  -0.26134  -0.000226  3.240481  0.0
N  N186  1  0.20927908  0.66368787  0.63003997  1  -0.698029  0.000385  -0.235995  -0.261253  0.000226  3.240486  0.0
N  N187  1  0.79071572  0.33631056  0.13003288  1  -0.69885  0.000385  -0.236012  -0.261353  0.000226  3.240119  0.0
N  N188  1  0.19622469  0.20529343  0.08558404  1  -0.715083  -7.5e-05  -0.243651  -0.27299  -4.9e-05  3.283154  0.0
N  N189  1  0.80377292  0.79471619  0.58559475  1  -0.71483  -7.4e-05  -0.243635  -0.272938  -4.9e-05  3.283383  0.0
N  N190  1  0.30376693  0.70528511  0.58559707  1  -0.715311  7.5e-05  -0.243627  -0.272936  4.9e-05  3.283554  0.0
N  N191  1  0.69622717  0.29470964  0.08558787  1  -0.714703  7.5e-05  -0.243616  -0.272791  4.9e-05  3.282835  0.0
N  N192  1  0.34452646  0.30960219  0.13089502  1  -0.853453  1.6e-05  -0.152306  0.076431  -4.6e-05  3.764589  0.0
N  N193  1  0.65547777  0.69039625  0.63089763  1  -0.853959  1.6e-05  -0.152309  0.076804  -4.6e-05  3.764791  0.0
N  N194  1  0.15547503  0.80960819  0.63089887  1  -0.853706  -1.5e-05  -0.152284  0.0767  4.7e-05  3.765069  0.0
N  N195  1  0.84453155  0.19039566  0.13089378  1  -0.85447  -1.6e-05  -0.152245  0.076524  4.7e-05  3.765142  0.0
N  N196  1  0.41193881  0.39514948  0.13763665  1  -0.784162  0.00037  -0.503422  -0.506856  0.000277  3.19868  0.0
N  N197  1  0.58807292  0.60485644  0.63763208  1  -0.784169  0.000369  -0.50327  -0.506862  0.000277  3.198754  0.0
N  N198  1  0.08806995  0.89514674  0.63763361  1  -0.784176  -0.000369  -0.503354  -0.50691  -0.000277  3.198708  0.0
N  N199  1  0.91194178  0.10484971  0.13763512  1  -0.783415  -0.00037  -0.503395  -0.50688  -0.000277  3.198675  0.0
N  N200  1  0.18822126  0.13101343  0.88311216  1  -1.216513  -0.075911  -0.359188  -0.209298  -0.052364  3.700434  -0.067
N  N201  1  0.81177333  0.86898405  0.38310847  1  -1.216469  -0.075908  -0.359172  -0.209285  -0.052361  3.70035  -0.067
N  N202  1  0.31177222  0.63102126  0.38310439  1  -1.215881  0.075917  -0.3592  -0.209299  0.052367  3.700275  0.067
N  N203  1  0.68822236  0.36898366  0.88311339  1  -1.216579  0.075909  -0.359149  -0.209221  0.052363  3.700236  0.067
N  N204  1  0.07543480  0.09047581  0.54608655  1  -1.224626  -0.000854  -0.285794  0.022831  -0.000366  3.737606  -0.001
N  N205  1  0.92457885  0.90952069  0.04608991  1  -1.224797  -0.000855  -0.285828  0.023068  -0.000366  3.737372  -0.001
N  N206  1  0.42458019  0.59047814  0.04609138  1  -1.224349  0.000855  -0.285859  0.02307  0.000367  3.737281  0.001
N  N207  1  0.57544166  0.40952512  0.54608792  1  -1.224737  0.000854  -0.285828  0.022857  0.000366  3.737535  0.001
O  O208  1  0.01946147  0.02248937  0.45112640  1  -1.17593  -0.000472  -0.317292  -0.480203  -0.000308  2.345502  -0.001
O  O209  1  0.98055420  0.97751128  0.95113208  1  -1.175923  -0.000473  -0.317299  -0.480179  -0.000309  2.345576  -0.001
O  O210  1  0.48055571  0.52248496  0.95113238  1  -1.175966  0.000472  -0.317257  -0.480088  0.000308  2.345578  0.001
O  O211  1  0.51946347  0.47751907  0.45112894  1  -1.175824  0.000471  -0.317243  -0.480161  0.000307  2.345576  0.001
