# generated using pymatgen
data_H12PbC19SNO6
_symmetry_space_group_name_H-M   'P 1'
_cell_length_a   7.75778050
_cell_length_b   10.47730018
_cell_length_c   12.13324645
_cell_angle_alpha   110.84555854
_cell_angle_beta   94.85526256
_cell_angle_gamma   106.10412453
_symmetry_Int_Tables_number   1
_chemical_formula_structural   H12PbC19SNO6
_chemical_formula_sum   'H24 Pb2 C38 S2 N2 O12'
_cell_volume   866.82002232
_cell_formula_units_Z   2
loop_
 _symmetry_equiv_pos_site_id
 _symmetry_equiv_pos_as_xyz
  1  'x, y, z'
loop_
 _atom_site_type_symbol
 _atom_site_label
 _atom_site_symmetry_multiplicity
 _atom_site_fract_x
 _atom_site_fract_y
 _atom_site_fract_z
 _atom_site_occupancy
 _atom_site_hle17_bader_spin_density
 _atom_site_hle17_ddec_charge
 _atom_site_hle17_ddec_spin_density
 _atom_site_hle17_ddec_sum_bond_order
 _atom_site_hle17_magmom
 _atom_site_hse06_10hf_bader_spin_density
 _atom_site_hse06_10hf_ddec_charge
 _atom_site_hse06_10hf_ddec_spin_density
 _atom_site_hse06_10hf_ddec_sum_bond_order
 _atom_site_hse06_10hf_magmom
 _atom_site_hse06_bader_spin_density
 _atom_site_hse06_ddec_charge
 _atom_site_hse06_ddec_spin_density
 _atom_site_hse06_ddec_sum_bond_order
 _atom_site_hse06_magmom
 _atom_site_pbe_bader_spin_density
 _atom_site_pbe_cm5_charge
 _atom_site_pbe_ddec_charge
 _atom_site_pbe_ddec_spin_density
 _atom_site_pbe_ddec_sum_bond_order
 _atom_site_pbe_magmom
H  H0  1  0.72288076  0.09363482  0.23880056  1  0  0.084825  0  0.965209  0  0  0.093932  0  1.030368  0  0  0.095731  0  1.029469  0  0  0.115035  0.09265  0  1.030883  0
H  H1  1  0.27720319  0.90638849  0.76116651  1  0  0.084885  0  0.965104  0  0  0.094061  0  1.030188  0  0  0.09585  0  1.029288  0  0  0.115088  0.092779  0  1.030692  0
H  H2  1  0.60488309  0.90794908  0.31830993  1  0  0.099408  0  0.980073  0  0  0.110155  0  1.041223  0  0  0.111973  0  1.042748  0  0  0.105907  0.108756  0  1.040467  0
H  H3  1  0.39517912  0.09206843  0.68164684  1  0  0.099486  0  0.980173  0  0  0.110156  0  1.041412  0  0  0.111998  0  1.042914  0  0  0.105907  0.108725  0  1.040684  0
H  H4  1  0.47894298  0.23375412  0.60724501  1  0  0.105961  0  0.97388  0  0  0.115206  0  1.035986  0  0  0.117907  0  1.035906  0  0  0.107701  0.113177  0  1.03636  0
H  H5  1  0.52127915  0.76630082  0.39277343  1  0  0.105897  0  0.97347  0  0  0.115187  0  1.035553  0  0  0.117895  0  1.03546  0  0  0.107723  0.113145  0  1.035966  0
H  H6  1  0.60611931  0.40567116  0.51657753  1  0  0.093436  0  0.937882  0  0  0.101629  0  0.999958  0  0  0.104784  0  0.996787  0  0  0.120908  0.0995  0  1.001838  0
H  H7  1  0.39407992  0.59436839  0.48343756  1  0  0.093383  0  0.937456  0  0  0.10155  0  0.999597  0  0  0.104715  0  0.996409  0  0  0.120777  0.099438  0  1.001463  0
H  H8  1  0.28117092  0.49849825  0.18661883  1  0  0.099425  0  0.956857  0  0  0.108421  0  1.022311  0  0  0.111531  0  1.020513  0  0  0.106328  0.106225  0  1.023607  0
H  H9  1  0.71885023  0.50139593  0.81328796  1  0  0.099318  0  0.956233  0  0  0.108216  0  1.0219  0  0  0.111296  0  1.020179  0  0  0.106249  0.106013  0  1.023191  0
H  H10  1  0.07459299  0.60675035  0.10879020  1  0  0.12246  0  0.964701  0  0  0.13017  0  1.028139  0  0  0.133995  0  1.025354  0  0  0.112784  0.127359  0  1.030277  0
H  H11  1  0.92536331  0.39314639  0.89114281  1  0  0.12243  0  0.964937  0  0  0.130308  0  1.028192  0  0  0.134134  0  1.025399  0  0  0.112761  0.127491  0  1.030318  0
H  H12  1  0.53460538  0.86550791  0.01933083  1  0  0.111173  0  0.969243  0  0  0.119208  0  1.033603  0  0  0.122918  0  1.030886  0  0  0.105646  0.116494  0  1.035709  0
H  H13  1  0.46539255  0.13460710  0.98079780  1  0  0.111354  0  0.968577  0  0  0.11931  0  1.033104  0  0  0.123032  0  1.030388  0  0  0.105664  0.11658  0  1.035231  0
H  H14  1  0.73354854  0.74036804  0.08210856  1  0  0.112117  0  0.9702  0  0  0.118844  0  1.036241  0  0  0.122371  0  1.034488  0  0  0.105706  0.116334  0  1.037532  0
H  H15  1  0.26644807  0.25967598  0.91790880  1  0  0.112213  0  0.970018  0  0  0.118901  0  1.036091  0  0  0.122411  0  1.034344  0  0  0.10572  0.116393  0  1.037389  0
H  H16  1  0.00139794  0.80398536  0.21865508  1  0  0.118645  0  0.968205  0  0  0.125309  0  1.033225  0  0  0.129178  0  1.030574  0  0  0.110271  0.122678  0  1.03488  0
H  H17  1  0.99844273  0.19597538  0.78131174  1  0  0.118763  0  0.968114  0  0  0.125446  0  1.033072  0  0  0.12932  0  1.030412  0  0  0.110351  0.12281  0  1.034728  0
H  H18  1  0.98485403  0.98936690  0.40806668  1  0  0.108321  0  0.960525  0  0  0.114774  0  1.027334  0  0  0.119032  0  1.023748  0  0  0.10594  0.111847  0  1.029707  0
H  H19  1  0.01501595  0.01059243  0.59192516  1  0  0.108351  0  0.960396  0  0  0.114851  0  1.027159  0  0  0.11911  0  1.023576  0  0  0.105871  0.111908  0  1.029556  0
H  H20  1  0.26616950  0.32713516  0.29814586  1  0  0.104219  0  0.952231  0  0  0.110827  0  1.021065  0  0  0.114927  0  1.017451  0  0  0.107133  0.107893  0  1.023517  0
H  H21  1  0.73363575  0.67283390  0.70184468  1  0  0.103999  0  0.952571  0  0  0.110591  0  1.021408  0  0  0.114671  0  1.017825  0  0  0.106983  0.107682  0  1.02384  0
H  H22  1  0.28686662  0.14176619  0.10801287  1  0  0.110537  0  0.950121  0  0  0.122059  0  1.007912  0  0  0.125135  0  1.00608  0  0  0.110369  0.119885  0  1.009227  0
H  H23  1  0.71292058  0.85821633  0.89196182  1  0  0.110489  0  0.949802  0  0  0.121833  0  1.007833  0  0  0.124898  0  1.00602  0  0  0.110385  0.119657  0  1.00915  0
Pb  Pb24  1  0.88181350  0.45408806  0.31509914  1  0  1.22753  0  1.377595  0  0  1.036153  0  1.756926  0  0  1.095559  0  1.721041  0  0  0.631294  0.993274  0  1.783023  0
Pb  Pb25  1  0.11831409  0.54599633  0.68490426  1  0  1.2275  0  1.378003  0  0  1.036082  0  1.757362  0  0  1.095485  0  1.721453  0  0  0.631246  0.993203  0  1.783449  0
C  C26  1  0.66892577  0.12048258  0.32118578  1  0  0.116853  0  3.729213  0  0  0.086807  0  3.98109  0  0  0.093075  0  4.001559  0  0  0.047326  0.082956  0  3.966709  0
C  C27  1  0.33117874  0.87954992  0.67880656  1  0  0.116531  0  3.729115  0  0  0.086443  0  3.981061  0  0  0.09272  0  4.00154  0  0  0.047285  0.082594  0  3.966654  0
C  C28  1  0.60152757  0.01647422  0.36679900  1  0  -0.136671  0  3.683394  0  0  -0.154506  0  3.927285  0  0  -0.161786  0  3.949233  0  0  -0.075273  -0.149746  0  3.912464  0
C  C29  1  0.39857239  0.98356336  0.63317651  1  0  -0.136394  0  3.682936  0  0  -0.154349  0  3.926892  0  0  -0.161639  0  3.948806  0  0  -0.075136  -0.149568  0  3.91208  0
C  C30  1  0.53392005  0.05327870  0.47328796  1  0  0.10531  0  3.727935  0  0  0.118653  0  3.950923  0  0  0.122959  0  3.97101  0  0  0.020557  0.115929  0  3.937242  0
C  C31  1  0.46617967  0.94673854  0.52668883  1  0  0.10459  0  3.728579  0  0  0.118422  0  3.951128  0  0  0.122719  0  3.971225  0  0  0.020329  0.115702  0  3.937442  0
C  C32  1  0.53305037  0.19607713  0.52633686  1  0  -0.145753  0  3.686282  0  0  -0.16336  0  3.93144  0  0  -0.170964  0  3.953184  0  0  -0.075378  -0.158549  0  3.91705  0
C  C33  1  0.46711535  0.80397261  0.47367624  1  0  -0.145323  0  3.686451  0  0  -0.163032  0  3.931346  0  0  -0.170626  0  3.953086  0  0  -0.075266  -0.15823  0  3.916975  0
C  C34  1  0.60336302  0.29400054  0.47556297  1  0  0.13054  0  3.711396  0  0  0.098897  0  3.967967  0  0  0.105755  0  3.986473  0  0  0.051208  0.094468  0  3.955151  0
C  C35  1  0.39679700  0.70604469  0.52443859  1  0  0.130441  0  3.711764  0  0  0.098794  0  3.968417  0  0  0.105645  0  3.986945  0  0  0.051369  0.094346  0  3.955605  0
C  C36  1  0.64668343  0.55406733  0.18976895  1  0  0.623102  0  3.927541  0  0  0.574658  0  4.215151  0  0  0.608891  0  4.210228  0  0  0.203881  0.551637  0  4.217377  0
C  C37  1  0.35333373  0.44592090  0.81021456  1  0  0.622918  0  3.928601  0  0  0.574583  0  4.216047  0  0  0.608811  0  4.211125  0  0  0.20374  0.551549  0  4.21828  0
C  C38  1  0.52089160  0.61806373  0.14375746  1  0  -0.047975  0  3.729377  0  0  -0.026819  0  3.962977  0  0  -0.032009  0  3.982851  0  0  -0.009271  -0.023657  0  3.950092  0
C  C39  1  0.47910113  0.38191854  0.85620650  1  0  -0.047919  0  3.729493  0  0  -0.02686  0  3.96311  0  0  -0.031993  0  3.982868  0  0  -0.009106  -0.023691  0  3.950226  0
C  C40  1  0.33560692  0.57988620  0.15113586  1  0  -0.053188  0  3.697681  0  0  -0.07691  0  3.948456  0  0  -0.077363  0  3.967042  0  0  -0.073616  -0.076603  0  3.936012  0
C  C41  1  0.66438328  0.42003713  0.84882836  1  0  -0.052568  0  3.697327  0  0  -0.076145  0  3.948085  0  0  -0.076615  0  3.966683  0  0  -0.073388  -0.075836  0  3.935616  0
C  C42  1  0.22061781  0.64048922  0.10849523  1  0  -0.056922  0  3.699553  0  0  -0.079731  0  3.948185  0  0  -0.079721  0  3.966931  0  0  -0.074942  -0.079519  0  3.935448  0
C  C43  1  0.77938044  0.35946755  0.89147865  1  0  -0.057189  0  3.699361  0  0  -0.080216  0  3.947935  0  0  -0.080208  0  3.966675  0  0  -0.075074  -0.079985  0  3.935188  0
C  C44  1  0.29628312  0.74431954  0.06318654  1  0  -0.110715  0  3.76289  0  0  -0.086562  0  4.010636  0  0  -0.092762  0  4.034184  0  0  -0.019468  -0.08241  0  3.9945  0
C  C45  1  0.70368506  0.25569129  0.93686715  1  0  -0.110683  0  3.763017  0  0  -0.086378  0  4.010603  0  0  -0.092572  0  4.034148  0  0  -0.019356  -0.082231  0  3.994455  0
C  C46  1  0.48047128  0.78386630  0.05471867  1  0  -0.070565  0  3.730326  0  0  -0.09417  0  3.980628  0  0  -0.094845  0  4.00029  0  0  -0.082117  -0.093691  0  3.967388  0
C  C47  1  0.51953566  0.21619674  0.94535276  1  0  -0.070311  0  3.730723  0  0  -0.093901  0  3.98097  0  0  -0.0946  0  4.000652  0  0  -0.081973  -0.093411  0  3.967736  0
C  C48  1  0.59167234  0.71723568  0.09254390  1  0  -0.062976  0  3.687668  0  0  -0.084948  0  3.93542  0  0  -0.086101  0  3.954606  0  0  -0.079065  -0.084119  0  3.922743  0
C  C49  1  0.40834927  0.28278308  0.90747870  1  0  -0.063483  0  3.68775  0  0  -0.085434  0  3.935613  0  0  -0.086566  0  3.954783  0  0  -0.079342  -0.084622  0  3.922955  0
C  C50  1  0.14431438  0.96319808  0.15207155  1  0  -0.100482  0  3.734821  0  0  -0.076098  0  3.981413  0  0  -0.082141  0  4.004774  0  0  -0.018036  -0.072281  0  3.965801  0
C  C51  1  0.85558774  0.03678344  0.84794348  1  0  -0.100247  0  3.734715  0  0  -0.075765  0  3.981183  0  0  -0.081815  0  4.004525  0  0  -0.017747  -0.071967  0  3.965589  0
C  C52  1  0.05977095  0.91835278  0.23581640  1  0  -0.068436  0  3.710869  0  0  -0.089631  0  3.957778  0  0  -0.090622  0  3.97776  0  0  -0.080188  -0.088831  0  3.944039  0
C  C53  1  0.94010244  0.08161193  0.76417311  1  0  -0.068674  0  3.711592  0  0  -0.08996  0  3.9585  0  0  -0.090938  0  3.978476  0  0  -0.080487  -0.089163  0  3.944758  0
C  C54  1  0.04946794  0.02278392  0.34211856  1  0  -0.054467  0  3.694841  0  0  -0.078134  0  3.944175  0  0  -0.078616  0  3.962607  0  0  -0.076947  -0.077885  0  3.931756  0
C  C55  1  0.95038733  0.97718390  0.65788495  1  0  -0.054608  0  3.695884  0  0  -0.078243  0  3.94512  0  0  -0.078738  0  3.963578  0  0  -0.076816  -0.077983  0  3.932683  0
C  C56  1  0.12042802  0.17018269  0.36401283  1  0  -0.067576  0  3.762669  0  0  -0.044662  0  3.99591  0  0  -0.051299  0  4.018797  0  0  -0.013849  -0.040547  0  3.980472  0
C  C57  1  0.87947759  0.82978484  0.63599157  1  0  -0.067431  0  3.762748  0  0  -0.044672  0  3.99595  0  0  -0.051315  0  4.018843  0  0  -0.01396  -0.040564  0  3.980503  0
C  C58  1  0.20656363  0.21269881  0.27982773  1  0  -0.061304  0  3.709489  0  0  -0.086888  0  3.965255  0  0  -0.087787  0  3.984685  0  0  -0.077348  -0.085859  0  3.951458  0
C  C59  1  0.79327853  0.78727194  0.72016773  1  0  -0.060783  0  3.709758  0  0  -0.086273  0  3.96542  0  0  -0.087137  0  3.98483  0  0  -0.076945  -0.085277  0  3.951573  0
C  C60  1  0.22024488  0.10918950  0.17358714  1  0  -0.048392  0  3.715267  0  0  -0.074304  0  3.965804  0  0  -0.073867  0  3.984718  0  0  -0.077818  -0.074466  0  3.952818  0
C  C61  1  0.77959841  0.89078429  0.82639281  1  0  -0.048344  0  3.715563  0  0  -0.074185  0  3.966177  0  0  -0.073739  0  3.985097  0  0  -0.077974  -0.074351  0  3.953195  0
C  C62  1  0.10224379  0.28157751  0.47696067  1  0  0.623987  0  3.933536  0  0  0.573254  0  4.224291  0  0  0.607415  0  4.218915  0  0  0.205202  0.55025  0  4.226794  0
C  C63  1  0.89773179  0.71839990  0.52306604  1  0  0.62338  0  3.934013  0  0  0.572911  0  4.224423  0  0  0.60708  0  4.219061  0  0  0.205228  0.549909  0  4.226915  0
S  S64  1  0.15445202  0.82906672  0.01511479  1  0  1.047329  0  5.266267  0  0  0.977469  0  5.753491  0  0  1.016671  0  5.741573  0  0  0.473898  0.950491  0  5.760507  0
S  S65  1  0.84552114  0.17092440  0.98489696  1  0  1.047204  0  5.265598  0  0  0.97718  0  5.752896  0  0  1.0164  0  5.740944  0  0  0.473726  0.950213  0  5.759913  0
N  N66  1  0.67317088  0.25816126  0.37531767  1  0  -0.337536  0  3.210863  0  0  -0.259364  0  3.462297  0  0  -0.280113  0  3.484819  0  0  -0.296991  -0.245127  0  3.44645  0
N  N67  1  0.32694002  0.74185820  0.62465131  1  0  -0.337172  0  3.211703  0  0  -0.258971  0  3.46309  0  0  -0.279721  0  3.485615  0  0  -0.296921  -0.244727  0  3.447233  0
O  O68  1  0.80305754  0.57172326  0.16278914  1  0  -0.626539  0  1.991552  0  0  -0.563522  0  2.220803  0  0  -0.592134  0  2.216665  0  0  -0.299324  -0.54349  0  2.222686  0
O  O69  1  0.19695664  0.42827691  0.83721100  1  0  -0.626579  0  1.991599  0  0  -0.563543  0  2.220619  0  0  -0.592154  0  2.216477  0  0  -0.299319  -0.543541  0  2.222582  0
O  O70  1  0.59127359  0.48625901  0.25744831  1  0  -0.629535  0  1.896649  0  0  -0.562091  0  2.123721  0  0  -0.591842  0  2.117377  0  0  -0.309212  -0.541016  0  2.126951  0
O  O71  1  0.40875542  0.51374908  0.74256817  1  0  -0.629475  0  1.897321  0  0  -0.562036  0  2.12428  0  0  -0.591792  0  2.117954  0  0  -0.309152  -0.540963  0  2.127519  0
O  O72  1  0.05103470  0.24866176  0.56162789  1  0  -0.593878  0  1.905092  0  0  -0.536792  0  2.12184  0  0  -0.562823  0  2.117239  0  0  -0.297314  -0.518821  0  2.124169  0
O  O73  1  0.94891989  0.75132162  0.43838715  1  0  -0.593736  0  1.905069  0  0  -0.536775  0  2.121814  0  0  -0.562826  0  2.117223  0  0  -0.29727  -0.518807  0  2.124148  0
O  O74  1  0.14079488  0.41258639  0.48117980  1  0  -0.691242  0  2.044485  0  0  -0.608322  0  2.287614  0  0  -0.641626  0  2.282392  0  0  -0.299429  -0.585079  0  2.289892  0
O  O75  1  0.85928003  0.58741308  0.51886452  1  0  -0.690985  0  2.044938  0  0  -0.608274  0  2.288149  0  0  -0.641514  0  2.282785  0  0  -0.29954  -0.585024  0  2.290412  0
O  O76  1  0.97202250  0.72336096  0.96166610  1  0  -0.584441  0  1.974048  0  0  -0.538046  0  2.225485  0  0  -0.559781  0  2.218173  0  0  -0.30082  -0.522652  0  2.229092  0
O  O77  1  0.02801210  0.27661899  0.03831913  1  0  -0.584586  0  1.97346  0  0  -0.538118  0  2.224851  0  0  -0.55991  0  2.217624  0  0  -0.300901  -0.522724  0  2.228452  0
O  O78  1  0.24841714  0.90116552  0.94361059  1  0  -0.596599  0  1.972221  0  0  -0.551676  0  2.220894  0  0  -0.571729  0  2.210908  0  0  -0.310795  -0.537505  0  2.226599  0
O  O79  1  0.75160521  0.09887423  0.05646370  1  0  -0.596629  0  1.971899  0  0  -0.551584  0  2.220522  0  0  -0.571648  0  2.21054  0  0  -0.310624  -0.537421  0  2.226222  0
