# generated using pymatgen
data_CuH19C22N5O3
_symmetry_space_group_name_H-M   'P 1'
_cell_length_a   9.55309325
_cell_length_b   10.23070041
_cell_length_c   10.88746593
_cell_angle_alpha   107.97956687
_cell_angle_beta   90.00049311
_cell_angle_gamma   89.99994750
_symmetry_Int_Tables_number   1
_chemical_formula_structural   CuH19C22N5O3
_chemical_formula_sum   'Cu2 H38 C44 N10 O6'
_cell_volume   1012.12187637
_cell_formula_units_Z   2
loop_
 _symmetry_equiv_pos_site_id
 _symmetry_equiv_pos_as_xyz
  1  'x, y, z'
loop_
 _atom_site_type_symbol
 _atom_site_label
 _atom_site_symmetry_multiplicity
 _atom_site_fract_x
 _atom_site_fract_y
 _atom_site_fract_z
 _atom_site_occupancy
 _atom_site_hle17_ddec_charge
 _atom_site_hle17_ddec_spin_density
 _atom_site_hle17_ddec_sum_bond_order
 _atom_site_hle17_magmom
 _atom_site_hse06_10hf_ddec_charge
 _atom_site_hse06_10hf_ddec_spin_density
 _atom_site_hse06_10hf_ddec_sum_bond_order
 _atom_site_hse06_10hf_magmom
 _atom_site_hse06_ddec_charge
 _atom_site_hse06_ddec_spin_density
 _atom_site_hse06_ddec_sum_bond_order
 _atom_site_hse06_magmom
 _atom_site_pbe_cm5_charge
 _atom_site_pbe_ddec_charge
 _atom_site_pbe_ddec_spin_density
 _atom_site_pbe_ddec_sum_bond_order
 _atom_site_pbe_magmom
Cu  Cu0  1  0.84476756  0.32025163  0.31447967  1  0.801859  -0.712908  1.909425  -0.497  0.765442  -0.804269  2.315602  -0.616  0.857453  -0.882569  2.247207  -0.705  0.737505  0.710077  -0.745341  2.363202  -0.557
Cu  Cu1  1  0.34477513  0.67975540  0.68552381  1  0.801948  0.712916  1.909405  0.497  0.765464  0.804267  2.315721  0.616  0.857484  0.882555  2.247215  0.705  0.737512  0.7101  0.745338  2.363337  0.557
H  H2  1  0.11190902  0.93505080  0.46231160  1  0.297167  -0.000153  0.934622  0.0  0.279474  1.1e-05  0.995476  0.0  0.28926  1.1e-05  0.987208  0.0  0.300087  0.272729  1.2e-05  1.001058  0.0
H  H3  1  0.61191541  0.06494451  0.53768677  1  0.296954  0.000153  0.934817  0.0  0.279321  -1.1e-05  0.995621  0.0  0.289091  -1.2e-05  0.987381  0.0  0.300056  0.27258  -1.2e-05  1.001195  0.0
H  H4  1  0.13283647  0.65524078  0.47468008  1  0.346302  -1.2e-05  0.917188  0.0  0.328271  7.2e-05  0.97939  0.0  0.336799  2e-05  0.97197  0.0  0.302184  0.32248  0.000106  0.984269  0.0
H  H5  1  0.63283828  0.34476487  0.52532691  1  0.34635  1e-05  0.917135  0.0  0.328318  -7.2e-05  0.979337  0.0  0.336847  -2e-05  0.971916  0.0  0.302201  0.322528  -0.000105  0.984216  0.0
H  H6  1  0.01986205  0.54640057  0.35350644  1  0.345893  -0.000358  0.928821  0.0  0.324796  -0.000317  0.996824  0.0  0.334072  -0.000112  0.988782  0.0  0.299992  0.318752  -0.00052  1.001555  0.0
H  H7  1  0.51986703  0.45360796  0.64649961  1  0.345953  0.000358  0.928831  0.0  0.32486  0.000317  0.996824  0.0  0.334134  0.000112  0.988787  0.0  0.300003  0.318818  0.00052  1.001561  0.0
H  H8  1  0.70395365  0.13026141  0.96843489  1  0.074124  -0.007994  0.943964  -0.01  0.083974  -0.005062  1.010505  -0.006  0.083766  -0.003587  1.008537  -0.005  0.116311  0.083912  -0.006034  1.011759  -0.007
H  H9  1  0.20396194  0.86974844  0.03156558  1  0.074074  0.007996  0.943983  0.01  0.083925  0.005062  1.010531  0.006  0.083718  0.003588  1.00856  0.005  0.116294  0.08386  0.006035  1.011788  0.007
H  H10  1  0.73396618  0.24264616  0.81891647  1  0.090833  -0.000344  0.97094  0.0  0.097486  -0.000213  1.038624  0.0  0.099793  -0.000136  1.037598  0.0  0.09868  0.095906  -0.000283  1.039058  0.0
H  H11  1  0.23396767  0.75735757  0.18108063  1  0.0908  0.000345  0.970967  0.0  0.097478  0.000213  1.038629  0.0  0.099783  0.000136  1.0376  0.0  0.098675  0.095895  0.000283  1.039063  0.0
H  H12  1  0.82678801  0.43259758  0.74489443  1  0.095779  -2.1e-05  0.953618  0.0  0.106242  -2.6e-05  1.011287  0.0  0.109048  -1.6e-05  1.01139  0.0  0.096573  0.104576  -2.9e-05  1.010503  0.0
H  H13  1  0.32677890  0.56740014  0.25510074  1  0.095756  2e-05  0.953685  0.0  0.106265  2.6e-05  1.011292  0.0  0.109074  1.6e-05  1.011393  0.0  0.096575  0.1046  3e-05  1.010507  0.0
H  H14  1  0.97297901  0.61607973  0.89628740  1  0.084391  -0.000713  0.939854  -0.001  0.098069  -0.000354  0.99509  0.0  0.099643  -0.000219  0.994351  0.0  0.100095  0.09679  -0.0005  0.996194  -0.001
H  H15  1  0.47296755  0.38391826  0.10370986  1  0.08435  0.000712  0.939871  0.001  0.098049  0.000354  0.995086  0.0  0.099626  0.000219  0.994342  0.0  0.100068  0.096772  0.0005  0.996193  0.001
H  H16  1  0.01790025  0.61237407  0.11879016  1  0.103037  0.00023  0.973115  0.0  0.111027  9e-06  1.03956  0.0  0.113936  1.6e-05  1.039509  0.0  0.095759  0.108888  -1.2e-05  1.039988  0.0
H  H17  1  0.51789713  0.38762929  0.88120980  1  0.10309  -0.000229  0.973001  0.0  0.111074  -9e-06  1.039439  0.0  0.113983  -1.5e-05  1.039387  0.0  0.095769  0.108936  1.2e-05  1.039873  0.0
H  H18  1  0.60672974  0.03988782  0.12653560  1  0.07662  -0.002023  0.908271  -0.002  0.089331  -0.001528  0.964569  -0.001  0.090231  -0.001146  0.96443  -0.001  0.11604  0.087693  -0.00177  0.966305  -0.001
H  H19  1  0.10673784  0.96011980  0.87346441  1  0.076651  0.002023  0.908327  0.002  0.089359  0.001527  0.964586  0.001  0.090268  0.001146  0.964449  0.001  0.116054  0.08772  0.00177  0.966322  0.001
H  H20  1  0.75014263  0.85508654  0.13891561  1  0.093576  -0.000313  0.913121  0.0  0.11477  -0.000232  0.964866  0.0  0.115721  -0.000142  0.965189  0.0  0.103525  0.113651  -0.000322  0.965788  0.0
H  H21  1  0.25014932  0.14492029  0.86107974  1  0.0935  0.000311  0.913177  0.0  0.114741  0.000231  0.964917  0.0  0.115695  0.000142  0.96524  0.0  0.103486  0.11362  0.000322  0.965841  0.0
H  H22  1  0.83360720  0.93306535  0.03488705  1  0.083034  -0.000113  0.950813  0.0  0.099161  -7.2e-05  1.01369  0.0  0.099774  -2.9e-05  1.014357  0.0  0.093665  0.099073  -7.4e-05  1.012866  0.0
H  H23  1  0.33362335  0.06694164  0.96511266  1  0.083055  0.000111  0.950632  0.0  0.099175  7.1e-05  1.013581  0.0  0.099783  2.9e-05  1.014257  0.0  0.093688  0.099082  7.4e-05  1.012763  0.0
H  H24  1  0.89196579  0.83360556  0.34553733  1  0.096777  -4.3e-05  0.954738  0.0  0.109662  -5e-06  1.015462  0.0  0.112338  -6e-06  1.013481  0.0  0.115233  0.10778  -1.8e-05  1.016473  0.0
H  H25  1  0.39198089  0.16639845  0.65446104  1  0.096861  3.9e-05  0.954669  0.0  0.109728  5e-06  1.015403  0.0  0.112401  6e-06  1.01343  0.0  0.11528  0.107848  1.8e-05  1.016419  0.0
H  H26  1  0.34795424  0.08500715  0.41904165  1  0.108374  3.3e-05  0.958616  0.0  0.118099  2.1e-05  1.020218  0.0  0.121862  1.6e-05  1.017833  0.0  0.100059  0.115208  1.7e-05  1.022339  0.0
H  H27  1  0.84795917  0.91497526  0.58096398  1  0.108464  -2.9e-05  0.958563  0.0  0.118115  -2.2e-05  1.020249  0.0  0.121874  -1.6e-05  1.017874  0.0  0.100085  0.115223  -1.7e-05  1.02237  0.0
H  H28  1  0.40838008  0.25162141  0.30249364  1  0.085808  -9e-06  0.953286  0.0  0.098948  2e-05  1.009824  0.0  0.101664  1.4e-05  1.00901  0.0  0.092248  0.096312  2.5e-05  1.011933  0.0
H  H29  1  0.90838004  0.74836422  0.69751705  1  0.085838  5e-06  0.953275  0.0  0.099004  -2e-05  1.009812  0.0  0.101718  -1.4e-05  1.009002  0.0  0.092287  0.096405  -2.5e-05  1.011881  0.0
H  H30  1  0.25081770  0.28367821  0.13206206  1  0.081505  -3.3e-05  0.974977  0.0  0.093666  -2.4e-05  1.036144  0.0  0.096406  -2.2e-05  1.035302  0.0  0.092576  0.091395  -2.3e-05  1.037446  0.0
H  H31  1  0.75081204  0.71631945  0.86794721  1  0.081447  3.9e-05  0.974884  0.0  0.093644  2.4e-05  1.03602  0.0  0.096388  2.2e-05  1.035167  0.0  0.092581  0.09137  2.3e-05  1.037322  0.0
H  H32  1  0.03206320  0.15130956  0.07354769  1  0.086605  5.5e-05  0.97199  0.0  0.098981  0.000101  1.033883  0.0  0.101738  9e-05  1.033007  0.0  0.094416  0.097264  0.000104  1.034199  0.0
H  H33  1  0.53205798  0.84868663  0.92644848  1  0.086562  -6.1e-05  0.972032  0.0  0.098942  -0.000101  1.033914  0.0  0.101698  -9.1e-05  1.033035  0.0  0.094429  0.097224  -0.000104  1.03423  0.0
H  H34  1  0.93098244  0.17945694  0.48708058  1  0.084255  -0.000562  0.956466  -0.001  0.093932  -0.000539  1.017428  -0.001  0.096121  -0.000354  1.014834  -0.001  0.120413  0.092279  -0.000703  1.019379  -0.001
H  H35  1  0.43097562  0.82054715  0.51291903  1  0.084275  0.000561  0.956677  0.001  0.093978  0.00054  1.017592  0.001  0.096157  0.000353  1.015  0.001  0.120438  0.092323  0.000703  1.019549  0.001
H  H36  1  0.09619089  0.20036539  0.67077690  1  0.131348  -3.7e-05  0.981777  0.0  0.138671  -0.000104  1.043062  0.0  0.14386  -0.000113  1.040958  0.0  0.10698  0.134845  -3.1e-05  1.044846  0.0
H  H37  1  0.59618090  0.79963399  0.32921975  1  0.131371  3.8e-05  0.981754  0.0  0.138682  0.000104  1.043049  0.0  0.143872  0.000113  1.040943  0.0  0.106946  0.134855  3.1e-05  1.044831  0.0
H  H38  1  0.24266935  0.41891544  0.74363583  1  0.067629  -0.000422  0.971255  0.0  0.077575  -0.000178  1.033692  0.0  0.080329  -0.000118  1.030544  0.0  0.11219  0.075907  -0.000229  1.035594  0.0
H  H39  1  0.74266200  0.58108422  0.25636568  1  0.067627  0.000418  0.971234  0.0  0.077555  0.000179  1.033708  0.0  0.08031  0.000118  1.030555  0.0  0.11219  0.075885  0.000229  1.03561  0.0
C  C40  1  0.75784680  0.20927910  0.04629755  1  0.164791  0.015229  3.696574  0.016  0.125734  0.004517  3.956607  0.006  0.149579  0.005732  3.965377  0.007  0.075838  0.109904  0.003152  3.950748  0.004
C  C41  1  0.25785377  0.79072879  0.95370276  1  0.165008  -0.015245  3.696538  -0.016  0.125959  -0.004515  3.956557  -0.006  0.14981  -0.00573  3.965331  -0.007  0.075874  0.11013  -0.003151  3.950704  -0.004
C  C42  1  0.81856409  0.32112064  0.01158537  1  -0.121116  -0.00622  3.812835  -0.008  -0.105157  -0.003266  4.054571  -0.005  -0.122228  -0.00216  4.082488  -0.004  -0.037733  -0.093193  -0.004202  4.03492  -0.006
C  C43  1  0.31856941  0.67888327  0.98841793  1  -0.121258  0.006216  3.81281  0.008  -0.10528  0.003268  4.054572  0.005  -0.122349  0.00216  4.082486  0.004  -0.037718  -0.093318  0.004203  4.034925  0.006
C  C44  1  0.79527016  0.32533555  0.88428442  1  -0.070806  0.004323  3.765742  0.004  -0.090314  0.001534  4.01531  0.002  -0.085737  0.001592  4.036179  0.002  -0.086498  -0.092594  0.001457  4.000187  0.001
C  C45  1  0.29526691  0.67466729  0.11571748  1  -0.070721  -0.004334  3.76593  -0.004  -0.090268  -0.001533  4.015515  -0.002  -0.08569  -0.00159  4.036381  -0.002  -0.086501  -0.092544  -0.001456  4.000387  -0.001
C  C46  1  0.84750639  0.43025998  0.84252630  1  -0.1142  -0.000296  3.811524  -0.001  -0.132074  0.000356  4.072236  0.0  -0.139821  9.6e-05  4.095395  0.0  -0.112564  -0.126748  0.000583  4.055838  0.0
C  C47  1  0.34750155  0.56974292  0.15747142  1  -0.114287  0.000313  3.811751  0.001  -0.132187  -0.000359  4.072473  0.0  -0.139932  -9.6e-05  4.095629  0.0  -0.112623  -0.126861  -0.000583  4.056073  0.0
C  C48  1  0.92860614  0.53364437  0.92818928  1  -0.017983  0.003997  3.788109  0.003  -0.035514  0.000985  4.04274  0.0  -0.030825  0.001334  4.062845  0.001  -0.085144  -0.038468  0.000652  4.03049  0.0
C  C49  1  0.42860057  0.46635560  0.07180730  1  -0.01786  -0.003996  3.788042  -0.003  -0.035404  -0.000984  4.042656  0.0  -0.030716  -0.001334  4.062761  -0.001  -0.085096  -0.038358  -0.000651  4.030408  0.0
C  C50  1  0.95494514  0.53220331  0.05284649  1  -0.214003  -0.012033  3.735253  -0.013  -0.230624  -0.006731  3.98576  -0.008  -0.241381  -0.004854  4.006635  -0.006  -0.114115  -0.224907  -0.008181  3.973968  -0.01
C  C51  1  0.45493980  0.46779567  0.94715184  1  -0.214156  0.012027  3.735081  0.013  -0.230747  0.006734  3.985613  0.008  -0.241502  0.004857  4.006483  0.006  -0.114124  -0.225033  0.008183  3.973831  0.01
C  C52  1  0.90092732  0.42701609  0.09918705  1  0.341278  0.002801  3.830187  0.006  0.331065  -0.001344  4.086565  0.001  0.352738  -0.000268  4.102523  0.001  0.092287  0.316503  -0.002364  4.07611  0.001
C  C53  1  0.40092874  0.57299308  0.90081562  1  0.341522  -0.002793  3.829993  -0.006  0.331255  0.001346  4.086456  -0.001  0.352925  0.000263  4.102414  -0.001  0.092336  0.316694  0.002364  4.076012  -0.001
C  C54  1  0.70502171  0.07037983  0.18083716  1  0.005513  -0.00449  3.647404  -0.003  -0.00954  -0.003777  3.891024  -0.003  -0.00958  -0.002483  3.905681  -0.001  0.005014  -0.009204  -0.004651  3.88266  -0.003
C  C55  1  0.20502931  0.92962591  0.81916213  1  0.005377  0.004494  3.647397  0.003  -0.009543  0.003781  3.890945  0.003  -0.009587  0.002487  3.905625  0.001  0.005032  -0.009212  0.004651  3.882593  0.003
C  C56  1  0.80875082  0.94687609  0.13676644  1  -0.152986  -0.000623  3.698218  -0.001  -0.200347  -0.000465  3.943964  0.0  -0.201017  -0.000433  3.958092  0.0  -0.150863  -0.200017  -0.000497  3.934763  0.0
C  C57  1  0.30875761  0.05313084  0.86322938  1  -0.152729  0.00063  3.697953  0.001  -0.200242  0.000466  3.944  0.0  -0.200925  0.000432  3.958158  0.0  -0.150857  -0.199902  0.000497  3.934786  0.0
C  C58  1  0.93803708  0.96131833  0.21703040  1  -0.050812  0.001619  3.808445  0.001  -0.042429  0.000192  4.075116  0.0  -0.047705  0.000187  4.102484  0.0  -0.051842  -0.038339  0.000235  4.056177  0.0
C  C59  1  0.43804101  0.03868060  0.78296227  1  -0.050922  -0.001645  3.808144  -0.001  -0.042583  -0.000199  4.075026  0.0  -0.047855  -0.000182  4.102396  0.0  -0.051866  -0.038487  -0.000235  4.056087  0.0
C  C60  1  0.96045336  0.90106917  0.31300007  1  -0.007133  0.001069  3.702573  0.001  -0.054851  4e-06  3.9787  0.0  -0.047553  -2.1e-05  3.99382  0.0  -0.001419  -0.057427  6.4e-05  3.965587  0.0
C  C61  1  0.46045942  0.09892466  0.68699040  1  -0.007323  -0.001042  3.70245  -0.001  -0.054944  -0.0  3.978621  0.0  -0.047653  1.8e-05  3.993729  0.0  -0.001513  -0.057529  -6.4e-05  3.965525  0.0
C  C62  1  0.15145824  0.02903429  0.31547192  1  0.168055  0.001113  3.820363  0.001  0.162971  0.000341  4.065093  0.0  0.167589  0.00019  4.088799  0.0  0.082618  0.15936  0.00034  4.049963  0.0
C  C63  1  0.65146099  0.97094257  0.68451779  1  0.168147  -0.001067  3.82033  -0.001  0.163035  -0.00034  4.065188  0.0  0.167648  -0.000188  4.08889  0.0  0.08261  0.159424  -0.00034  4.050056  0.0
C  C64  1  0.27802887  0.10045443  0.34580249  1  -0.154929  -0.000497  3.765261  -0.001  -0.175331  -2e-05  4.021158  0.0  -0.177911  3.8e-05  4.040752  0.0  -0.103007  -0.173565  -1.7e-05  4.009132  0.0
C  C65  1  0.77802617  0.89952269  0.65419468  1  -0.155009  0.000409  3.765391  0.0  -0.175307  2.4e-05  4.021311  0.0  -0.177886  -4.3e-05  4.040902  0.0  -0.102978  -0.173543  1.7e-05  4.009295  0.0
C  C66  1  0.31186047  0.19203909  0.27874235  1  -0.076565  0.001459  3.793236  0.001  -0.095729  -7e-05  4.053635  0.0  -0.09723  -7.8e-05  4.07518  0.0  -0.110192  -0.094554  2.2e-05  4.040365  0.0
C  C67  1  0.81186061  0.80794633  0.72126112  1  -0.076689  -0.001368  3.793028  -0.001  -0.095896  6.5e-05  4.053476  0.0  -0.097396  8.3e-05  4.075023  0.0  -0.110322  -0.094755  -2.2e-05  4.040202  0.0
C  C68  1  0.22292021  0.20972670  0.18166388  1  -0.09562  -0.0006  3.816477  -0.001  -0.111019  0.000236  4.077508  0.0  -0.112717  0.000209  4.098665  0.0  -0.111755  -0.11012  0.000172  4.06267  0.0
C  C69  1  0.72291922  0.79026677  0.81833847  1  -0.095457  0.000499  3.81606  0.001  -0.110872  -0.000231  4.077083  0.0  -0.112571  -0.000214  4.098245  0.0  -0.111683  -0.109978  -0.000172  4.062259  0.0
C  C70  1  0.09899792  0.13582590  0.14887611  1  -0.121809  0.002671  3.801211  0.002  -0.15153  0.000427  4.073022  0.0  -0.153387  0.000362  4.092575  0.0  -0.108553  -0.149375  0.000641  4.059377  0.0
C  C71  1  0.59898881  0.86416423  0.85111700  1  -0.12182  -0.002579  3.801204  -0.002  -0.151525  -0.00043  4.073059  0.0  -0.153378  -0.000355  4.092608  0.0  -0.108621  -0.149371  -0.000641  4.059416  0.0
C  C72  1  0.05981204  0.04484069  0.21705757  1  -0.066418  0.000111  3.848337  0.0  -0.057508  0.000501  4.097343  0.0  -0.060727  0.000453  4.12395  0.0  -0.035413  -0.057195  0.000851  4.081548  0.0
C  C73  1  0.55981054  0.95514320  0.78293161  1  -0.066453  -0.000146  3.848095  0.0  -0.057559  -0.000498  4.097259  0.0  -0.060779  -0.000457  4.12387  0.0  -0.035329  -0.05725  -0.00085  4.081468  0.0
C  C74  1  0.67501537  0.10074146  0.32465330  1  0.633763  0.00337  3.858463  0.005  0.583728  -0.000267  4.170334  0.001  0.618204  -7.2e-05  4.165274  0.001  0.211645  0.559396  -0.000431  4.17588  0.001
C  C75  1  0.17502368  0.89926525  0.67534421  1  0.633865  -0.003371  3.858306  -0.005  0.583755  0.000268  4.170228  -0.001  0.618229  6.9e-05  4.165177  -0.001  0.211707  0.559427  0.000431  4.175775  -0.001
C  C76  1  0.00013119  0.26757992  0.52191924  1  0.204897  0.002482  3.706802  0.003  0.169462  0.00017  3.962732  0.001  0.18623  0.00068  3.976625  0.001  0.058612  0.158305  -0.000231  3.953216  0.0
C  C77  1  0.50012482  0.73242445  0.47808271  1  0.204923  -0.002472  3.70705  -0.003  0.169461  -0.000174  3.963004  -0.001  0.186241  -0.000676  3.976893  -0.001  0.058698  0.158302  0.000232  3.953485  0.0
C  C78  1  0.09051393  0.28023570  0.62434097  1  -0.236805  -0.004406  3.772443  -0.005  -0.247852  -0.002104  4.025804  -0.002  -0.263091  -0.001852  4.044753  -0.002  -0.111689  -0.23773  -0.002425  4.012742  -0.003
C  C79  1  0.59050866  0.71976781  0.37566141  1  -0.236941  0.00438  3.772344  0.005  -0.24795  0.002107  4.025696  0.003  -0.26319  0.001848  4.044641  0.002  -0.111724  -0.237826  0.002425  4.012631  0.003
C  C80  1  0.17039709  0.39932315  0.66262872  1  0.195932  0.003193  3.761152  0.003  0.166182  0.001141  4.018831  0.001  0.182143  0.001247  4.031055  0.001  0.056795  0.156012  0.001017  4.009944  0.001
C  C81  1  0.67039574  0.60067844  0.33737464  1  0.196022  -0.003155  3.76106  -0.003  0.166263  -0.001143  4.018745  -0.001  0.182226  -0.001246  4.030965  -0.001  0.056785  0.156091  -0.001017  4.009854  -0.001
C  C82  1  0.07580910  0.47548667  0.50220400  1  0.638885  0.001186  3.790057  0.001  0.604521  -0.000249  4.053701  0.0  0.632653  0.000194  4.06205  0.0  0.347182  0.58681  -0.000516  4.046794  -0.001
C  C83  1  0.57580836  0.52451887  0.49780162  1  0.639101  -0.001173  3.789654  -0.001  0.604781  0.000244  4.053261  0.0  0.632914  -0.000191  4.061615  0.0  0.347217  0.587058  0.000516  4.046375  0.001
N  N84  1  0.76259871  0.19389186  0.16014014  1  -0.343551  -0.100269  3.316134  -0.122  -0.300027  -0.065414  3.630375  -0.085  -0.335646  -0.054328  3.648012  -0.075  -0.383519  -0.279564  -0.070197  3.621331  -0.088
N  N85  1  0.26260768  0.80611195  0.83986363  1  -0.343677  0.100277  3.316236  0.122  -0.300171  0.065411  3.630463  0.085  -0.335797  0.054328  3.648074  0.075  -0.383531  -0.279707  0.070195  3.62143  0.088
N  N86  1  0.08935881  0.93849222  0.37028169  1  -0.339006  0.001095  3.425076  0.001  -0.28024  -1.3e-05  3.665411  0.0  -0.297185  -4.6e-05  3.677749  0.0  -0.4057  -0.267998  -7.7e-05  3.655354  0.0
N  N87  1  0.58936714  0.06150100  0.62971682  1  -0.338685  -0.001098  3.424945  -0.001  -0.280004  1e-05  3.665354  0.0  -0.296919  4.4e-05  3.677675  0.0  -0.405651  -0.267761  7.7e-05  3.655294  0.0
N  N88  1  0.98851961  0.36390539  0.46181000  1  -0.460423  -0.045744  3.175372  -0.056  -0.405887  -0.033599  3.466494  -0.043  -0.440095  -0.028424  3.478083  -0.039  -0.354792  -0.384769  -0.036428  3.460144  -0.045
N  N89  1  0.48851845  0.63609984  0.53819405  1  -0.460501  0.045741  3.175403  0.056  -0.405982  0.033605  3.466521  0.043  -0.440195  0.028427  3.478096  0.039  -0.354855  -0.384864  0.036432  3.460184  0.045
N  N90  1  0.16576265  0.49563799  0.60328146  1  -0.478263  -0.007627  3.069234  -0.008  -0.440985  -0.002989  3.353839  -0.002  -0.46736  -0.002478  3.363573  -0.002  -0.335783  -0.423757  -0.004322  3.347504  -0.004
N  N91  1  0.66575989  0.50436668  0.39672275  1  -0.478387  0.007599  3.0692  0.008  -0.441117  0.002994  3.353785  0.002  -0.467495  0.002475  3.363527  0.002  -0.335806  -0.423882  0.004322  3.347444  0.004
N  N92  1  0.07134108  0.56997017  0.44033836  1  -0.700398  0.001021  3.070369  0.001  -0.66423  0.000399  3.296849  0.0  -0.687186  0.000569  3.290321  0.0  -0.574525  -0.648229  0.000181  3.29935  0.0
N  N93  1  0.57134314  0.43003744  0.55967056  1  -0.700567  -0.00102  3.070263  -0.001  -0.664395  -0.000398  3.296689  0.0  -0.687348  -0.000568  3.290161  0.0  -0.574523  -0.648394  -0.00018  3.299202  0.0
O  O94  1  0.92795161  0.43346285  0.21951055  1  -0.574437  -0.100747  2.173393  -0.13  -0.535693  -0.067353  2.457155  -0.095  -0.582674  -0.050991  2.456939  -0.076  -0.331409  -0.505474  -0.078087  2.457234  -0.106
O  O95  1  0.42796128  0.56654434  0.78049452  1  -0.574583  0.100744  2.173327  0.13  -0.535825  0.067349  2.457152  0.095  -0.582818  0.050997  2.45694  0.076  -0.331426  -0.505593  0.078087  2.457213  0.106
O  O96  1  0.60203819  0.02034815  0.36330650  1  -0.574544  -0.013252  1.97127  -0.016  -0.530023  -0.007981  2.193123  -0.01  -0.556096  -0.004242  2.187287  -0.006  -0.296372  -0.511121  -0.011742  2.198188  -0.015
O  O97  1  0.10204604  0.97965636  0.63668800  1  -0.574624  0.013244  1.971195  0.016  -0.53005  0.007977  2.193105  0.01  -0.556107  0.004238  2.187231  0.006  -0.296371  -0.511151  0.011737  2.198178  0.015
O  O98  1  0.73344703  0.20957880  0.40189796  1  -0.616194  -0.079193  2.135059  -0.102  -0.574301  -0.058807  2.413114  -0.082  -0.615767  -0.046369  2.405173  -0.068  -0.321637  -0.547424  -0.066128  2.420022  -0.089
O  O99  1  0.23345469  0.79042084  0.59810256  1  -0.61627  0.079189  2.135042  0.102  -0.574368  0.058807  2.413158  0.082  -0.615837  0.046374  2.405207  0.068  -0.321759  -0.547491  0.066125  2.420071  0.089
