# generated using pymatgen
data_CuH16C20S2(N2O3)2
_symmetry_space_group_name_H-M   'P 1'
_cell_length_a   10.69619362
_cell_length_b   10.83896606
_cell_length_c   11.12904784
_cell_angle_alpha   89.99977895
_cell_angle_beta   90.00004569
_cell_angle_gamma   102.67981212
_symmetry_Int_Tables_number   1
_chemical_formula_structural   CuH16C20S2(N2O3)2
_chemical_formula_sum   'Cu2 H32 C40 S4 N8 O12'
_cell_volume   1258.78694646
_cell_formula_units_Z   2
loop_
 _symmetry_equiv_pos_site_id
 _symmetry_equiv_pos_as_xyz
  1  'x, y, z'
loop_
 _atom_site_type_symbol
 _atom_site_label
 _atom_site_symmetry_multiplicity
 _atom_site_fract_x
 _atom_site_fract_y
 _atom_site_fract_z
 _atom_site_occupancy
 _atom_site_hle17_ddec_charge
 _atom_site_hle17_ddec_spin_density
 _atom_site_hle17_ddec_sum_bond_order
 _atom_site_hle17_magmom
 _atom_site_hse06_10hf_ddec_charge
 _atom_site_hse06_10hf_ddec_spin_density
 _atom_site_hse06_10hf_ddec_sum_bond_order
 _atom_site_hse06_10hf_magmom
 _atom_site_hse06_ddec_charge
 _atom_site_hse06_ddec_spin_density
 _atom_site_hse06_ddec_sum_bond_order
 _atom_site_hse06_magmom
 _atom_site_pbe_cm5_charge
 _atom_site_pbe_ddec_charge
 _atom_site_pbe_ddec_spin_density
 _atom_site_pbe_ddec_sum_bond_order
 _atom_site_pbe_magmom
Cu  Cu0  1  0.74999964  0.75000030  0.65194505  1  0.73923  0.705708  1.966616  0.515  0.69091  0.76968  2.350002  0.611  0.76754  0.834603  2.298975  0.69  0.780204  0.646987  0.723226  2.383866  0.558
Cu  Cu1  1  0.25000227  0.25000078  0.34805097  1  0.739302  0.705732  1.966654  0.515  0.691004  0.769688  2.350145  0.611  0.767601  0.834604  2.29901  0.69  0.78028  0.647012  0.72323  2.383983  0.558
H  H2  1  0.88104776  0.32838763  0.69900921  1  0.133744  0.000593  0.961436  0.001  0.138686  0.000554  1.025727  0.001  0.142723  0.000399  1.02316  0.0  0.114298  0.135619  0.00063  1.027852  0.001
H  H3  1  0.61895189  0.17161279  0.69901390  1  0.133746  0.000591  0.961408  0.001  0.138659  0.000555  1.025719  0.001  0.142696  0.000398  1.023153  0.0  0.114286  0.135592  0.00063  1.027844  0.001
H  H4  1  0.11895343  0.67161440  0.30098051  1  0.133742  0.000591  0.961355  0.001  0.138659  0.000555  1.025654  0.001  0.142696  0.000398  1.023088  0.0  0.114274  0.135594  0.00063  1.027779  0.001
H  H5  1  0.38104722  0.82838829  0.30098032  1  0.133731  0.000592  0.961334  0.001  0.138651  0.000555  1.025635  0.001  0.142689  0.000399  1.023067  0.0  0.114278  0.135584  0.00063  1.027763  0.001
H  H6  1  0.11487635  0.41655824  0.66568874  1  0.08858  0.000219  0.969807  0.001  0.09889  -6.6e-05  1.030306  0.0  0.100359  -0.000115  1.031011  0.0  0.102773  0.097603  1.2e-05  1.030167  0.0
H  H7  1  0.38512328  0.08344111  0.66570025  1  0.088542  0.00022  0.969908  0.001  0.09887  -6.6e-05  1.030395  0.0  0.100341  -0.000114  1.031094  0.0  0.102807  0.097582  1.2e-05  1.030259  0.0
H  H8  1  0.88512421  0.58344095  0.33430188  1  0.088542  0.00022  0.969795  0.001  0.098868  -6.5e-05  1.030287  0.0  0.10034  -0.000114  1.030985  0.0  0.1028  0.09758  1.2e-05  1.03015  0.0
H  H9  1  0.61487676  0.91655996  0.33429756  1  0.088579  0.00022  0.969868  0.001  0.098904  -6.6e-05  1.030345  0.0  0.100375  -0.000115  1.031044  0.0  0.102813  0.097616  1.2e-05  1.030209  0.0
H  H10  1  0.18940591  0.64644316  0.61293180  1  0.116361  0.000602  0.946639  0.001  0.127367  0.000544  1.002938  0.0  0.130426  0.000393  1.001737  0.0  0.112847  0.125096  0.000624  1.003985  0.001
H  H11  1  0.31059264  0.85355733  0.61293865  1  0.116304  0.0006  0.946733  0.001  0.127288  0.000545  1.003048  0.0  0.130339  0.000393  1.001848  0.0  0.112832  0.125019  0.000624  1.004093  0.001
H  H12  1  0.81059485  0.35355697  0.38706601  1  0.11636  0.0006  0.946692  0.001  0.127322  0.000544  1.003035  0.0  0.130374  0.000393  1.001835  0.0  0.112822  0.12505  0.000624  1.004075  0.001
H  H13  1  0.68940813  0.14644280  0.38706635  1  0.116377  0.0006  0.946631  0.001  0.127396  0.000545  1.002916  0.0  0.130451  0.000393  1.001715  0.0  0.11285  0.125121  0.000624  1.003959  0.001
H  H14  1  0.02769624  0.78296888  0.61060424  1  0.106647  0.001153  0.938965  0.002  0.113292  0.000971  1.002737  0.002  0.115729  0.000681  1.000023  0.001  0.122941  0.111301  0.001166  1.004943  0.002
H  H15  1  0.47230605  0.71703162  0.61060723  1  0.106696  0.001154  0.938892  0.002  0.113339  0.000971  1.002687  0.002  0.115775  0.00068  0.999974  0.001  0.122943  0.111352  0.001166  1.004883  0.002
H  H16  1  0.97230869  0.21703314  0.38939537  1  0.106662  0.001154  0.938895  0.002  0.113302  0.000971  1.00268  0.002  0.115739  0.000681  0.999968  0.001  0.122931  0.111311  0.001166  1.004889  0.002
H  H17  1  0.52769430  0.28296662  0.38939956  1  0.106687  0.001155  0.93888  0.002  0.113351  0.000971  1.002616  0.002  0.115785  0.000681  0.999908  0.001  0.122942  0.111357  0.001166  1.004823  0.002
H  H18  1  0.89266153  0.91428982  0.46210735  1  0.102298  0.001309  0.959675  0.002  0.104973  0.00098  1.029187  0.002  0.107309  0.000679  1.026389  0.001  0.120942  0.103005  0.001166  1.031478  0.002
H  H19  1  0.60732821  0.58571059  0.46210426  1  0.102422  0.001309  0.959585  0.002  0.105052  0.00098  1.029134  0.002  0.107387  0.000679  1.026337  0.001  0.120967  0.103081  0.001167  1.031428  0.002
H  H20  1  0.10733332  0.08571315  0.53788687  1  0.102386  0.001307  0.959654  0.002  0.105046  0.00098  1.029142  0.002  0.107385  0.000679  1.02634  0.001  0.120953  0.103073  0.001167  1.031433  0.002
H  H21  1  0.39267069  0.41428955  0.53789265  1  0.102377  0.001308  0.959624  0.002  0.105014  0.00098  1.029145  0.002  0.10735  0.000679  1.026349  0.001  0.120944  0.103045  0.001166  1.031439  0.002
H  H22  1  0.89870012  0.92183763  0.23947194  1  0.120943  0.00069  0.952858  0.001  0.129503  0.00061  1.011679  0.0  0.132698  0.000441  1.010551  0.0  0.113345  0.127169  0.000676  1.012735  0.001
H  H23  1  0.60129276  0.57816934  0.23946977  1  0.121008  0.000689  0.952675  0.001  0.129538  0.00061  1.011536  0.0  0.132734  0.000441  1.010407  0.0  0.113326  0.127201  0.000676  1.012591  0.001
H  H24  1  0.10129576  0.07816156  0.76052138  1  0.120931  0.000691  0.952769  0.001  0.129461  0.00061  1.011639  0.0  0.132656  0.000441  1.010512  0.0  0.113307  0.127126  0.000676  1.012691  0.001
H  H25  1  0.39870851  0.42182890  0.76052714  1  0.120998  0.00069  0.95268  0.001  0.129514  0.00061  1.011553  0.0  0.13271  0.000441  1.010424  0.0  0.113329  0.127179  0.000676  1.012608  0.001
H  H26  1  0.95530545  0.82586593  0.06836496  1  0.133357  0.0006  0.943005  0.001  0.142178  0.000524  1.001218  0.0  0.145561  0.000378  1.000013  0.0  0.115564  0.139731  0.000597  1.002288  0.001
H  H27  1  0.54469336  0.67413888  0.06836059  1  0.133289  0.0006  0.943171  0.001  0.142143  0.000524  1.001329  0.0  0.145526  0.000378  1.000126  0.0  0.11553  0.139696  0.000597  1.002399  0.001
H  H28  1  0.04469104  0.17412759  0.93163555  1  0.133336  0.0006  0.94297  0.001  0.142153  0.000523  1.001192  0.0  0.145536  0.000378  0.999988  0.0  0.115559  0.139705  0.000597  1.002262  0.001
H  H29  1  0.45530376  0.32585747  0.93162913  1  0.133315  0.0006  0.943097  0.001  0.142101  0.000524  1.001353  0.0  0.14548  0.000377  1.000157  0.0  0.115545  0.139652  0.000597  1.002423  0.001
H  H30  1  0.94470028  0.82718818  0.84353459  1  0.088566  0.0011  0.933409  0.002  0.097672  0.000872  0.992737  0.001  0.099375  0.000603  0.990831  0.001  0.122006  0.096245  0.001016  0.994283  0.002
H  H31  1  0.55530583  0.67280881  0.84353024  1  0.088544  0.0011  0.933402  0.002  0.097658  0.000871  0.99273  0.001  0.09936  0.000603  0.990824  0.001  0.122021  0.096233  0.001016  0.994277  0.002
H  H32  1  0.05530223  0.17280722  0.15646591  1  0.088534  0.0011  0.933414  0.002  0.097618  0.000872  0.992769  0.001  0.09932  0.000603  0.990865  0.001  0.122011  0.096193  0.001016  0.994319  0.002
H  H33  1  0.44469753  0.32719038  0.15646308  1  0.088512  0.0011  0.933451  0.002  0.097659  0.000872  0.992747  0.001  0.099363  0.000603  0.99084  0.001  0.12201  0.096231  0.001016  0.994297  0.002
C  C34  1  0.83341059  0.51005592  0.67149706  1  0.056111  -0.010457  3.677789  -0.007  0.06522  -0.002392  3.930278  -0.002  0.068853  -0.004155  3.950056  -0.003  0.113505  0.062755  -0.000891  3.917619  -0.001
C  C35  1  0.66658661  0.98994364  0.67150149  1  0.056025  -0.010485  3.677864  -0.008  0.065237  -0.002392  3.930222  -0.002  0.068882  -0.004151  3.949972  -0.003  0.113469  0.062773  -0.00089  3.917566  -0.001
C  C36  1  0.16658758  0.48994516  0.32849985  1  0.056061  -0.010488  3.677761  -0.008  0.065256  -0.002363  3.930134  -0.002  0.068892  -0.004173  3.949902  -0.003  0.113486  0.062784  -0.00089  3.917478  -0.001
C  C37  1  0.33341437  0.01005743  0.32849811  1  0.056  -0.01048  3.677633  -0.008  0.065151  -0.002412  3.930097  -0.002  0.06879  -0.004143  3.949862  -0.003  0.113423  0.062684  -0.00089  3.917449  -0.001
C  C38  1  0.91727171  0.42851299  0.68046298  1  -0.093129  0.010423  3.678396  0.011  -0.112946  0.003824  3.918793  0.004  -0.11748  0.003521  3.936909  0.004  -0.069898  -0.109851  0.004197  3.906709  0.005
C  C39  1  0.58272930  0.07148939  0.68046801  1  -0.093177  0.010446  3.678486  0.011  -0.112947  0.003824  3.918783  0.004  -0.11749  0.003522  3.936906  0.004  -0.069878  -0.109846  0.004197  3.906697  0.005
C  C40  1  0.08272876  0.57148998  0.31953304  1  -0.093237  0.010446  3.678462  0.011  -0.112989  0.00382  3.91875  0.004  -0.117527  0.003528  3.936867  0.004  -0.069878  -0.109896  0.004197  3.906675  0.005
C  C41  1  0.41727397  0.92851358  0.31952980  1  -0.093075  0.01044  3.678406  0.011  -0.112833  0.003823  3.918707  0.004  -0.11737  0.00352  3.936825  0.004  -0.069831  -0.109733  0.004197  3.906628  0.005
C  C42  1  0.04721592  0.47822603  0.66159480  1  0.008207  -0.014204  3.693474  -0.009  -0.008747  -0.004814  3.939201  -0.003  -0.004707  -0.005427  3.956443  -0.003  -0.062234  -0.011248  -0.00433  3.927532  -0.002
C  C43  1  0.45278298  0.02177429  0.66160301  1  0.008249  -0.014231  3.693651  -0.009  -0.008755  -0.004809  3.939384  -0.003  -0.004714  -0.005429  3.956627  -0.003  -0.06226  -0.011254  -0.004329  3.927719  -0.002
C  C44  1  0.95278599  0.52177505  0.33840031  1  0.008361  -0.014236  3.693499  -0.009  -0.008631  -0.004814  3.939218  -0.003  -0.004588  -0.005434  3.95646  -0.003  -0.062243  -0.011132  -0.00433  3.927547  -0.002
C  C45  1  0.54721591  0.97822584  0.33839660  1  0.008131  -0.014227  3.693644  -0.009  -0.008848  -0.004812  3.939368  -0.003  -0.004807  -0.005426  3.956613  -0.003  -0.062313  -0.011345  -0.004329  3.9277  -0.002
C  C46  1  0.08945748  0.60638276  0.63453117  1  -0.10893  0.010298  3.712849  0.011  -0.123868  0.003803  3.963466  0.004  -0.129135  0.003545  3.982225  0.004  -0.078121  -0.120426  0.004094  3.950758  0.005
C  C47  1  0.41054430  0.89361955  0.63453884  1  -0.108744  0.010316  3.713015  0.011  -0.123647  0.003798  3.963634  0.004  -0.128905  0.003547  3.982387  0.004  -0.078103  -0.120207  0.004093  3.950931  0.005
C  C48  1  0.91054558  0.39361927  0.36546664  1  -0.108986  0.010322  3.712917  0.011  -0.123893  0.003801  3.963567  0.004  -0.129153  0.003547  3.982322  0.004  -0.078147  -0.120448  0.004093  3.950854  0.005
C  C49  1  0.58945668  0.10638153  0.36546616  1  -0.108888  0.010314  3.712885  0.011  -0.123842  0.003801  3.963518  0.004  -0.129105  0.003545  3.982277  0.004  -0.078126  -0.120394  0.004093  3.950804  0.005
C  C50  1  0.00039808  0.68244158  0.63154601  1  0.125308  -0.011738  3.654147  -0.008  0.09444  -0.002835  3.917417  -0.002  0.102504  -0.004593  3.934391  -0.003  0.047109  0.089402  -0.00146  3.906241  -0.001
C  C51  1  0.49960068  0.81755978  0.63155134  1  0.125103  -0.011766  3.654152  -0.008  0.094237  -0.002832  3.917448  -0.002  0.102301  -0.004595  3.934421  -0.003  0.047102  0.089204  -0.00146  3.906277  -0.001
C  C52  1  0.99960498  0.31756044  0.36845180  1  0.125256  -0.011773  3.653974  -0.008  0.094404  -0.002835  3.917253  -0.002  0.102465  -0.004594  3.934228  -0.003  0.047162  0.089364  -0.00146  3.906075  -0.001
C  C53  1  0.50039728  0.18244035  0.36845455  1  0.125173  -0.011764  3.654044  -0.008  0.094313  -0.002835  3.917339  -0.002  0.102374  -0.004592  3.934318  -0.003  0.047119  0.089279  -0.00146  3.906158  -0.001
C  C54  1  0.83001626  0.84207725  0.40881269  1  0.131292  -0.011432  3.664725  -0.008  0.100476  -0.002375  3.927627  -0.001  0.109476  -0.004284  3.944921  -0.003  0.048168  0.094276  -0.00105  3.91701  0.0
C  C55  1  0.66997317  0.65792621  0.40881118  1  0.131179  -0.011433  3.664681  -0.008  0.100424  -0.002372  3.927541  -0.001  0.109424  -0.004284  3.944834  -0.003  0.048175  0.094222  -0.00105  3.916924  0.0
C  C56  1  0.16997859  0.15792572  0.59118332  1  0.131264  -0.011402  3.664894  -0.008  0.100544  -0.002372  3.927743  -0.001  0.109545  -0.004283  3.945037  -0.003  0.048278  0.094349  -0.001049  3.917119  0.0
C  C57  1  0.33002644  0.34207298  0.59118393  1  0.131229  -0.011409  3.664611  -0.008  0.100521  -0.002377  3.92748  -0.001  0.109522  -0.004286  3.944771  -0.003  0.048242  0.094316  -0.00105  3.916864  0.0
C  C58  1  0.83238431  0.84510195  0.28411738  1  -0.148538  0.010354  3.687735  0.011  -0.165966  0.004086  3.93485  0.005  -0.173219  0.003642  3.953654  0.004  -0.07523  -0.161375  0.004467  3.92305  0.005
C  C59  1  0.66760691  0.65490579  0.28411588  1  -0.14868  0.010357  3.687599  0.011  -0.166088  0.004087  3.934705  0.005  -0.173341  0.003642  3.953505  0.004  -0.07529  -0.161493  0.004467  3.9229  0.005
C  C60  1  0.16761105  0.15489913  0.71587593  1  -0.148526  0.010335  3.687844  0.011  -0.165944  0.004087  3.934927  0.005  -0.173196  0.00364  3.953734  0.004  -0.075235  -0.161349  0.004467  3.923121  0.005
C  C61  1  0.33239177  0.34509340  0.71588103  1  -0.148621  0.010336  3.687655  0.011  -0.166012  0.004089  3.934732  0.005  -0.173262  0.003641  3.953535  0.004  -0.075267  -0.161418  0.004467  3.92293  0.005
C  C62  1  0.74999727  0.75000305  0.21907783  1  0.090716  -0.011603  3.766287  -0.007  0.09967  -0.004264  4.001146  -0.002  0.104372  -0.004893  4.021238  -0.003  0.014749  0.096528  -0.003921  3.988078  -0.002
C  C63  1  0.24999975  0.24999708  0.78091998  1  0.090637  -0.01158  3.766535  -0.007  0.09963  -0.004266  4.001381  -0.002  0.104328  -0.004889  4.021486  -0.003  0.014715  0.096487  -0.003921  3.988312  -0.002
C  C64  1  0.74999821  0.75000331  0.08678888  1  0.103569  -0.010418  3.757235  -0.007  0.115432  -0.003908  3.986443  -0.002  0.11899  -0.004488  4.00871  -0.003  0.017982  0.112905  -0.003591  3.971728  -0.002
C  C65  1  0.24999933  0.24999493  0.91320803  1  0.103444  -0.010423  3.757338  -0.007  0.115218  -0.003912  3.986651  -0.002  0.118774  -0.004495  4.008921  -0.003  0.017931  0.112693  -0.003591  3.971932  -0.002
C  C66  1  0.86386881  0.79344276  0.02221009  1  -0.152284  0.008976  3.668307  0.01  -0.167297  0.003521  3.906031  0.004  -0.175173  0.003182  3.926458  0.004  -0.0737  -0.162105  0.003785  3.892675  0.004
C  C67  1  0.63613001  0.70656223  0.02220657  1  -0.152203  0.008974  3.668464  0.01  -0.16722  0.003519  3.906166  0.004  -0.175097  0.003182  3.926595  0.004  -0.073634  -0.162028  0.003785  3.892811  0.004
C  C68  1  0.13612810  0.20655264  0.97778772  1  -0.152181  0.008978  3.6681  0.01  -0.167163  0.003521  3.905851  0.004  -0.175038  0.003186  3.92628  0.004  -0.073687  -0.16197  0.003785  3.892497  0.004
C  C69  1  0.36386805  0.29343412  0.97778854  1  -0.152187  0.008978  3.668252  0.01  -0.167126  0.003521  3.906031  0.004  -0.175  0.003186  3.926462  0.004  -0.07367  -0.161934  0.003785  3.892676  0.004
C  C70  1  0.85943366  0.79232975  0.89754643  1  0.141995  -0.010622  3.688834  -0.007  0.111287  -0.002322  3.946302  -0.001  0.120337  -0.003976  3.964742  -0.003  0.051945  0.105228  -0.001164  3.934468  0.0
C  C71  1  0.64057049  0.70767081  0.89754471  1  0.141973  -0.010619  3.688949  -0.007  0.111243  -0.00232  3.946447  -0.001  0.120292  -0.003978  3.964886  -0.003  0.051913  0.10518  -0.001163  3.934616  0.0
C  C72  1  0.14056813  0.20766660  0.10245407  1  0.142047  -0.010622  3.688821  -0.007  0.111357  -0.002322  3.946274  -0.001  0.120405  -0.003983  3.964715  -0.003  0.051968  0.105291  -0.001163  3.934444  0.0
C  C73  1  0.35943058  0.29232648  0.10245310  1  0.142045  -0.010622  3.688749  -0.007  0.111286  -0.002321  3.946223  -0.001  0.120332  -0.003985  3.964663  -0.003  0.051934  0.10522  -0.001164  3.934391  0.0
S  S74  1  0.66256365  0.44420088  0.67509222  1  1.244174  0.000832  5.729419  0.001  1.149812  0.000822  6.260385  0.001  1.19787  0.000451  6.235969  0.001  0.496494  1.116913  0.001116  6.275583  0.001
S  S75  1  0.83743672  0.05579868  0.67509032  1  1.244135  0.000832  5.729411  0.001  1.149753  0.000816  6.260371  0.001  1.197808  0.000447  6.235955  0.001  0.496509  1.116857  0.001116  6.275572  0.001
S  S76  1  0.33743919  0.55580019  0.32491907  1  1.244126  0.000834  5.729202  0.001  1.14974  0.000822  6.260139  0.001  1.197794  0.000447  6.235727  0.001  0.496609  1.116841  0.001116  6.275333  0.001
S  S77  1  0.16256311  0.94420145  0.32492367  1  1.244103  0.000831  5.729329  0.001  1.149739  0.000821  6.260256  0.001  1.19779  0.00046  6.235851  0.001  0.49662  1.116843  0.001116  6.275457  0.001
N  N78  1  0.87452648  0.63430245  0.65060108  1  -0.296599  0.081962  3.379146  0.105  -0.256212  0.054789  3.666879  0.075  -0.283702  0.045262  3.69224  0.066  -0.343048  -0.24006  0.061196  3.651663  0.08
N  N79  1  0.62547561  0.86569815  0.65060414  1  -0.296448  0.081971  3.379019  0.105  -0.256147  0.054786  3.666786  0.075  -0.283638  0.045266  3.692143  0.066  -0.343038  -0.239995  0.061191  3.651575  0.08
N  N80  1  0.12547709  0.36569769  0.34939493  1  -0.296469  0.081974  3.378969  0.106  -0.256158  0.054785  3.666751  0.075  -0.283638  0.045269  3.692079  0.066  -0.343031  -0.239987  0.061195  3.651513  0.08
N  N81  1  0.37452464  0.13430387  0.34939636  1  -0.296411  0.081972  3.37881  0.105  -0.256099  0.054792  3.666612  0.075  -0.283579  0.045262  3.691942  0.066  -0.34299  -0.23993  0.061193  3.651378  0.08
N  N82  1  0.74999404  0.75000066  0.46982345  1  -0.287826  0.091381  3.328555  0.117  -0.24288  0.061257  3.624844  0.084  -0.272724  0.050145  3.649384  0.074  -0.344055  -0.224308  0.068986  3.60953  0.091
N  N83  1  0.25000112  0.24999947  0.53016897  1  -0.287888  0.091366  3.328536  0.117  -0.243098  0.061259  3.624972  0.084  -0.272937  0.050148  3.649478  0.074  -0.344225  -0.224508  0.068987  3.609636  0.091
N  N84  1  0.75000223  0.74999898  0.83624203  1  -0.28478  0.082579  3.323779  0.105  -0.238916  0.055673  3.613792  0.076  -0.268417  0.045809  3.638658  0.067  -0.338125  -0.220598  0.062302  3.598308  0.081
N  N85  1  0.24999956  0.24999737  0.16375847  1  -0.284833  0.082577  3.323817  0.105  -0.238953  0.055671  3.613832  0.076  -0.268443  0.045813  3.638669  0.067  -0.338115  -0.220615  0.062301  3.598326  0.081
O  O86  1  0.60103546  0.55365005  0.66673368  1  -0.688157  -0.000451  2.029258  0.001  -0.645833  -0.000874  2.305434  0.001  -0.66746  -0.001357  2.287301  0.0  -0.352706  -0.630854  -0.000514  2.31724  0.001
O  O87  1  0.89896340  0.94634859  0.66673216  1  -0.688198  -0.00045  2.029359  0.001  -0.64584  -0.000872  2.305477  0.001  -0.667465  -0.001359  2.287345  0.0  -0.352732  -0.630868  -0.000515  2.317297  0.001
O  O88  1  0.39896769  0.44634819  0.33325514  1  -0.688238  -0.00045  2.02933  0.001  -0.645908  -0.000872  2.30553  0.001  -0.667528  -0.001361  2.287381  0.0  -0.352693  -0.63092  -0.000514  2.317329  0.001
O  O89  1  0.10103612  0.05365438  0.33325666  1  -0.688222  -0.000449  2.029262  0.001  -0.645854  -0.000864  2.305374  0.001  -0.667477  -0.001366  2.28723  0.0  -0.352663  -0.630863  -0.000514  2.317177  0.001
O  O90  1  0.63728734  0.37544309  0.78845783  1  -0.640394  0.000544  1.896299  0.001  -0.598856  0.000271  2.124747  0.0  -0.618316  7.7e-05  2.111396  0.0  -0.350124  -0.584619  0.000596  2.133337  0.001
O  O91  1  0.86271625  0.12455791  0.78845390  1  -0.640399  0.000546  1.896388  0.001  -0.598869  0.000273  2.124853  0.0  -0.61833  6.8e-05  2.111502  0.0  -0.350119  -0.58463  0.000596  2.133441  0.001
O  O92  1  0.36272192  0.62458257  0.21156604  1  -0.640267  0.000543  1.896276  0.001  -0.598758  0.000266  2.124776  0.0  -0.618219  7.6e-05  2.111427  0.0  -0.350192  -0.584521  0.000596  2.133364  0.001
O  O93  1  0.13727654  0.87541480  0.21157357  1  -0.640266  0.000547  1.896521  0.001  -0.598768  0.00028  2.125006  0.0  -0.618228  6.7e-05  2.111659  0.0  -0.350183  -0.58453  0.000596  2.133602  0.001
O  O94  1  0.64229316  0.36483484  0.56729697  1  -0.649957  0.000441  1.922078  0.001  -0.606135  0.000284  2.169546  0.0  -0.628863  7.1e-05  2.158983  0.0  -0.342237  -0.589526  0.00057  2.175932  0.001
O  O95  1  0.85770607  0.13516421  0.56729389  1  -0.649881  0.000439  1.921985  0.001  -0.606081  0.000282  2.169467  0.0  -0.62881  7.9e-05  2.158908  0.0  -0.342225  -0.589471  0.00057  2.175853  0.001
O  O96  1  0.35770598  0.63514543  0.43272779  1  -0.649962  0.00044  1.921951  0.001  -0.606146  0.000283  2.169465  0.0  -0.628877  7.3e-05  2.158917  0.0  -0.342302  -0.589534  0.00057  2.175849  0.001
O  O97  1  0.14229996  0.86485957  0.43273447  1  -0.64998  0.000437  1.921949  0.001  -0.606157  0.000276  2.169426  0.0  -0.628887  7.6e-05  2.158877  0.0  -0.342337  -0.589545  0.00057  2.175813  0.001
