# generated using pymatgen
data_CoH11C13NO6
_symmetry_space_group_name_H-M   'P 1'
_cell_length_a   9.84532500
_cell_length_b   9.60216471
_cell_length_c   15.71817607
_cell_angle_alpha   99.53963097
_cell_angle_beta   90.02742081
_cell_angle_gamma   120.83022829
_symmetry_Int_Tables_number   1
_chemical_formula_structural   CoH11C13NO6
_chemical_formula_sum   'Co4 H44 C52 N4 O24'
_cell_volume   1251.89918049
_cell_formula_units_Z   4
loop_
 _symmetry_equiv_pos_site_id
 _symmetry_equiv_pos_as_xyz
  1  'x, y, z'
loop_
 _atom_site_type_symbol
 _atom_site_label
 _atom_site_symmetry_multiplicity
 _atom_site_fract_x
 _atom_site_fract_y
 _atom_site_fract_z
 _atom_site_occupancy
 _atom_site_hle17_ddec_charge
 _atom_site_hle17_ddec_spin_density
 _atom_site_hle17_ddec_sum_bond_order
 _atom_site_hle17_magmom
 _atom_site_hse06_10hf_ddec_charge
 _atom_site_hse06_10hf_ddec_spin_density
 _atom_site_hse06_10hf_ddec_sum_bond_order
 _atom_site_hse06_10hf_magmom
 _atom_site_hse06_ddec_charge
 _atom_site_hse06_ddec_spin_density
 _atom_site_hse06_ddec_sum_bond_order
 _atom_site_hse06_magmom
 _atom_site_pbe_cm5_charge
 _atom_site_pbe_ddec_charge
 _atom_site_pbe_ddec_spin_density
 _atom_site_pbe_ddec_sum_bond_order
 _atom_site_pbe_magmom
Co  Co0  1  0.21536686  0.29288105  0.77602184  1  1.040491  2.873698  1.846231  2.578  1.001131  2.85884  2.254708  2.643  1.077163  2.894039  2.186659  2.719  0.665657  0.933952  2.830165  2.318012  2.576
Co  Co1  1  0.92256798  0.70703339  0.72401120  1  1.040167  2.874123  1.846242  2.578  1.000712  2.859591  2.254721  2.643  1.0772  2.894794  2.186069  2.719  0.665836  0.933477  2.830894  2.318064  2.576
Co  Co2  1  0.78464167  0.70711933  0.22398005  1  1.040677  2.873802  1.846356  2.578  1.001089  2.858846  2.254855  2.643  1.077077  2.894031  2.186842  2.719  0.665627  0.933891  2.830167  2.318176  2.576
Co  Co3  1  0.07743062  0.29296340  0.27598836  1  1.04013  2.874129  1.846296  2.578  1.000725  2.859596  2.254774  2.643  1.077196  2.894799  2.186146  2.719  0.665823  0.933495  2.830901  2.318107  2.576
H  H4  1  0.24252518  0.51150129  0.68617016  1  0.424425  -0.000433  0.883241  -0.001  0.39361  0.000247  0.948388  0.0  0.40522  8.5e-05  0.931779  0.0  0.286916  0.385336  0.000366  0.9601  0.001
H  H5  1  0.73096323  0.48847044  0.81377122  1  0.424526  -0.000433  0.883761  -0.001  0.394046  0.000245  0.948171  0.0  0.405692  8.4e-05  0.931522  0.0  0.286974  0.385735  0.000364  0.959927  0.001
H  H6  1  0.75747633  0.48849928  0.31382857  1  0.424337  -0.000433  0.88336  -0.001  0.393489  0.000247  0.948543  0.0  0.405099  8.5e-05  0.931933  0.0  0.286862  0.385214  0.000366  0.960255  0.001
H  H7  1  0.26903352  0.51152874  0.18622990  1  0.424541  -0.000433  0.883735  -0.001  0.394073  0.000245  0.948129  0.0  0.405718  8.3e-05  0.931482  0.0  0.286999  0.385762  0.000363  0.959885  0.001
H  H8  1  0.18205902  0.32926173  0.63238772  1  0.418893  -0.000712  0.864038  -0.001  0.39525  0.000125  0.925214  0.0  0.405559  -5.5e-05  0.910463  0.0  0.296735  0.387986  0.000336  0.935513  0.0
H  H9  1  0.85303154  0.67058054  0.86762921  1  0.419057  -0.00071  0.863851  -0.001  0.395178  0.000128  0.925493  0.0  0.405523  -5.3e-05  0.91068  0.0  0.29694  0.387897  0.000338  0.935811  0.0
H  H10  1  0.81793713  0.67073625  0.36761261  1  0.418931  -0.000713  0.863971  -0.001  0.395253  0.000126  0.925222  0.0  0.405561  -5.5e-05  0.91047  0.0  0.296735  0.387986  0.000336  0.935524  0.0
H  H11  1  0.14696752  0.32942123  0.13237030  1  0.419062  -0.00071  0.86383  -0.001  0.395177  0.000127  0.92549  0.0  0.405521  -5.3e-05  0.910679  0.0  0.296937  0.387897  0.000337  0.935807  0.0
H  H12  1  0.06335890  0.06670329  0.88999180  1  0.428544  -9e-05  0.851766  0.0  0.407689  0.000227  0.905518  0.0  0.41734  9.4e-05  0.891585  0.0  0.299185  0.400536  0.000373  0.915816  0.001
H  H13  1  0.99639799  0.93337819  0.61016809  1  0.429608  -9e-05  0.850167  0.0  0.408196  0.000228  0.904981  0.0  0.417902  9.5e-05  0.890977  0.0  0.299291  0.401006  0.000374  0.915317  0.001
H  H14  1  0.93663524  0.93329065  0.11001379  1  0.4286  -9.1e-05  0.851691  0.0  0.407733  0.000227  0.905461  0.0  0.417385  9.4e-05  0.891525  0.0  0.299204  0.40058  0.000373  0.915758  0.001
H  H15  1  0.00359939  0.06662222  0.38983316  1  0.429614  -9e-05  0.850181  0.0  0.408202  0.000228  0.904978  0.0  0.417907  9.5e-05  0.890974  0.0  0.299295  0.401012  0.000374  0.915314  0.001
H  H16  1  0.17394178  0.03030086  0.83517982  1  0.412771  -0.000682  0.894592  -0.001  0.381593  -0.000257  0.96632  0.0  0.392949  -0.000405  0.949531  0.0  0.290255  0.373419  -7.2e-05  0.978221  0.0
H  H17  1  0.14350633  0.96953272  0.66480486  1  0.413173  -0.000683  0.894485  -0.001  0.381993  -0.000257  0.965865  0.0  0.393338  -0.000405  0.949106  0.0  0.290535  0.373818  -7.3e-05  0.977763  0.0
H  H18  1  0.82605506  0.96969443  0.16482403  1  0.41278  -0.000683  0.894565  -0.001  0.381599  -0.000257  0.966324  0.0  0.392957  -0.000405  0.949533  0.0  0.290276  0.373423  -7.2e-05  0.978229  0.0
H  H19  1  0.85649084  0.03046527  0.33519548  1  0.413165  -0.000683  0.894475  -0.001  0.381993  -0.000257  0.965852  0.0  0.393338  -0.000404  0.949096  0.0  0.290528  0.373818  -7.3e-05  0.977752  0.0
H  H20  1  0.75835261  0.28290099  0.76061451  1  0.112125  3.6e-05  0.946164  0.0  0.122479  -5.2e-05  1.0091  0.0  0.125784  -8.2e-05  1.006532  0.0  0.111608  0.119996  -2.4e-05  1.010808  0.0
H  H21  1  0.47572424  0.71720631  0.73946173  1  0.111566  3.6e-05  0.946766  0.0  0.121946  -5.2e-05  1.009637  0.0  0.125282  -8.2e-05  1.007087  0.0  0.111383  0.119471  -2.4e-05  1.011302  0.0
H  H22  1  0.24163947  0.71709089  0.23938385  1  0.112099  3.8e-05  0.946113  0.0  0.122462  -5.2e-05  1.009047  0.0  0.125763  -8.2e-05  1.006484  0.0  0.111593  0.119978  -2.4e-05  1.010754  0.0
H  H23  1  0.52427357  0.28279295  0.26053812  1  0.111565  3.4e-05  0.946748  0.0  0.121945  -5.2e-05  1.00962  0.0  0.125281  -8.2e-05  1.007071  0.0  0.111382  0.119471  -2.4e-05  1.011284  0.0
H  H24  1  0.31080988  0.95757862  0.60539089  1  0.10189  0.000354  0.981769  0.0  0.114409  0.000261  1.042434  0.0  0.117934  0.000158  1.039457  0.0  0.108986  0.111604  0.000368  1.044796  0.0
H  H25  1  0.35391010  0.04303825  0.89436012  1  0.101662  0.000353  0.982662  0.0  0.114353  0.00026  1.043089  0.0  0.117788  0.000157  1.040256  0.0  0.109006  0.111565  0.000365  1.045431  0.0
H  H26  1  0.68919377  0.04242827  0.39460603  1  0.101832  0.000356  0.981649  0.0  0.114335  0.000261  1.042362  0.0  0.117862  0.000158  1.039384  0.0  0.108946  0.111531  0.000367  1.044729  0.0
H  H27  1  0.64610438  0.95696591  0.10564094  1  0.10168  0.000352  0.982561  0.0  0.114302  0.000261  1.043079  0.0  0.117792  0.000157  1.04015  0.0  0.109023  0.111496  0.000367  1.045446  0.0
H  H28  1  0.70734974  0.88904327  0.56433420  1  0.10309  4.9e-05  0.947017  0.0  0.114221  -1.7e-05  1.006076  0.0  0.117951  -2.6e-05  1.002688  0.0  0.109425  0.111344  -2.9e-05  1.008698  0.0
H  H29  1  0.81870411  0.11103923  0.93582595  1  0.10264  4.9e-05  0.945622  0.0  0.113658  -1.6e-05  1.005147  0.0  0.117413  -2.6e-05  1.001706  0.0  0.108909  0.110772  -2.8e-05  1.007816  0.0
H  H30  1  0.29264804  0.11096202  0.43566890  1  0.103072  5.1e-05  0.946921  0.0  0.114199  -1.7e-05  1.006001  0.0  0.117926  -2.6e-05  1.00262  0.0  0.109395  0.11132  -2.8e-05  1.008624  0.0
H  H31  1  0.18130048  0.88895123  0.06417542  1  0.102654  4.8e-05  0.945555  0.0  0.113626  -1.6e-05  1.005148  0.0  0.117378  -2.6e-05  1.001712  0.0  0.1089  0.110741  -2.7e-05  1.007816  0.0
H  H32  1  0.57018960  0.68519816  0.47955515  1  0.107511  0.000142  0.951689  0.0  0.120514  0.0003  1.005773  0.0  0.12365  0.000186  1.004921  0.0  0.110016  0.118091  0.000425  1.006973  0.0
H  H33  1  0.88543142  0.31492290  0.02075063  1  0.108512  0.00014  0.952181  0.0  0.121428  0.0003  1.00614  0.0  0.124539  0.000186  1.005322  0.0  0.110278  0.119078  0.000426  1.007218  0.0
H  H34  1  0.42980893  0.31480663  0.52043516  1  0.10758  0.000142  0.951629  0.0  0.120513  0.0003  1.00578  0.0  0.123673  0.000187  1.004896  0.0  0.110034  0.11809  0.000426  1.006982  0.0
H  H35  1  0.11458265  0.68508654  0.97924532  1  0.108508  0.000142  0.952146  0.0  0.121429  0.0003  1.006085  0.0  0.124541  0.000186  1.005267  0.0  0.110276  0.119073  0.000426  1.007172  0.0
H  H36  1  0.39833132  0.44916432  0.36409221  1  0.095557  0.000731  0.941441  0.002  0.101236  0.000491  1.008619  0.001  0.104371  0.000286  1.005335  0.001  0.119939  0.099129  0.000704  1.010555  0.002
H  H37  1  0.94936163  0.55082528  0.13621587  1  0.096042  0.000732  0.941261  0.002  0.101448  0.00049  1.008592  0.001  0.104568  0.000284  1.005343  0.001  0.119982  0.099373  0.000703  1.01049  0.002
H  H38  1  0.60165763  0.55084159  0.63590014  1  0.095514  0.000731  0.941373  0.002  0.101183  0.000491  1.008584  0.001  0.104316  0.000286  1.005302  0.001  0.11995  0.09908  0.000705  1.010514  0.002
H  H39  1  0.05065248  0.44918422  0.86377881  1  0.096139  0.000731  0.941162  0.002  0.101563  0.000491  1.008483  0.001  0.104686  0.000285  1.00523  0.001  0.119987  0.099485  0.000704  1.010383  0.002
H  H40  1  0.17036328  0.75325097  0.52287825  1  0.121327  2.1e-05  0.956929  0.0  0.130405  0.000196  1.017907  0.0  0.134017  0.000113  1.016228  0.0  0.110365  0.127548  0.000286  1.019544  0.0
H  H41  1  0.41769936  0.24703141  0.97683060  1  0.120935  2.3e-05  0.955365  0.0  0.129836  0.000195  1.01674  0.0  0.133478  0.000112  1.015055  0.0  0.110056  0.126962  0.000285  1.018368  0.0
H  H42  1  0.82963710  0.24674937  0.47712428  1  0.121228  2.2e-05  0.956827  0.0  0.130277  0.000195  1.017875  0.0  0.133888  0.000113  1.016199  0.0  0.110336  0.12742  0.000285  1.019515  0.0
H  H43  1  0.58230747  0.75296152  0.02317106  1  0.120932  2.4e-05  0.955338  0.0  0.129856  0.000195  1.0167  0.0  0.1335  0.000112  1.01501  0.0  0.110073  0.126984  0.000285  1.018323  0.0
H  H44  1  0.01616069  0.51287490  0.40422611  1  0.086351  0.000983  0.958867  0.002  0.092383  0.000791  1.02592  0.002  0.095198  0.000566  1.022834  0.001  0.116948  0.090109  0.000994  1.028789  0.002
H  H45  1  0.50361062  0.48728431  0.09554107  1  0.086467  0.000982  0.95789  0.002  0.09204  0.000787  1.025524  0.002  0.094847  0.000563  1.022439  0.001  0.116899  0.089766  0.000989  1.028405  0.002
H  H46  1  0.98383171  0.48712777  0.59577923  1  0.086386  0.000983  0.958839  0.002  0.092383  0.000791  1.025928  0.002  0.095198  0.000566  1.022847  0.001  0.116952  0.090104  0.000995  1.028806  0.002
H  H47  1  0.49639902  0.51270611  0.90446093  1  0.086422  0.000981  0.95781  0.002  0.091977  0.000787  1.025476  0.002  0.094781  0.000563  1.022395  0.001  0.116872  0.089703  0.000989  1.028361  0.002
C  C48  1  0.52655420  0.13056754  0.68718401  1  -0.080998  0.004631  3.783642  0.007  -0.052232  0.001153  4.018019  0.002  -0.062613  0.000742  4.042452  0.001  -0.018443  -0.046174  0.001745  4.002908  0.003
C  C49  1  0.39638099  0.86978151  0.81275247  1  -0.082451  0.004638  3.782645  0.007  -0.055084  0.00116  4.019198  0.002  -0.065393  0.000747  4.043468  0.001  -0.019521  -0.049089  0.001752  4.004218  0.003
C  C50  1  0.47344324  0.86943303  0.31281472  1  -0.08114  0.004677  3.783766  0.007  -0.052348  0.001154  4.018111  0.002  -0.062722  0.000743  4.042538  0.001  -0.018463  -0.04629  0.001744  4.003001  0.003
C  C51  1  0.60362392  0.13022382  0.18725000  1  -0.082333  0.004595  3.782662  0.007  -0.055022  0.00116  4.019228  0.002  -0.065332  0.000747  4.043507  0.001  -0.019521  -0.049026  0.001752  4.004244  0.003
C  C52  1  0.68416834  0.17785051  0.70900415  1  -0.058802  -0.010199  3.680929  -0.006  -0.098033  -0.002407  3.928229  -0.001  -0.094708  -0.001682  3.947874  -0.001  -0.070583  -0.10003  -0.003426  3.915394  -0.002
C  C53  1  0.50665190  0.82238984  0.79100414  1  -0.056551  -0.010216  3.67842  -0.006  -0.095277  -0.002418  3.925957  -0.001  -0.091943  -0.001691  3.94541  -0.001  -0.069644  -0.09732  -0.00345  3.913235  -0.002
C  C54  1  0.31582592  0.82214369  0.29099702  1  -0.058759  -0.010308  3.680873  -0.006  -0.097998  -0.002406  3.928182  -0.001  -0.094673  -0.001684  3.947834  -0.001  -0.070563  -0.099997  -0.003431  3.91535  -0.002
C  C55  1  0.49334828  0.17760807  0.20899746  1  -0.056588  -0.010113  3.678364  -0.006  -0.095315  -0.002419  3.925924  -0.001  -0.091981  -0.001692  3.945375  -0.001  -0.069654  -0.09736  -0.003454  3.913202  -0.002
C  C56  1  0.49139411  0.89700407  0.57877442  1  0.032447  0.003465  3.767944  0.006  0.051022  0.000468  4.006177  0.001  0.046513  0.00043  4.02935  0.001  -0.006894  0.054346  0.000454  3.990761  0.002
C  C57  1  0.59496012  0.10337208  0.92119405  1  0.03395  0.003466  3.7659  0.006  0.052307  0.000473  4.004571  0.001  0.047776  0.000436  4.027723  0.001  -0.006376  0.055616  0.000462  3.9892  0.002
C  C58  1  0.50860314  0.10300017  0.42122538  1  0.032286  0.003508  3.767905  0.006  0.050978  0.000468  4.005986  0.001  0.046465  0.000428  4.029164  0.001  -0.006938  0.054302  0.000457  3.990571  0.002
C  C59  1  0.40504055  0.89662478  0.07880425  1  0.034078  0.00343  3.765964  0.006  0.052444  0.000473  4.004599  0.001  0.047921  0.000436  4.027742  0.001  -0.006301  0.055754  0.000463  3.989225  0.002
C  C60  1  0.74716701  0.09021611  0.66302279  1  -0.053921  0.006347  3.76751  0.009  -0.02733  0.001979  4.002297  0.003  -0.035992  0.001245  4.023985  0.002  -0.012807  -0.022597  0.003098  3.988741  0.005
C  C61  1  0.65734397  0.91000080  0.83700826  1  -0.056537  0.006354  3.769282  0.009  -0.029871  0.001985  4.003884  0.003  -0.038588  0.001247  4.025658  0.002  -0.013379  -0.024966  0.003104  3.989986  0.005
C  C62  1  0.25283107  0.90978573  0.33697545  1  -0.053911  0.006395  3.767406  0.009  -0.027338  0.001979  4.002258  0.003  -0.035995  0.001243  4.023936  0.002  -0.012833  -0.022596  0.003099  3.988682  0.005
C  C63  1  0.34265706  0.08999475  0.16299116  1  -0.056475  0.006314  3.769042  0.009  -0.029757  0.001986  4.003599  0.003  -0.038477  0.001247  4.02538  0.002  -0.013314  -0.024848  0.003107  3.989695  0.005
C  C64  1  0.43231343  0.99162022  0.62235138  1  -0.080083  -0.009394  3.660744  -0.006  -0.119097  -0.000968  3.909943  0.0  -0.116656  -0.000603  3.92845  0.0  -0.074905  -0.121263  -0.002648  3.898215  -0.001
C  C65  1  0.44130738  0.00886785  0.87750549  1  -0.080036  -0.00939  3.659692  -0.006  -0.118505  -0.000984  3.90917  0.0  -0.116034  -0.000616  3.927719  0.0  -0.074732  -0.120679  -0.002665  3.897498  -0.001
C  C66  1  0.56768303  0.00838042  0.37764608  1  -0.07985  -0.009501  3.660483  -0.006  -0.11889  -0.000968  3.909643  0.0  -0.116454  -0.000602  3.928155  0.0  -0.074834  -0.121063  -0.002643  3.897924  -0.001
C  C67  1  0.55870063  0.99113759  0.12249508  1  -0.080196  -0.009297  3.659543  -0.006  -0.118603  -0.000984  3.909069  0.0  -0.116159  -0.000617  3.927553  0.0  -0.074786  -0.120764  -0.002665  3.897406  -0.001
C  C68  1  0.65200873  0.95208873  0.59850907  1  -0.074206  -0.009034  3.660926  -0.006  -0.112341  -0.000861  3.914363  0.0  -0.109127  -0.000406  3.930362  0.0  -0.069028  -0.114597  -0.003033  3.903401  -0.002
C  C69  1  0.70039364  0.04811878  0.90153666  1  -0.072905  -0.009035  3.659756  -0.006  -0.111032  -0.000873  3.913451  0.0  -0.107778  -0.000416  3.929448  0.0  -0.068147  -0.113375  -0.003055  3.902587  -0.002
C  C70  1  0.34798647  0.04791547  0.40149135  1  -0.074127  -0.009138  3.660736  -0.006  -0.112282  -0.000861  3.914142  0.0  -0.109076  -0.000404  3.930155  0.0  -0.068965  -0.114546  -0.003037  3.903194  -0.002
C  C71  1  0.29960571  0.95187542  0.09846451  1  -0.07303  -0.008955  3.659771  -0.006  -0.111121  -0.000875  3.913448  0.0  -0.10787  -0.000416  3.929442  0.0  -0.068236  -0.113466  -0.003063  3.902583  -0.002
C  C72  1  0.91812800  0.14382926  0.67904784  1  0.650749  -0.005668  3.893147  -0.006  0.603305  0.001135  4.193601  0.001  0.639308  0.000806  4.187705  0.001  0.213856  0.57831  0.001248  4.195061  0.0
C  C73  1  0.77452977  0.85616388  0.82100516  1  0.652338  -0.005663  3.890447  -0.006  0.605477  0.00113  4.189799  0.001  0.641471  0.000806  4.183921  0.001  0.214431  0.580478  0.001247  4.191294  0.0
C  C74  1  0.08186322  0.85616494  0.32095333  1  0.650874  -0.005677  3.893048  -0.006  0.603417  0.001135  4.193518  0.001  0.639421  0.00081  4.187618  0.001  0.213896  0.578421  0.001249  4.194981  0.0
C  C75  1  0.22546526  0.14382778  0.17899698  1  0.65236  -0.005661  3.890242  -0.006  0.605417  0.00113  4.189695  0.001  0.641413  0.000808  4.183816  0.001  0.214469  0.580416  0.00125  4.191192  0.0
C  C76  1  0.45766496  0.22523812  0.73432320  1  0.657101  -0.007011  3.866536  -0.005  0.603722  -0.001034  4.170261  0.0  0.640112  -0.000171  4.164217  0.001  0.216917  0.578646  -0.002049  4.171814  -0.001
C  C77  1  0.23284672  0.77504490  0.76560531  1  0.656392  -0.007015  3.867182  -0.005  0.60311  -0.001041  4.171374  0.0  0.639505  -0.000173  4.165367  0.001  0.216762  0.57805  -0.002061  4.172898  -0.001
C  C78  1  0.54233073  0.77476095  0.26567981  1  0.656977  -0.007019  3.866681  -0.005  0.603616  -0.001033  4.170374  0.0  0.640002  -0.00017  4.164335  0.001  0.216859  0.578542  -0.00205  4.171926  -0.001
C  C79  1  0.76715632  0.22496075  0.23439147  1  0.656415  -0.007009  3.867348  -0.005  0.603227  -0.001041  4.171435  0.0  0.63962  -0.000174  4.165431  0.001  0.216836  0.57816  -0.002064  4.172965  -0.001
C  C80  1  0.44809532  0.65363900  0.46677371  1  -0.154387  0.011121  3.704832  0.016  -0.172751  0.003117  3.951621  0.005  -0.181391  0.002735  3.971104  0.004  -0.081554  -0.16758  0.003478  3.940718  0.006
C  C81  1  0.79490367  0.34650392  0.03340745  1  -0.154945  0.011126  3.706204  0.016  -0.173262  0.00312  3.953135  0.005  -0.181882  0.002736  3.972624  0.004  -0.081839  -0.168068  0.00348  3.942133  0.006
C  C82  1  0.55190103  0.34637156  0.53322428  1  -0.154471  0.011126  3.704858  0.016  -0.172797  0.003117  3.951666  0.005  -0.181452  0.002735  3.971139  0.004  -0.081589  -0.167628  0.003478  3.940764  0.006
C  C83  1  0.20511196  0.65351068  0.96658528  1  -0.154914  0.011104  3.706255  0.016  -0.173214  0.003121  3.95318  0.005  -0.181837  0.002739  3.972669  0.004  -0.081822  -0.168017  0.003481  3.94218  0.006
C  C84  1  0.35253375  0.51957411  0.40146788  1  0.123181  -0.024358  3.70024  -0.016  0.094264  -0.006959  3.959817  -0.004  0.104433  -0.006144  3.975942  -0.003  0.041125  0.086722  -0.008545  3.948722  -0.004
C  C85  1  0.83325028  0.48049366  0.09870807  1  0.122289  -0.024379  3.701413  -0.016  0.093653  -0.006972  3.961109  -0.004  0.10385  -0.006151  3.977153  -0.003  0.040809  0.085876  -0.008556  3.95042  -0.004
C  C86  1  0.64746045  0.48043012  0.59853191  1  0.123347  -0.024358  3.700042  -0.016  0.094412  -0.006959  3.959582  -0.004  0.10458  -0.006143  3.975713  -0.003  0.041133  0.086868  -0.008542  3.948491  -0.004
C  C87  1  0.16676327  0.51951069  0.90128983  1  0.122262  -0.024341  3.701309  -0.016  0.093595  -0.006973  3.961035  -0.004  0.103791  -0.006154  3.977082  -0.003  0.040814  0.08583  -0.008558  3.950323  -0.004
C  C88  1  0.38910574  0.74716377  0.51258030  1  0.110539  -0.027749  3.737213  -0.019  0.121738  -0.010126  3.965105  -0.006  0.130181  -0.007265  3.985402  -0.004  0.015625  0.113904  -0.015493  3.953346  -0.009
C  C89  1  0.64246898  0.25311235  0.98746634  1  0.108796  -0.027768  3.737905  -0.019  0.119842  -0.010144  3.966521  -0.006  0.128289  -0.007273  3.986853  -0.004  0.015145  0.112029  -0.01552  3.954716  -0.01
C  C90  1  0.61088741  0.25284039  0.48742076  1  0.110494  -0.027757  3.737502  -0.019  0.121714  -0.010127  3.965301  -0.006  0.130157  -0.007265  3.985605  -0.004  0.015683  0.113881  -0.015489  3.953543  -0.009
C  C91  1  0.35753884  0.74689069  0.01253268  1  0.108837  -0.027729  3.737908  -0.019  0.119861  -0.010144  3.966533  -0.006  0.128305  -0.007277  3.986863  -0.004  0.015237  0.112048  -0.015513  3.954729  -0.01
C  C92  1  0.22852846  0.69156239  0.49043801  1  -0.15072  0.011664  3.680814  0.017  -0.169099  0.003434  3.92739  0.006  -0.17782  0.002963  3.947366  0.005  -0.07917  -0.163314  0.003964  3.915936  0.007
C  C93  1  0.53747208  0.30873018  0.00942917  1  -0.149178  0.01165  3.680476  0.017  -0.16723  0.003435  3.92683  0.006  -0.176008  0.002962  3.946865  0.005  -0.078143  -0.1614  0.003962  3.915314  0.007
C  C94  1  0.77146338  0.30843305  0.50956330  1  -0.150508  0.011667  3.68071  0.017  -0.168911  0.003435  3.92732  0.006  -0.177635  0.002964  3.947309  0.005  -0.079172  -0.163124  0.003963  3.915853  0.007
C  C95  1  0.46253495  0.69126518  0.99057341  1  -0.149151  0.011635  3.680167  0.017  -0.167217  0.003435  3.926524  0.006  -0.175997  0.002963  3.946567  0.005  -0.078167  -0.161386  0.003963  3.915008  0.007
C  C96  1  0.13967820  0.55625989  0.42416139  1  0.124504  -0.025078  3.699464  -0.017  0.096881  -0.006549  3.958972  -0.003  0.106775  -0.00545  3.975924  -0.003  0.043934  0.088978  -0.008882  3.948167  -0.004
C  C97  1  0.58377468  0.44395231  0.07569198  1  0.1247  -0.025057  3.699808  -0.017  0.097349  -0.006557  3.959259  -0.003  0.107279  -0.005452  3.976121  -0.003  0.043739  0.089438  -0.008898  3.948448  -0.005
C  C98  1  0.86031766  0.44374561  0.57583792  1  0.124349  -0.025082  3.699337  -0.017  0.096762  -0.00655  3.958824  -0.003  0.106651  -0.005446  3.97578  -0.003  0.043907  0.088858  -0.008885  3.94802  -0.004
C  C99  1  0.41623653  0.55604328  0.92430681  1  0.124814  -0.025035  3.699656  -0.017  0.097482  -0.006557  3.959133  -0.003  0.107414  -0.005453  3.975992  -0.003  0.043747  0.089562  -0.008902  3.948332  -0.005
N  N100  1  0.20004706  0.47173932  0.37895020  1  -0.334469  0.049884  3.346506  0.079  -0.285965  0.032176  3.647731  0.044  -0.313729  0.025136  3.66361  0.034  -0.346367  -0.263663  0.038628  3.634787  0.053
N  N101  1  0.72856674  0.52833783  0.12105548  1  -0.334829  0.049875  3.346964  0.079  -0.286196  0.032191  3.647827  0.044  -0.31385  0.02515  3.663625  0.034  -0.346402  -0.263858  0.038644  3.634849  0.053
N  N102  1  0.79994590  0.52826244  0.62104931  1  -0.334506  0.04989  3.346435  0.079  -0.285932  0.032175  3.647576  0.044  -0.313695  0.025135  3.663448  0.034  -0.346353  -0.263629  0.038624  3.634634  0.053
N  N103  1  0.27144366  0.47166019  0.87894422  1  -0.334981  0.049866  3.347013  0.079  -0.286407  0.032193  3.647941  0.044  -0.314071  0.02515  3.663738  0.034  -0.346482  -0.264074  0.038645  3.63497  0.053
O  O104  1  0.27042228  0.42321651  0.67296322  1  -0.82112  0.033591  1.8955  0.058  -0.782849  0.029779  2.089535  0.045  -0.81027  0.023991  2.054428  0.037  -0.574209  -0.760541  0.03521  2.115081  0.053
O  O105  1  0.84721175  0.57652768  0.82704185  1  -0.821497  0.033497  1.895693  0.058  -0.783152  0.029707  2.089626  0.045  -0.810658  0.023932  2.054307  0.037  -0.574502  -0.760799  0.035129  2.115325  0.053
O  O106  1  0.72957382  0.57678136  0.32703901  1  -0.821086  0.033589  1.89553  0.058  -0.782745  0.029778  2.089664  0.045  -0.810159  0.023991  2.054567  0.037  -0.574161  -0.760427  0.035208  2.115202  0.053
O  O107  1  0.15278568  0.42347285  0.17295752  1  -0.821514  0.033495  1.895666  0.058  -0.783179  0.029707  2.089586  0.045  -0.810679  0.023931  2.054271  0.037  -0.574522  -0.760824  0.035131  2.115273  0.053
O  O108  1  0.16979219  0.12431349  0.86949859  1  -0.820196  0.020925  1.89374  0.044  -0.789778  0.018985  2.088494  0.037  -0.813809  0.014325  2.054246  0.03  -0.574546  -0.769305  0.023788  2.112848  0.043
O  O109  1  0.04522111  0.87560456  0.63053540  1  -0.821779  0.02096  1.892102  0.044  -0.791157  0.019003  2.087324  0.037  -0.815267  0.014336  2.052802  0.03  -0.575484  -0.770703  0.023813  2.111912  0.043
O  O110  1  0.83019937  0.87567937  0.13050433  1  -0.820276  0.020926  1.893692  0.044  -0.789816  0.018987  2.088435  0.037  -0.813839  0.014326  2.054179  0.03  -0.574567  -0.769347  0.023789  2.1128  0.043
O  O111  1  0.95477875  0.12439473  0.36946382  1  -0.821769  0.02096  1.892128  0.044  -0.79114  0.019003  2.08733  0.037  -0.815247  0.014335  2.052811  0.03  -0.575476  -0.770686  0.023811  2.111917  0.043
O  O112  1  0.30656969  0.16308901  0.71752567  1  -0.643454  0.044735  2.14732  0.072  -0.58653  0.032112  2.41693  0.046  -0.626023  0.02358  2.406156  0.032  -0.314142  -0.554213  0.041555  2.421808  0.061
O  O113  1  0.14360896  0.83682079  0.78246477  1  -0.642235  0.04474  2.146996  0.072  -0.585333  0.032139  2.416433  0.046  -0.625121  0.023607  2.406091  0.032  -0.313987  -0.553014  0.041578  2.421249  0.061
O  O114  1  0.69342569  0.83690537  0.28247234  1  -0.643427  0.044732  2.147405  0.072  -0.586488  0.032111  2.417001  0.046  -0.625977  0.023579  2.406245  0.032  -0.314096  -0.554159  0.041556  2.421863  0.061
O  O115  1  0.85639041  0.16317956  0.21753775  1  -0.64228  0.044741  2.147185  0.072  -0.585453  0.032143  2.416624  0.046  -0.625244  0.02361  2.40629  0.032  -0.314015  -0.553118  0.041583  2.42143  0.061
O  O116  1  0.54157415  0.35753346  0.78857640  1  -0.616729  0.001395  1.971927  0.002  -0.569056  0.003342  2.20889  0.005  -0.595289  0.002387  2.199405  0.003  -0.300497  -0.549078  0.004636  2.213662  0.007
O  O117  1  0.18472810  0.64291010  0.71127688  1  -0.61645  0.001342  1.972426  0.002  -0.568579  0.003293  2.209756  0.005  -0.594756  0.002349  2.200183  0.003  -0.300704  -0.548594  0.00457  2.214467  0.007
O  O118  1  0.45842484  0.64246816  0.21142564  1  -0.616692  0.001399  1.971919  0.002  -0.569033  0.00334  2.208886  0.005  -0.595265  0.002386  2.199404  0.003  -0.300526  -0.549054  0.004634  2.213654  0.007
O  O119  1  0.81527865  0.35709690  0.28871815  1  -0.616456  0.001337  1.972485  0.002  -0.568615  0.003293  2.209805  0.005  -0.594778  0.00235  2.200203  0.003  -0.300759  -0.548629  0.004572  2.214522  0.007
O  O120  1  0.98290852  0.20554711  0.75783979  1  -0.622014  0.053225  2.063704  0.092  -0.591407  0.03568  2.344567  0.058  -0.632746  0.025447  2.336577  0.042  -0.314185  -0.556165  0.046877  2.346648  0.075
O  O121  1  0.77753691  0.79451543  0.74220086  1  -0.622251  0.053227  2.0601  0.092  -0.591848  0.035671  2.340699  0.058  -0.633174  0.025428  2.332502  0.042  -0.314953  -0.556659  0.046874  2.342875  0.075
O  O122  1  0.01708779  0.79444713  0.24216075  1  -0.622124  0.053223  2.063844  0.092  -0.59145  0.035682  2.344728  0.058  -0.632782  0.025448  2.336732  0.042  -0.314172  -0.556205  0.046876  2.346815  0.075
O  O123  1  0.22246253  0.20548506  0.25779913  1  -0.622227  0.053223  2.060151  0.092  -0.591795  0.035668  2.340773  0.058  -0.633118  0.025424  2.332579  0.041  -0.314933  -0.556608  0.04687  2.342954  0.075
O  O124  1  0.98990564  0.12648370  0.61499297  1  -0.640717  0.003242  1.924827  0.006  -0.589406  0.004087  2.134088  0.007  -0.61447  0.002654  2.122802  0.005  -0.319677  -0.571336  0.00524  2.140911  0.009
O  O125  1  0.86362766  0.87333914  0.88506606  1  -0.640913  0.003237  1.924591  0.006  -0.590025  0.00408  2.133534  0.007  -0.615101  0.00265  2.122228  0.005  -0.319639  -0.571977  0.005239  2.140413  0.009
O  O126  1  0.01009233  0.87351791  0.38500907  1  -0.640754  0.003246  1.924792  0.006  -0.589422  0.004088  2.134067  0.007  -0.614485  0.002656  2.12278  0.005  -0.319682  -0.571359  0.005241  2.140902  0.009
O  O127  1  0.13635767  0.12664126  0.11493732  1  -0.640936  0.003234  1.924493  0.006  -0.590015  0.004081  2.133478  0.007  -0.615093  0.002652  2.12217  0.005  -0.319684  -0.571967  0.005239  2.140361  0.009
