# generated using pymatgen
data_AlH11C14N4O5
_symmetry_space_group_name_H-M   'P 1'
_cell_length_a   6.68899594
_cell_length_b   16.88203273
_cell_length_c   16.88210365
_cell_angle_alpha   84.91200924
_cell_angle_beta   83.85642001
_cell_angle_gamma   83.85810268
_symmetry_Int_Tables_number   1
_chemical_formula_structural   AlH11C14N4O5
_chemical_formula_sum   'Al2 H22 C28 N8 O10'
_cell_volume   1878.80272612
_cell_formula_units_Z   2
loop_
 _symmetry_equiv_pos_site_id
 _symmetry_equiv_pos_as_xyz
  1  'x, y, z'
loop_
 _atom_site_type_symbol
 _atom_site_label
 _atom_site_symmetry_multiplicity
 _atom_site_fract_x
 _atom_site_fract_y
 _atom_site_fract_z
 _atom_site_occupancy
 _atom_site_pbe_bader_charge
 _atom_site_pbe_bader_spin_density
 _atom_site_pbe_cm5_charge
 _atom_site_pbe_ddec_charge
 _atom_site_pbe_ddec_spin_density
 _atom_site_pbe_ddec_sum_bond_order
 _atom_site_pbe_magmom
Al  Al0  1  0.50058941  0.50187348  0.49640196  1  2.507089  0  0.3967  1.652071  0  2.579386  0
Al  Al1  1  0.99941008  0.50359439  0.49812282  1  2.507191  0  0.39672  1.65204  0  2.579429  0
H  H2  1  0.74999014  0.42389138  0.57610912  1  0.588004  0  0.352447  0.425083  0  0.859584  0
H  H3  1  0.25001301  0.58091778  0.41908215  1  0.622248  0  0.356765  0.434253  0  0.844683  0
H  H4  1  0.38776449  0.73960119  0.46130346  1  0.083947  0  0.103454  0.102151  0  1.017755  0
H  H5  1  0.31657723  0.88887447  0.45970622  1  0.100501  0  0.099914  0.107448  0  1.033524  0
H  H6  1  0.90407334  0.90125215  0.53655979  1  0.089634  0  0.108224  0.121937  0  1.004314  0
H  H7  1  0.07128141  0.09924535  0.53080548  1  0.09675  0  0.109297  0.122657  0  1.003125  0
H  H8  1  0.69748450  0.12152308  0.45315449  1  0.090734  0  0.101385  0.108918  0  1.03071  0
H  H9  1  0.62658543  0.27108641  0.45128505  1  0.091839  0  0.106947  0.108942  0  1.01084  0
H  H10  1  0.87341014  0.54870945  0.72891389  1  0.09166  0  0.106971  0.108953  0  1.010942  0
H  H11  1  0.80250684  0.54684546  0.87847629  1  0.090687  0  0.101377  0.108857  0  1.030705  0
H  H12  1  0.42870743  0.46920412  0.90074944  1  0.096923  0  0.109223  0.122585  0  1.003145  0
H  H13  1  0.59592564  0.46343420  0.09875436  1  0.089965  0  0.108254  0.121964  0  1.004269  0
H  H14  1  0.18342736  0.54029738  0.11111684  1  0.100397  0  0.099931  0.107459  0  1.033423  0
H  H15  1  0.11224833  0.53869823  0.26039050  1  0.0839  0  0.103414  0.102113  0  1.017869  0
H  H16  1  0.04805008  0.68671642  0.54197796  1  0.506709  0  0.311028  0.325052  0  0.964052  0
H  H17  1  0.11850067  0.78059207  0.55897055  1  0.44655  0  0.310201  0.308801  0  0.950486  0
H  H18  1  0.92485932  0.31306704  0.52029001  1  0.504404  0  0.30514  0.307656  0  0.993693  0
H  H19  1  0.84403658  0.21778498  0.54255155  1  0.4393  0  0.306266  0.303752  0  0.96119  0
H  H20  1  0.57514106  0.47971381  0.68692988  1  0.504289  0  0.305167  0.307662  0  0.993713  0
H  H21  1  0.65595339  0.45745825  0.78221083  1  0.439531  0  0.306274  0.303744  0  0.961275  0
H  H22  1  0.45196323  0.45802294  0.31328777  1  0.506567  0  0.311034  0.325095  0  0.964118  0
H  H23  1  0.38149721  0.44102909  0.21942099  1  0.446716  0  0.3102  0.30886  0  0.950432  0
C  C24  1  0.21094897  0.50544456  0.64260562  1  1.514372  0  0.260017  0.654357  0  4.082769  0
C  C25  1  0.28903306  0.35739278  0.49454358  1  1.514396  0  0.260047  0.654473  0  4.082993  0
C  C26  1  0.79071261  0.50019432  0.35218885  1  1.481116  0  0.25998  0.652294  0  4.0884  0
C  C27  1  0.70930893  0.64780815  0.49980656  1  1.481005  0  0.260175  0.652551  0  4.088096  0
C  C28  1  0.68113323  0.73535793  0.50179628  1  0.020607  0  -0.034871  -0.184262  0  3.928845  0
C  C29  1  0.49752703  0.77593946  0.47940958  1  -0.084494  0  -0.088607  -0.064092  0  4.046678  0
C  C30  1  0.45671346  0.85783803  0.47856370  1  -0.004169  0  -0.113828  -0.211658  0  4.022331  0
C  C31  1  0.60711039  0.90228277  0.50035287  1  0.336177  0  0.087575  0.199163  0  4.079314  0
C  C32  1  0.79113961  0.86449625  0.52133319  1  -0.030438  0  -0.092114  -0.263958  0  3.883447  0
C  C33  1  0.83304178  0.78041561  0.52374516  1  0.505125  0  0.116808  0.323338  0  4.069636  0
C  C34  1  0.19218343  0.13802853  0.51458542  1  0.011165  0  -0.09117  -0.262561  0  3.881739  0
C  C35  1  0.38712174  0.10282793  0.49549151  1  0.299591  0  0.088609  0.201713  0  4.077485  0
C  C36  1  0.54829510  0.15023739  0.47165906  1  -0.062766  0  -0.113374  -0.210554  0  4.020201  0
C  C37  1  0.50779080  0.23220614  0.47063277  1  -0.050613  0  -0.088425  -0.069401  0  4.046343  0
C  C38  1  0.31333529  0.26974446  0.49268799  1  0.06068  0  -0.033509  -0.181395  0  3.927131  0
C  C39  1  0.14938259  0.22187969  0.51375273  1  0.433078  0  0.115827  0.323972  0  4.061663  0
C  C40  1  0.18666138  0.50730648  0.73025255  1  0.061021  0  -0.033464  -0.181172  0  3.927067  0
C  C41  1  0.99219899  0.52936303  0.76779241  1  -0.050311  0  -0.088418  -0.069481  0  4.046413  0
C  C42  1  0.95169682  0.52833946  0.84975974  1  -0.062995  0  -0.113388  -0.210405  0  4.020433  0
C  C43  1  0.11286040  0.50451411  0.89716700  1  0.298845  0  0.088415  0.201284  0  4.077912  0
C  C44  1  0.30780564  0.48542006  0.86196530  1  0.011835  0  -0.090968  -0.262179  0  3.881712  0
C  C45  1  0.35060608  0.48624912  0.77811521  1  0.432734  0  0.115834  0.323845  0  4.061843  0
C  C46  1  0.70885577  0.47866196  0.13550871  1  -0.030266  0  -0.092214  -0.264091  0  3.883369  0
C  C47  1  0.89289147  0.49964756  0.09771721  1  0.335645  0  0.087567  0.199264  0  4.079159  0
C  C48  1  0.04328823  0.52143590  0.14215553  1  -0.004193  0  -0.113868  -0.211728  0  4.022425  0
C  C49  1  0.00249198  0.52059036  0.22405622  1  -0.084698  0  -0.088562  -0.064075  0  4.04659  0
C  C50  1  0.81887789  0.49820232  0.26464200  1  0.021214  0  -0.034683  -0.183983  0  3.92882  0
C  C51  1  0.66696355  0.47625239  0.21958852  1  0.504688  0  0.116792  0.323291  0  4.069981  0
N  N52  1  0.58698306  0.98659457  0.50044978  1  -0.485722  0  -0.145523  -0.129882  0  3.261122  0
N  N53  1  0.40693359  0.01836801  0.49922538  1  -0.464275  0  -0.146236  -0.129687  0  3.266  0
N  N54  1  0.09305863  0.50078066  0.98162562  1  -0.46406  0  -0.146203  -0.129576  0  3.265956  0
N  N55  1  0.91301192  0.49954793  0.01340496  1  -0.485791  0  -0.145477  -0.129922  0  3.261025  0
N  N56  1  0.01183219  0.74602306  0.54775049  1  -1.274004  0  -0.582025  -0.605229  0  3.341983  0
N  N57  1  0.95737386  0.25377856  0.53503831  1  -1.283255  0  -0.590247  -0.607222  0  3.346197  0
N  N58  1  0.54261989  0.46496282  0.74621632  1  -1.283295  0  -0.590343  -0.607272  0  3.3463  0
N  N59  1  0.48817260  0.45224239  0.25398715  1  -1.273519  0  -0.582045  -0.605354  0  3.342128  0
O  O60  1  0.39044370  0.50372823  0.60630600  1  -1.266198  0  -0.240053  -0.607502  0  2.362049  0
O  O61  1  0.10955271  0.39369008  0.49625701  1  -1.266319  0  -0.240092  -0.607601  0  2.362133  0
O  O62  1  0.94528744  0.50695569  0.38866791  1  -1.267202  0  -0.246021  -0.610321  0  2.349431  0
O  O63  1  0.55472138  0.61132815  0.49304288  1  -1.266993  0  -0.246188  -0.610583  0  2.349248  0
O  O64  1  0.61147357  0.49600968  0.38743727  1  -1.273472  0  -0.240363  -0.610287  0  2.377229  0
O  O65  1  0.88854264  0.61256155  0.50399076  1  -1.273258  0  -0.240365  -0.610258  0  2.377369  0
O  O66  1  0.05141514  0.50450499  0.60744031  1  -1.266657  0  -0.245746  -0.609253  0  2.35585  0
O  O67  1  0.44857911  0.39255691  0.49548445  1  -1.26646  0  -0.245725  -0.60923  0  2.355985  0
O  O68  1  0.75000451  0.46634969  0.53364307  1  -1.395778  0  -0.449652  -0.9927  0  2.209627  0
O  O69  1  0.25000406  0.53846038  0.46153781  1  -1.427627  0  -0.450216  -1.000722  0  2.212981  0
