# generated using pymatgen
data_ZnH16C28SN3O7
_symmetry_space_group_name_H-M   'P 1'
_cell_length_a   11.76265931
_cell_length_b   16.66237937
_cell_length_c   16.97058217
_cell_angle_alpha   90.00540167
_cell_angle_beta   90.53182938
_cell_angle_gamma   89.32840579
_symmetry_Int_Tables_number   1
_chemical_formula_structural   ZnH16C28SN3O7
_chemical_formula_sum   'Zn2 H32 C56 S2 N6 O14'
_cell_volume   3325.75867652
_cell_formula_units_Z   2
loop_
 _symmetry_equiv_pos_site_id
 _symmetry_equiv_pos_as_xyz
  1  'x, y, z'
loop_
 _atom_site_type_symbol
 _atom_site_label
 _atom_site_symmetry_multiplicity
 _atom_site_fract_x
 _atom_site_fract_y
 _atom_site_fract_z
 _atom_site_occupancy
 _atom_site_pbe_bader_charge
 _atom_site_pbe_bader_spin_density
 _atom_site_pbe_cm5_charge
 _atom_site_pbe_ddec_charge
 _atom_site_pbe_ddec_spin_density
 _atom_site_pbe_ddec_sum_bond_order
 _atom_site_pbe_magmom
Zn  Zn0  1  0.61390829  0.99833837  0.50075887  1  1.285423  0  0.661053  0.800451  0  2.471943  0
Zn  Zn1  1  0.38621478  0.00159655  0.49955273  1  1.267311  0  0.660836  0.799708  0  2.472409  0
H  H2  1  0.18044459  0.10820202  0.50189817  1  0.17045  0  0.135493  0.112572  0  0.994714  0
H  H3  1  0.23682648  0.86280275  0.50232343  1  0.185309  0  0.141338  0.131407  0  0.979295  0
H  H4  1  0.81973576  0.89178433  0.50422025  1  0.171193  0  0.135504  0.112532  0  0.995096  0
H  H5  1  0.76342212  0.13718127  0.50168815  1  0.184892  0  0.141322  0.13111  0  0.980066  0
H  H6  1  0.31323267  0.28393824  0.20846672  1  0.071657  0  0.102949  0.106234  0  0.991654  0
H  H7  1  0.68492304  0.71481437  0.21160551  1  0.070486  0  0.103181  0.106965  0  0.990766  0
H  H8  1  0.32068951  0.71791156  0.78360880  1  0.080848  0  0.105005  0.108937  0  0.987923  0
H  H9  1  0.68108384  0.28273787  0.78524617  1  0.070402  0  0.104961  0.108714  0  0.988695  0
H  H10  1  0.68642771  0.71387331  0.78785489  1  0.077513  0  0.105092  0.108733  0  0.988146  0
H  H11  1  0.31532387  0.28752927  0.78428456  1  0.083362  0  0.10511  0.109311  0  0.988198  0
H  H12  1  0.67865687  0.28293622  0.21786048  1  0.089677  0  0.105191  0.108951  0  0.988257  0
H  H13  1  0.31952011  0.71613886  0.21641710  1  0.070056  0  0.10509  0.108624  0  0.987844  0
H  H14  1  0.31082848  0.17882509  0.31415426  1  0.097733  0  0.096864  0.097215  0  1.014766  0
H  H15  1  0.68764227  0.81946057  0.31780665  1  0.098138  0  0.096559  0.097096  0  1.015758  0
H  H16  1  0.32284182  0.82210642  0.67759408  1  0.114773  0  0.102394  0.106666  0  1.00325  0
H  H17  1  0.67874764  0.17906641  0.67865634  1  0.066011  0  0.102136  0.106237  0  1.00258  0
H  H18  1  0.68784386  0.81790913  0.68156900  1  0.125709  0  0.104082  0.112397  0  0.998106  0
H  H19  1  0.31376522  0.18400185  0.67752946  1  0.096201  0  0.103979  0.11227  0  0.998009  0
H  H20  1  0.67520988  0.17824261  0.32344510  1  0.12016  0  0.102837  0.106969  0  1.001446  0
H  H21  1  0.32325585  0.82033071  0.32255779  1  0.080083  0  0.103033  0.107091  0  1.001099  0
H  H22  1  0.49776620  0.41843319  0.30095697  1  0.091502  0  0.102162  0.120694  0  1.014837  0
H  H23  1  0.49885420  0.58039837  0.30119558  1  0.08083  0  0.102163  0.120555  0  1.015989  0
H  H24  1  0.50269486  0.58154496  0.69864978  1  0.088952  0  0.10401  0.122929  0  1.011471  0
H  H25  1  0.50099971  0.41952997  0.69837694  1  0.092206  0  0.103949  0.122661  0  1.012942  0
H  H26  1  0.49723089  0.19251209  0.07864710  1  0.105734  0  0.109696  0.130446  0  1.002356  0
H  H27  1  0.50172845  0.80708295  0.07989482  1  0.088602  0  0.109612  0.130485  0  1.001138  0
H  H28  1  0.50255534  0.80733343  0.92059451  1  0.091008  0  0.11094  0.131668  0  1.000453  0
H  H29  1  0.49800972  0.19294323  0.91934716  1  0.078828  0  0.110543  0.131057  0  0.999383  0
H  H30  1  0.49908768  0.43451226  0.99963218  1  0.493652  0  0.310217  0.263741  0  1.011616  0
H  H31  1  0.50063389  0.56542032  0.99971564  1  0.494217  0  0.310365  0.263704  0  1.011817  0
H  H32  1  0.10705716  0.24040904  0.42072339  1  0.652374  0  0.363335  0.417211  0  0.821612  0
H  H33  1  0.89115100  0.75827993  0.42382582  1  0.636323  0  0.363007  0.416907  0  0.822188  0
C  C34  1  0.49519016  0.11293244  0.60846561  1  1.533585  0  0.215385  0.594561  0  4.164079  0
C  C35  1  0.49088344  0.11067834  0.38916242  1  1.525328  0  0.21471  0.596493  0  4.163682  0
C  C36  1  0.50777614  0.88772755  0.39061969  1  1.534592  0  0.214094  0.596065  0  4.164085  0
C  C37  1  0.50630758  0.88856039  0.60996086  1  1.517396  0  0.21512  0.595873  0  4.163656  0
C  C38  1  0.14170823  0.04912780  0.50086294  1  0.567112  0  0.095506  0.095765  0  3.810164  0
C  C39  1  0.17271239  0.91050932  0.50161253  1  0.479514  0  0.074012  0.095888  0  3.863657  0
C  C40  1  0.05804173  0.89502844  0.50266682  1  -0.101015  0  0.00204  -0.154616  0  3.912265  0
C  C41  1  0.97831743  0.96003984  0.50218843  1  0.070469  0  0.023989  0.05294  0  3.950359  0
C  C42  1  0.85844553  0.95083104  0.50231967  1  0.55847  0  0.095209  0.096295  0  3.810005  0
C  C43  1  0.82750256  0.08945433  0.50131818  1  0.48201  0  0.073956  0.095326  0  3.863597  0
C  C44  1  0.94218902  0.10493337  0.50149728  1  -0.101904  0  0.00197  -0.152722  0  3.908582  0
C  C45  1  0.02187482  0.03989377  0.50147991  1  0.005613  0  0.023984  0.05252  0  3.949889  0
C  C46  1  0.39250580  0.26073989  0.23395165  1  -0.03642  0  -0.092128  -0.144302  0  3.992013  0
C  C47  1  0.60572697  0.73800337  0.23620187  1  -0.034411  0  -0.092495  -0.145317  0  3.992658  0
C  C48  1  0.40111124  0.74019571  0.76138585  1  -0.072438  0  -0.089822  -0.142195  0  3.985945  0
C  C49  1  0.60062060  0.26078105  0.76173853  1  -0.048899  0  -0.089686  -0.1419  0  3.987557  0
C  C50  1  0.60677489  0.73792750  0.76375646  1  -0.051195  0  -0.089758  -0.141164  0  3.983779  0
C  C51  1  0.39495044  0.26347355  0.76116751  1  -0.026552  0  -0.089969  -0.14231  0  3.985527  0
C  C52  1  0.59796331  0.26015093  0.23912509  1  -0.075788  0  -0.088354  -0.139874  0  3.98169  0
C  C53  1  0.40027399  0.73871392  0.23881843  1  -0.046478  0  -0.088463  -0.139435  0  3.980278  0
C  C54  1  0.39084151  0.20260490  0.29287990  1  -0.057637  0  -0.089013  -0.090798  0  4.006489  0
C  C55  1  0.60756328  0.79582977  0.29545922  1  -0.040006  0  -0.089214  -0.091655  0  4.005652  0
C  C56  1  0.40202856  0.79812183  0.70227181  1  -0.068706  0  -0.084246  -0.083218  0  3.985169  0
C  C57  1  0.59960704  0.20318633  0.70227901  1  -0.01163  0  -0.083701  -0.082102  0  3.985327  0
C  C58  1  0.60787689  0.79582601  0.70455730  1  -0.048806  0  -0.083334  -0.084865  0  3.980973  0
C  C59  1  0.39376674  0.20587883  0.70167652  1  -0.122888  0  -0.083612  -0.084143  0  3.980338  0
C  C60  1  0.59634347  0.20193793  0.29798815  1  -0.052021  0  -0.083382  -0.081528  0  3.979809  0
C  C61  1  0.40205547  0.79660754  0.29802955  1  -0.003646  0  -0.083262  -0.081716  0  3.981374  0
C  C62  1  0.49816636  0.43424589  0.16805784  1  0.456935  0  0.087354  0.192122  0  4.072192  0
C  C63  1  0.49926178  0.56497989  0.16824159  1  0.538098  0  0.087214  0.191936  0  4.071873  0
C  C64  1  0.50184002  0.56566204  0.83149893  1  0.463096  0  0.089947  0.194222  0  4.066912  0
C  C65  1  0.50041347  0.43499706  0.83127997  1  0.437468  0  0.089414  0.193584  0  4.065307  0
C  C66  1  0.49805772  0.45866588  0.25062983  1  -0.001204  0  -0.110609  -0.188413  0  3.987999  0
C  C67  1  0.49876314  0.54031948  0.25074086  1  -0.17494  0  -0.10956  -0.1862  0  3.987502  0
C  C68  1  0.50208175  0.54126366  0.74891877  1  -0.000192  0  -0.107213  -0.183799  0  3.97966  0
C  C69  1  0.50117222  0.45966047  0.74878021  1  -0.153577  0  -0.106415  -0.182807  0  3.979973  0
C  C70  1  0.49788481  0.32600259  0.06594072  1  0.419422  0  0.100875  0.186959  0  4.02475  0
C  C71  1  0.50114268  0.67364128  0.06656878  1  0.355828  0  0.100382  0.18665  0  4.026345  0
C  C72  1  0.50180030  0.67392095  0.93346009  1  0.442123  0  0.101011  0.186371  0  4.024389  0
C  C73  1  0.49868737  0.32630628  0.93282096  1  0.325864  0  0.10134  0.185568  0  4.024843  0
C  C74  1  0.49757602  0.24409772  0.03966215  1  -0.116788  0  -0.100351  -0.185322  0  3.982993  0
C  C75  1  0.50178427  0.75566962  0.04067919  1  0.036174  0  -0.099925  -0.184634  0  3.980603  0
C  C76  1  0.50213954  0.75582222  0.95966986  1  -0.130974  0  -0.098925  -0.182495  0  3.979739  0
C  C77  1  0.49802673  0.24428814  0.95865035  1  0.067445  0  -0.098288  -0.18082  0  3.977617  0
C  C78  1  0.49757295  0.35332226  0.14405603  1  -0.002007  0  -0.000914  -0.082635  0  3.93999  0
C  C79  1  0.50053937  0.64598243  0.14454176  1  0.006322  0  -0.000522  -0.084024  0  3.943201  0
C  C80  1  0.50236218  0.64660308  0.85537370  1  -0.031716  0  0.002328  -0.077113  0  3.93612  0
C  C81  1  0.49926668  0.35397652  0.85484315  1  0.040149  0  0.002138  -0.07612  0  3.933799  0
C  C82  1  0.49609772  0.29038260  0.20666171  1  -0.030492  0  0.00112  0.096869  0  4.012028  0
C  C83  1  0.50206159  0.70861628  0.20744966  1  -0.087112  0  0.001095  0.097437  0  4.012368  0
C  C84  1  0.50346468  0.70943831  0.79264597  1  -0.019183  0  -0.000148  0.092766  0  4.01664  0
C  C85  1  0.49829692  0.29151973  0.79174000  1  -0.057259  0  0.000534  0.092521  0  4.01703  0
C  C86  1  0.49272213  0.17289600  0.32558678  1  -0.022737  0  -0.022709  -0.042136  0  3.981381  0
C  C87  1  0.50575106  0.82545624  0.32705587  1  -0.004506  0  -0.022487  -0.041211  0  3.980203  0
C  C88  1  0.50542950  0.82631752  0.67338095  1  0.012711  0  -0.022353  -0.043984  0  3.983256  0
C  C89  1  0.49617930  0.17529379  0.67182281  1  0.101157  0  -0.022603  -0.044355  0  3.983749  0
S  S90  1  0.98229987  0.20815489  0.50549577  1  3.073581  0  0.551247  1.152663  0  6.013512  0
S  S91  1  0.01808445  0.79187625  0.50816909  1  3.07976  0  0.550841  1.152613  0  6.013001  0
N  N92  1  0.21216107  0.98688305  0.50039728  1  -1.224259  0  -0.297153  -0.146299  0  3.486027  0
N  N93  1  0.78799080  0.01307884  0.50138348  1  -1.216975  0  -0.297016  -0.146649  0  3.486881  0
N  N94  1  0.49886238  0.49967954  0.11907747  1  -1.150872  0  -0.354351  -0.418397  0  3.185625  0
N  N95  1  0.50086224  0.50025480  0.88050973  1  -1.138908  0  -0.354484  -0.42028  0  3.18423  0
N  N96  1  0.49867195  0.37324730  0.99950159  1  -1.224761  0  -0.377309  -0.262607  0  3.598729  0
N  N97  1  0.50104983  0.62668528  0.99991695  1  -1.227231  0  -0.377025  -0.261726  0  3.597495  0
O  O98  1  0.59118827  0.08758876  0.58362012  1  -1.173484  0  -0.320179  -0.555744  0  2.333279  0
O  O99  1  0.39857203  0.08890558  0.58376326  1  -1.163705  0  -0.320755  -0.543533  0  2.311219  0
O  O100  1  0.39392549  0.08881364  0.41401507  1  -1.162243  0  -0.325133  -0.552234  0  2.305132  0
O  O101  1  0.58662519  0.08377800  0.41402164  1  -1.167691  0  -0.31879  -0.553658  0  2.330711  0
O  O102  1  0.41213089  0.91470500  0.41436341  1  -1.165686  0  -0.318867  -0.553411  0  2.328642  0
O  O103  1  0.60482597  0.90972271  0.41643354  1  -1.167865  0  -0.324795  -0.552868  0  2.307339  0
O  O104  1  0.60282748  0.91249393  0.58623703  1  -1.157412  0  -0.320966  -0.543958  0  2.310074  0
O  O105  1  0.41020950  0.91376341  0.58394477  1  -1.168741  0  -0.319436  -0.556202  0  2.336791  0
O  O106  1  0.02972939  0.21926546  0.41701910  1  -1.19049  0  -0.358604  -0.536919  0  2.104969  0
O  O107  1  0.88004849  0.25477306  0.51246217  1  -1.267663  0  -0.285019  -0.483389  0  2.110213  0
O  O108  1  0.07662345  0.21715794  0.55937338  1  -1.275286  0  -0.302224  -0.524499  0  2.111838  0
O  O109  1  0.96831505  0.77949096  0.41985836  1  -1.179673  0  -0.358208  -0.536608  0  2.106642  0
O  O110  1  0.12058390  0.74540646  0.51577682  1  -1.267185  0  -0.285245  -0.483356  0  2.110153  0
O  O111  1  0.92525687  0.78363148  0.56220001  1  -1.27858  0  -0.301807  -0.523987  0  2.109577  0
