# generated using pymatgen
data_Co2H78C64N4O13
_symmetry_space_group_name_H-M   'P 1'
_cell_length_a   11.96243989
_cell_length_b   12.78200653
_cell_length_c   20.48592773
_cell_angle_alpha   89.95203797
_cell_angle_beta   89.97343168
_cell_angle_gamma   89.62573397
_symmetry_Int_Tables_number   1
_chemical_formula_structural   Co2H78C64N4O13
_chemical_formula_sum   'Co4 H156 C128 N8 O26'
_cell_volume   3132.31172821
_cell_formula_units_Z   2
loop_
 _symmetry_equiv_pos_site_id
 _symmetry_equiv_pos_as_xyz
  1  'x, y, z'
loop_
 _atom_site_type_symbol
 _atom_site_label
 _atom_site_symmetry_multiplicity
 _atom_site_fract_x
 _atom_site_fract_y
 _atom_site_fract_z
 _atom_site_occupancy
 _atom_site_pbe_bader_charge
 _atom_site_pbe_bader_spin_density
 _atom_site_pbe_cm5_charge
 _atom_site_pbe_ddec_charge
 _atom_site_pbe_ddec_spin_density
 _atom_site_pbe_ddec_sum_bond_order
 _atom_site_pbe_magmom
Co  Co0  1  0.30453730  0.88496398  0.82494736  1  1.318931  2.637597  0.68396  0.934947  2.860067  2.516255  2.621
Co  Co1  1  0.80471110  0.38573932  0.17278505  1  1.308665  2.61175  0.677945  0.918042  2.8333  2.527231  2.596
Co  Co2  1  0.16713442  0.88765261  0.67171308  1  1.311335  2.614846  0.677729  0.920847  2.836875  2.514203  2.599
Co  Co3  1  0.66707725  0.38677565  0.32624815  1  1.313934  2.628142  0.675446  0.928343  2.850585  2.501016  2.612
H  H4  1  0.17942754  0.03441044  0.75421255  1  0.64205  0.000414  0.286154  0.377825  0.000286  0.972754  0.001
H  H5  1  0.67559495  0.53392011  0.24474779  1  0.635247  2.8e-05  0.286125  0.377358  -0.000151  0.973477  0.0
H  H6  1  0.31564142  0.02961368  0.74174011  1  0.649014  0.000402  0.284548  0.371642  0.000319  0.98082  0.001
H  H7  1  0.81160941  0.52937909  0.25746822  1  0.635949  0.000873  0.285835  0.373436  0.000718  0.976838  0.002
H  H8  1  0.17921877  0.39965319  0.58725391  1  0.640603  -3e-06  0.284711  0.332664  -5e-06  1.008994  0.0
H  H9  1  0.67887160  0.89982150  0.41257300  1  0.63902  -2e-06  0.284612  0.333138  -1e-06  1.009128  0.0
H  H10  1  0.29438125  0.33534267  0.67745324  1  0.602092  -5e-06  0.321582  0.353488  -8e-06  0.901985  0.0
H  H11  1  0.79435019  0.83530403  0.32261304  1  0.569213  2e-06  0.321883  0.353975  -1e-06  0.901709  0.0
H  H12  1  0.69396519  0.76014555  0.87858296  1  0.572376  -4e-06  0.314083  0.348638  -1.5e-05  0.903956  0.0
H  H13  1  0.19406580  0.26047443  0.12196681  1  0.573771  -1.4e-05  0.314223  0.348752  -3e-05  0.904424  0.0
H  H14  1  0.87228486  0.01561375  0.88823151  1  0.585618  -3e-06  0.311838  0.344133  -2.5e-05  0.912576  0.0
H  H15  1  0.37168063  0.51564040  0.11223851  1  0.590304  -2e-06  0.311713  0.343895  -2.7e-05  0.913305  0.0
H  H16  1  0.83419647  0.19116770  0.70930410  1  -0.004929  6.3e-05  0.08662  0.082341  4e-06  1.013027  0.0
H  H17  1  0.33325470  0.69225276  0.29076750  1  0.003575  5.6e-05  0.086711  0.082059  5e-06  1.01355  0.0
H  H18  1  0.94591463  0.27229326  0.73422162  1  0.049032  1.7e-05  0.091015  0.095615  9e-06  0.999687  0.0
H  H19  1  0.44534371  0.77290490  0.26579572  1  0.043448  1.1e-05  0.090697  0.095249  0.0  0.999192  0.0
H  H20  1  0.12039795  0.28193965  0.66658454  1  0.013284  2.8e-05  0.089706  0.085778  1.2e-05  1.018224  0.0
H  H21  1  0.61980777  0.78198841  0.33338852  1  0.01772  5e-06  0.089796  0.085778  -1.1e-05  1.016441  0.0
H  H22  1  0.13660440  0.20594552  0.59427644  1  0.039332  2.4e-05  0.088923  0.096694  -7.5e-05  1.00257  0.0
H  H23  1  0.63553378  0.70578558  0.40574132  1  0.026806  1.4e-05  0.089405  0.097578  -7.3e-05  1.00038  0.0
H  H24  1  0.85255620  0.08026771  0.60714724  1  0.021177  2.1e-05  0.08658  0.084421  -6e-06  0.985544  0.0
H  H25  1  0.35109962  0.58123073  0.39325076  1  0.016512  8.6e-05  0.086524  0.084266  3.8e-05  0.984723  0.0
H  H26  1  0.97603645  0.08563268  0.56003106  1  0.028  0.000189  0.086217  0.081758  7.1e-05  1.028204  0.0
H  H27  1  0.47469125  0.58641360  0.44021383  1  0.024794  2.1e-05  0.086983  0.083443  -3.7e-05  1.027424  0.0
H  H28  1  0.99178097  0.43672566  0.66774255  1  0.008399  6e-06  0.087963  0.091097  2e-06  1.007644  0.0
H  H29  1  0.49179890  0.93722002  0.33207799  1  0.010172  7e-06  0.08792  0.091091  4e-06  1.007412  0.0
H  H30  1  0.91143780  0.46924140  0.59772606  1  0.017042  -4.9e-05  0.08566  0.092707  -7.7e-05  1.006777  0.0
H  H31  1  0.41151880  0.97003466  0.40207169  1  0.011795  -6e-05  0.085536  0.092833  -9.1e-05  1.006627  0.0
H  H32  1  0.79295948  0.37728709  0.68147760  1  0.0078  0.000168  0.086706  0.047733  7.4e-05  1.007786  0.0
H  H33  1  0.29279271  0.87844631  0.31845314  1  0.00882  0.000211  0.086602  0.047652  9.2e-05  1.008595  0.0
H  H34  1  0.71851872  0.23684763  0.60916873  1  -0.024063  -4e-06  0.083206  0.077301  -1e-06  0.999565  0.0
H  H35  1  0.21770884  0.73822399  0.39089050  1  -0.017444  3e-06  0.08327  0.077471  3e-06  0.999105  0.0
H  H36  1  0.74996513  0.35002658  0.56266892  1  0.008238  -0.000153  0.081179  0.073159  -0.00018  1.028353  0.0
H  H37  1  0.24940036  0.85131843  0.43727494  1  0.000121  -0.000181  0.081007  0.072621  -0.000219  1.029238  0.0
H  H38  1  0.82419207  0.19013772  0.50767557  1  -0.008363  8e-06  0.085351  0.045466  8e-06  1.012528  0.0
H  H39  1  0.32292858  0.69131396  0.49247298  1  -0.021656  2e-05  0.085097  0.044516  2e-06  1.013396  0.0
H  H40  1  0.92885499  0.35876399  0.49549502  1  0.017678  -6.1e-05  0.086447  0.092837  -9.8e-05  1.012252  0.0
H  H41  1  0.42836176  0.85962471  0.50436943  1  0.024481  -7.7e-05  0.086051  0.091843  -0.000119  1.012964  0.0
H  H42  1  0.02259852  0.25091806  0.49473168  1  -0.006359  8e-06  0.087344  0.087745  -3e-06  1.020842  0.0
H  H43  1  0.52160841  0.75138514  0.50529650  1  0.00174  3e-06  0.087423  0.088178  -6e-06  1.020978  0.0
H  H44  1  0.29203777  0.53147831  0.72680702  1  -0.006865  3e-05  0.087483  0.090709  -3e-05  0.987957  0.0
H  H45  1  0.79261654  0.03223975  0.27314924  1  -0.010962  -2e-05  0.087137  0.090047  -6.1e-05  0.988145  0.0
H  H46  1  0.26261998  0.57970713  0.64747173  1  0.053913  0.000103  0.095223  0.10713  -1.6e-05  1.006595  0.0
H  H47  1  0.76348348  0.08059186  0.35249844  1  0.061117  0.000134  0.095206  0.106962  -5e-06  1.005824  0.0
H  H48  1  0.40478363  0.69761711  0.59043394  1  0.009132  0.000258  0.091697  0.090034  0.000112  1.030152  0.0
H  H49  1  0.90635258  0.19713344  0.40941622  1  0.019944  0.000161  0.091899  0.090836  6.2e-05  1.029754  0.0
H  H50  1  0.53141819  0.73037414  0.62969632  1  0.016422  0.000111  0.091285  0.091982  1.1e-05  0.976522  0.0
H  H51  1  0.03336881  0.22918484  0.37024507  1  0.010799  0.000101  0.090713  0.090594  1.8e-05  0.976862  0.0
H  H52  1  0.57001230  0.66302751  0.74407796  1  0.021854  0.000223  0.088506  0.088091  9.3e-05  1.008247  0.0
H  H53  1  0.07153446  0.16194363  0.25581696  1  0.016731  0.000164  0.088256  0.087412  6e-05  1.00939  0.0
H  H54  1  0.47309657  0.58218743  0.78416348  1  0.022335  -0.000115  0.086034  0.082628  -0.000175  1.010773  0.0
H  H55  1  0.97412060  0.08179427  0.21578280  1  0.027054  -0.000128  0.085879  0.082177  -0.000176  1.011896  0.0
H  H56  1  0.37287648  0.51074398  0.55034431  1  0.05882  8e-06  0.095487  0.105642  -4e-06  0.971847  0.0
H  H57  1  0.87306520  0.01055864  0.44962672  1  0.052634  1.1e-05  0.095195  0.105246  -1e-06  0.971738  0.0
H  H58  1  0.47744623  0.41357679  0.56248199  1  0.02726  -2.7e-05  0.091066  0.096921  -4.9e-05  0.989911  0.0
H  H59  1  0.97685247  0.91262869  0.43747844  1  0.023288  -1.8e-05  0.090475  0.096069  -4.2e-05  0.990531  0.0
H  H60  1  0.56262575  0.59100011  0.54617503  1  0.002186  4.5e-05  0.088678  0.049352  2.2e-05  1.014332  0.0
H  H61  1  0.06347414  0.08945992  0.45375284  1  0.001867  2.4e-05  0.087915  0.04762  0.0  1.015111  0.0
H  H62  1  0.66050642  0.46228688  0.61953753  1  0.039087  -2e-06  0.08801  0.084616  -2e-06  1.031813  0.0
H  H63  1  0.16046129  0.96035322  0.38039744  1  0.046289  8e-06  0.087859  0.084484  2e-06  1.035664  0.0
H  H64  1  0.68225989  0.59190851  0.64718808  1  0.02521  3.5e-05  0.087542  0.085471  1.6e-05  0.98927  0.0
H  H65  1  0.18313510  0.08991129  0.35273217  1  -0.006091  3.5e-05  0.087276  0.085027  1.6e-05  0.987867  0.0
H  H66  1  0.63088413  0.47459869  0.74012889  1  -0.009318  0.000242  0.091732  0.058967  9.3e-05  0.991177  0.0
H  H67  1  0.13112786  0.97306852  0.25983139  1  0.027148  0.000261  0.091641  0.058324  0.000103  0.990964  0.0
H  H68  1  0.44051985  0.39470654  0.74326135  1  0.01134  7e-06  0.087878  0.084399  -1e-06  1.000467  0.0
H  H69  1  0.94009652  0.89451030  0.25672596  1  0.010499  1.4e-05  0.08792  0.084449  7e-06  1.000907  0.0
H  H70  1  0.51815490  0.34573284  0.67571391  1  0.038319  -1e-06  0.095976  0.10703  -4e-06  0.981368  0.0
H  H71  1  0.01723034  0.84488745  0.32430438  1  0.03036  1.6e-05  0.095933  0.107075  8e-06  0.98161  0.0
H  H72  1  0.13719378  0.57687633  0.84898767  1  0.003112  8.5e-05  0.086076  0.082346  1.4e-05  0.993448  0.0
H  H73  1  0.63794422  0.07739875  0.15010352  1  0.029101  -1.7e-05  0.086431  0.08323  -3.9e-05  0.993828  0.0
H  H74  1  0.09788997  0.66779530  0.90956253  1  0.028092  6.5e-05  0.088753  0.086948  -1e-06  1.025447  0.0
H  H75  1  0.59850357  0.16855233  0.08962987  1  0.021687  0.000211  0.088535  0.086278  9.2e-05  1.026473  0.0
H  H76  1  0.03537081  0.57488203  0.73969073  1  0.013787  5.6e-05  0.088363  0.087409  -2.4e-05  0.992159  0.0
H  H77  1  0.53686993  0.07508141  0.25963632  1  -0.003417  7.7e-05  0.088362  0.086939  -1.4e-05  0.992815  0.0
H  H78  1  0.92446170  0.66398398  0.72522349  1  0.064697  8.1e-05  0.089368  0.093481  -2.2e-05  0.99594  0.0
H  H79  1  0.42614535  0.16422587  0.27442883  1  0.043836  0.000117  0.089646  0.093971  -5e-06  0.995828  0.0
H  H80  1  0.93606194  0.79518771  0.88965866  1  -0.000613  -3.2e-05  0.089221  0.095156  -0.00011  0.999399  0.0
H  H81  1  0.43666452  0.29609914  0.11001966  1  0.030012  3.6e-05  0.089111  0.09558  -5.7e-05  0.99968  0.0
H  H82  1  0.86580458  0.79324645  0.81303063  1  0.024146  0.000201  0.090509  0.095296  0.000101  0.992036  0.0
H  H83  1  0.36708856  0.29393973  0.18686818  1  0.023992  0.000258  0.090621  0.095494  0.000124  0.992703  0.0
H  H84  1  0.91061889  0.64747329  0.96956961  1  0.019221  -1.1e-05  0.090617  0.096297  -1.8e-05  1.002059  0.0
H  H85  1  0.41044251  0.14855407  0.03011753  1  0.011123  -3e-06  0.090766  0.096536  -1e-05  1.001659  0.0
H  H86  1  0.82163181  0.54145342  0.95015442  1  0.036591  -2.3e-05  0.088264  0.09168  -6.3e-05  0.997424  0.0
H  H87  1  0.32159019  0.04255154  0.04989801  1  0.006481  -4.7e-05  0.088491  0.092578  -7.4e-05  0.997431  0.0
H  H88  1  0.02426504  0.49088360  0.93603088  1  -0.001483  0.000212  0.086449  0.048391  9.1e-05  0.988674  0.0
H  H89  1  0.52432968  0.99191676  0.06331239  1  0.006944  0.000207  0.086636  0.0485  9.6e-05  0.989163  0.0
H  H90  1  0.01043649  0.42445565  0.82109212  1  0.009855  8e-06  0.086098  0.082681  3e-06  0.989753  0.0
H  H91  1  0.51122541  0.92498471  0.17828615  1  0.002814  2e-06  0.086228  0.083172  -2e-06  0.989376  0.0
H  H92  1  0.88161838  0.40929227  0.86249919  1  0.010845  3e-06  0.086239  0.081171  -6e-06  1.03424  0.0
H  H93  1  0.38211193  0.91008656  0.13723139  1  0.019455  -5e-06  0.086406  0.081753  -1e-05  1.031808  0.0
H  H94  1  0.85086286  0.48539347  0.75142575  1  0.032844  0.000228  0.089432  0.053857  9e-05  1.007178  0.0
H  H95  1  0.35220165  0.98583877  0.24844420  1  -0.000656  0.000182  0.089611  0.05383  7.1e-05  1.007316  0.0
H  H96  1  0.73936469  0.64250225  0.78565106  1  0.020839  1.1e-05  0.088048  0.087578  -2e-06  1.010845  0.0
H  H97  1  0.24057877  0.14308835  0.21458647  1  0.017552  1.1e-05  0.088087  0.087125  -2e-06  1.011504  0.0
H  H98  1  0.72093118  0.53874189  0.84235269  1  0.038467  1.8e-05  0.090341  0.097202  1.3e-05  1.001039  0.0
H  H99  1  0.22173177  0.03961274  0.15787803  1  0.024297  7e-06  0.09046  0.097447  7e-06  0.999399  0.0
H  H100  1  0.44126997  0.23011059  0.88191840  1  0.006342  3.6e-05  0.086873  0.083118  -2e-06  0.988624  0.0
H  H101  1  0.94021105  0.72966610  0.11810498  1  0.005053  3.3e-05  0.086957  0.08311  -3e-06  0.989545  0.0
H  H102  1  0.47140354  0.11695065  0.92912066  1  0.014836  6e-06  0.089423  0.086403  -7.1e-05  1.02154  0.0
H  H103  1  0.97047611  0.61644698  0.07106449  1  0.016355  0.00012  0.089315  0.085622  5e-06  1.021267  0.0
H  H104  1  0.62251896  0.98894092  0.89331080  1  0.029036  8.6e-05  0.090937  0.102116  -3.6e-05  1.006375  0.0
H  H105  1  0.12159101  0.48851916  0.10714348  1  0.022115  0.000175  0.091159  0.102285  3.5e-05  1.006723  0.0
H  H106  1  0.69790561  0.01200393  0.81995144  1  -0.015606  3.7e-05  0.087478  0.090066  -1e-06  0.983664  0.0
H  H107  1  0.19666303  0.51161872  0.18049432  1  -0.016199  4e-05  0.087681  0.090526  -4e-06  0.98244  0.0
H  H108  1  0.65226988  0.17244416  0.75053245  1  0.012958  2.7e-05  0.086158  0.084824  -4e-06  0.997838  0.0
H  H109  1  0.15114978  0.67213422  0.24956990  1  0.011809  3.2e-05  0.086378  0.084979  -6e-06  0.997165  0.0
H  H110  1  0.54768472  0.26100897  0.77635138  1  0.034071  -7e-06  0.086279  0.083785  -1.9e-05  1.039571  0.0
H  H111  1  0.04659165  0.76075238  0.22367866  1  0.031004  1.7e-05  0.086299  0.083839  2e-06  1.04005  0.0
H  H112  1  0.65575478  0.10337519  0.99169460  1  0.023935  -9e-06  0.091576  0.098789  -1.6e-05  0.990892  0.0
H  H113  1  0.15500063  0.60275608  0.00854687  1  0.02335  -1.1e-05  0.091809  0.098973  -1.8e-05  0.990527  0.0
H  H114  1  0.75346777  0.20706611  0.98738220  1  0.016111  -6.4e-05  0.08821  0.093123  -0.000122  1.015416  0.0
H  H115  1  0.25264723  0.70650478  0.01275886  1  0.020265  -8.7e-05  0.088325  0.093425  -0.000144  1.015505  0.0
H  H116  1  0.55637461  0.27553237  0.97889084  1  0.010341  6.8e-05  0.087336  0.047962  4.5e-05  0.999341  0.0
H  H117  1  0.05559209  0.77489089  0.02105514  1  0.0081  7.5e-05  0.087727  0.048665  5.8e-05  0.999292  0.0
H  H118  1  0.70837783  0.37027823  0.91890355  1  -0.005656  -0.000142  0.083674  0.075796  -0.000168  1.021159  0.0
H  H119  1  0.20736840  0.86985420  0.08090669  1  -0.005312  -0.000141  0.083784  0.076245  -0.000167  1.021066  0.0
H  H120  1  0.58061725  0.37816171  0.87533753  1  -0.015924  2.7e-05  0.083065  0.076486  2.6e-05  0.999033  0.0
H  H121  1  0.07956511  0.87765749  0.12451908  1  -0.014775  2.4e-05  0.083097  0.07651  2.3e-05  0.999464  0.0
H  H122  1  0.73854974  0.33109173  0.80024972  1  0.013839  0.00025  0.09009  0.056262  0.000105  0.992177  0.0
H  H123  1  0.23748511  0.83080930  0.19962262  1  0.016558  0.000215  0.090001  0.056169  9.1e-05  0.991958  0.0
H  H124  1  0.83889998  0.15986882  0.81504130  1  0.020923  8e-06  0.089785  0.092329  6e-06  1.01563  0.0
H  H125  1  0.33797540  0.65966211  0.18509354  1  -0.004766  1.9e-05  0.089764  0.092769  1.6e-05  1.015855  0.0
H  H126  1  0.85875491  0.24023665  0.88441213  1  0.014129  -6e-06  0.086956  0.091421  -2.5e-05  1.013533  0.0
H  H127  1  0.35774096  0.73988683  0.11554856  1  -0.005675  -1.9e-05  0.08711  0.09199  -3.2e-05  1.013278  0.0
H  H128  1  0.54408666  0.81977227  0.03108324  1  0.061507  0.001018  0.106539  0.107283  0.000493  1.023845  0.0
H  H129  1  0.04526021  0.31773606  0.96848281  1  0.082759  0.001055  0.106964  0.107985  0.000482  1.023305  0.0
H  H130  1  0.42876608  0.92405291  0.95411111  1  0.064787  0.001802  0.117442  0.087161  0.000352  1.014401  0.001
H  H131  1  0.93047275  0.42227402  0.04535749  1  0.086169  0.001978  0.116463  0.084483  0.000637  1.014914  0.001
H  H132  1  0.32732169  0.66015184  0.85514366  1  0.07615  0.001831  0.117931  0.087534  0.000565  1.016183  0.001
H  H133  1  0.82954919  0.15903985  0.14555776  1  0.107362  0.00166  0.118449  0.087868  0.00034  1.015389  0.001
H  H134  1  0.44253506  0.54369349  0.92494990  1  0.031067  0.001079  0.107325  0.109882  0.0005  1.007084  0.0
H  H135  1  0.94424784  0.04198204  0.07554383  1  0.080647  0.000958  0.107424  0.110285  0.000451  1.006651  0.0
H  H136  1  0.81601125  0.76909911  0.54430985  1  0.084972  0.001023  0.110294  0.119836  0.000477  0.995097  0.0
H  H137  1  0.31681477  0.27017397  0.45604936  1  0.094175  0.001008  0.109842  0.119473  0.000467  0.996148  0.0
H  H138  1  0.92974742  0.87983003  0.61994201  1  0.13208  0.001681  0.122335  0.0996  0.000396  1.000101  0.001
H  H139  1  0.43041369  0.38223425  0.38109536  1  0.138997  0.00175  0.121706  0.098984  0.000536  0.999859  0.001
H  H140  1  0.21833354  0.71622580  0.57717039  1  0.082693  0.001758  0.114865  0.080546  0.000542  1.047234  0.001
H  H141  1  0.71934846  0.21872937  0.42299674  1  0.083522  0.001543  0.115517  0.082277  0.000252  1.047456  0.001
H  H142  1  0.11776441  0.59233421  0.50375605  1  0.106301  0.000934  0.110096  0.121789  0.000435  1.010818  0.0
H  H143  1  0.61891226  0.09353231  0.49605597  1  0.09978  0.000943  0.10985  0.121753  0.000447  1.010627  0.0
H  H144  1  0.51295635  0.45541755  0.99461470  1  0.051678  0.000938  0.108881  0.11316  0.000445  1.016528  0.0
H  H145  1  0.01464973  0.95346508  0.00552780  1  0.093519  0.000923  0.108483  0.112624  0.000462  1.016899  0.0
H  H146  1  0.66772184  0.73341859  0.07299939  1  0.094511  0.001026  0.111066  0.115649  0.000495  0.995435  0.0
H  H147  1  0.16865605  0.23190501  0.92685565  1  0.042529  0.00115  0.110768  0.115439  0.000549  0.996081  0.0
H  H148  1  0.63751573  0.35155070  0.06671873  1  0.057212  0.001785  0.115943  0.083539  0.000514  1.029822  0.001
H  H149  1  0.13903320  0.84990547  0.93292116  1  0.109894  0.001537  0.116274  0.084508  0.000207  1.031176  0.001
H  H150  1  0.77672822  0.61790148  0.14576239  1  0.107603  0.001892  0.119971  0.086455  0.000468  1.014682  0.001
H  H151  1  0.27765348  0.11690943  0.85403076  1  0.103283  0.00189  0.11951  0.086414  0.000593  1.013933  0.001
H  H152  1  0.74233873  0.60517654  0.53288148  1  0.059239  0.000908  0.106535  0.107803  0.000411  1.040551  0.0
H  H153  1  0.24307728  0.10674180  0.46720662  1  0.078357  0.000942  0.107384  0.109086  0.000429  1.037527  0.0
H  H154  1  0.63925452  0.48319958  0.45978085  1  0.095431  0.001642  0.117311  0.082729  0.000277  1.021906  0.001
H  H155  1  0.13935363  0.98559081  0.54044602  1  0.091596  0.001847  0.117038  0.081536  0.000557  1.02233  0.001
H  H156  1  0.91429211  0.44520475  0.33953858  1  0.124607  0.001646  0.124712  0.098782  0.000394  0.986514  0.001
H  H157  1  0.41427188  0.94627411  0.66074779  1  0.117176  0.001566  0.125416  0.099475  0.000235  0.987554  0.001
H  H158  1  0.02793292  0.56752177  0.40560183  1  0.07717  0.000956  0.112829  0.118326  0.000425  0.990561  0.0
H  H159  1  0.52865943  0.06745630  0.59422229  1  0.076599  0.000945  0.112952  0.118946  0.000439  0.990139  0.0
C  C160  1  0.98251840  0.17730988  0.64911427  1  0.013897  0.005517  -0.017888  0.04509  0.002871  3.785425  0.004
C  C161  1  0.48135679  0.67782258  0.35100785  1  0.014101  0.005647  -0.018302  0.045309  0.002978  3.783994  0.004
C  C162  1  0.90135951  0.24218066  0.69128452  1  -0.027537  0.000264  -0.162961  -0.223033  0.000108  3.872472  0.0
C  C163  1  0.40062319  0.74294317  0.30877710  1  -0.036527  0.00056  -0.163821  -0.22309  0.000298  3.873319  0.0
C  C164  1  0.07594383  0.25033314  0.62398316  1  -0.04232  0.000571  -0.164309  -0.280059  0.000243  3.84442  0.0
C  C165  1  0.57513362  0.75047621  0.37601054  1  -0.030246  0.000374  -0.164017  -0.278416  0.000144  3.839365  0.0
C  C166  1  0.91903624  0.13303913  0.59013922  1  -0.029267  0.000556  -0.165792  -0.21992  0.000321  3.895406  0.0
C  C167  1  0.41773641  0.63389000  0.41013820  1  -0.018508  0.000277  -0.1662  -0.220734  0.000112  3.895596  0.0
C  C168  1  0.02693090  0.34020839  0.58330325  1  0.476603  0.00037  0.059423  0.355338  0.000197  3.812447  0.0
C  C169  1  0.52646748  0.84058514  0.41660926  1  0.473042  0.000319  0.059715  0.355186  0.000169  3.812529  0.0
C  C170  1  0.94551178  0.40340813  0.62627874  1  -0.02782  -3.8e-05  -0.170062  -0.271002  -5e-05  3.853821  0.0
C  C171  1  0.44534702  0.90406554  0.37358723  1  -0.025711  -2.4e-05  -0.170136  -0.271505  -3.5e-05  3.85512  0.0
C  C172  1  0.85112434  0.33190150  0.65067072  1  0.009792  0.000376  -0.092416  0.04222  0.000207  3.850914  0.0
C  C173  1  0.35071994  0.83287121  0.34929793  1  0.01075  0.000392  -0.092669  0.04134  0.000216  3.851768  0.0
C  C174  1  0.78751539  0.28671382  0.59204494  1  -0.00333  -6.7e-05  -0.167857  -0.215886  -0.000128  3.907435  0.0
C  C175  1  0.28682236  0.78790826  0.40797706  1  0.012885  -0.000138  -0.168021  -0.216009  -0.000201  3.909397  0.0
C  C176  1  0.86900065  0.22294801  0.54977331  1  0.035294  0.000152  -0.093284  0.041684  4.8e-05  3.857505  0.0
C  C177  1  0.36793883  0.72394247  0.45033535  1  0.026546  0.000116  -0.093972  0.041912  3.1e-05  3.860914  0.0
C  C178  1  0.96297057  0.29452889  0.52539455  1  0.014639  -7.4e-05  -0.169248  -0.260462  -0.000103  3.850854  0.0
C  C179  1  0.46219874  0.79517814  0.47457929  1  0.000366  -7.3e-05  -0.170028  -0.261801  -0.000108  3.852918  0.0
C  C180  1  0.04237385  0.09196602  0.68865044  1  1.547702  0.001568  0.214129  0.57977  0.000363  4.10437  0.002
C  C181  1  0.54106253  0.59174783  0.31196815  1  1.542192  0.00134  0.214206  0.579019  0.000876  4.104279  0.001
C  C182  1  0.41687930  0.64037774  0.68982231  1  0.018619  0.010611  -0.017041  0.045251  0.005577  3.78035  0.008
C  C183  1  0.91829306  0.14012281  0.31011790  1  0.025791  0.01019  -0.017962  0.046867  0.005372  3.77619  0.008
C  C184  1  0.33032547  0.55248810  0.67956933  1  -0.024322  0.000955  -0.165951  -0.284422  0.00049  3.854638  0.001
C  C185  1  0.83098455  0.05289981  0.32038381  1  -0.035907  0.00123  -0.166111  -0.284175  0.000667  3.851858  0.001
C  C186  1  0.47000991  0.66730532  0.62318337  1  -0.019087  -0.000358  -0.161508  -0.223481  -0.000583  3.870458  0.0
C  C187  1  0.97149299  0.16647285  0.37675304  1  -0.008592  -0.000597  -0.161491  -0.223434  -0.000806  3.870745  -0.001
C  C188  1  0.50879948  0.60061188  0.73601302  1  -0.016407  0.001163  -0.165989  -0.222999  0.000642  3.890477  0.001
C  C189  1  0.00990979  0.09985586  0.26392065  1  -0.01595  0.001217  -0.165737  -0.222901  0.00065  3.889441  0.001
C  C190  1  0.38750815  0.45587695  0.64989574  1  0.457674  0.00045  0.062498  0.346306  0.000238  3.809438  0.0
C  C191  1  0.88740080  0.95584229  0.35007967  1  0.461767  0.000707  0.063124  0.347786  0.000369  3.806938  0.001
C  C192  1  0.43916115  0.48417966  0.58393174  1  -0.06735  -1.8e-05  -0.163068  -0.255565  -4.7e-05  3.845339  0.0
C  C193  1  0.93919461  0.98358936  0.41604540  1  -0.061861  -1.6e-05  -0.163516  -0.256678  -4.7e-05  3.844748  0.0
C  C194  1  0.52646269  0.57035643  0.59386240  1  0.029827  0.000117  -0.091961  0.037452  8.1e-05  3.865536  0.0
C  C195  1  0.02717592  0.06917526  0.40607467  1  0.031016  -1.6e-05  -0.092238  0.039708  -2.4e-05  3.864631  0.0
C  C196  1  0.61825688  0.53118202  0.64039468  1  -0.070578  5.1e-05  -0.166443  -0.219837  2.1e-05  3.893207  0.0
C  C197  1  0.11872456  0.02951984  0.35954223  1  -0.049852  3.3e-05  -0.167367  -0.221484  9e-06  3.892317  0.0
C  C198  1  0.56567559  0.50327116  0.70657104  1  0.036718  0.000559  -0.089883  0.046686  0.000284  3.83968  0.0
C  C199  1  0.06605389  0.00211397  0.29336077  1  -0.001953  0.000558  -0.090256  0.04709  0.000283  3.837017  0.0
C  C200  1  0.47886248  0.41658690  0.69616792  1  -0.048951  5e-05  -0.166596  -0.284175  2.3e-05  3.891786  0.0
C  C201  1  0.97853376  0.91604189  0.30381385  1  -0.048046  7.3e-05  -0.166636  -0.284858  4.2e-05  3.891589  0.0
C  C202  1  0.35782736  0.73976053  0.71413467  1  1.574385  -0.001686  0.220177  0.584511  -0.002953  4.104639  -0.001
C  C203  1  0.86018013  0.24014988  0.28586101  1  1.557912  -0.001374  0.218266  0.583562  -0.002319  4.109471  -0.001
C  C204  1  0.00782158  0.68613121  0.81826326  1  0.01821  0.010957  -0.017064  0.048291  0.005792  3.769339  0.009
C  C205  1  0.50897000  0.18673286  0.18114779  1  0.016894  0.010914  -0.017279  0.044659  0.005772  3.775493  0.009
C  C206  1  0.06480510  0.61785182  0.87060301  1  -0.010532  0.001419  -0.166506  -0.223904  0.000799  3.895142  0.001
C  C207  1  0.56552257  0.11853533  0.12867659  1  -0.038074  0.001441  -0.166367  -0.223898  0.000814  3.898428  0.001
C  C208  1  0.96423545  0.61534737  0.76307878  1  -0.055665  0.00035  -0.162568  -0.219496  8.9e-05  3.870976  0.0
C  C209  1  0.46564027  0.11570623  0.23645742  1  -0.007871  0.000109  -0.161878  -0.218187  -0.00011  3.869106  0.0
C  C210  1  0.90731599  0.74373512  0.85000628  1  -0.020376  0.000145  -0.163913  -0.283854  -6.5e-05  3.856136  0.0
C  C211  1  0.40829126  0.24453251  0.14976225  1  -0.045935  0.000391  -0.163981  -0.284577  0.000141  3.859037  0.0
C  C212  1  0.82419773  0.66434567  0.87789388  1  0.484257  0.000247  0.060561  0.346911  0.000138  3.825134  0.0
C  C213  1  0.32483822  0.16530208  0.12210684  1  0.489719  0.000343  0.06077  0.349197  0.000181  3.822197  0.0
C  C214  1  0.88247217  0.59674754  0.92951522  1  -0.044795  5e-06  -0.165167  -0.254789  -3.1e-05  3.847658  0.0
C  C215  1  0.38263019  0.09778185  0.07030112  1  -0.010156  -8e-06  -0.165171  -0.256307  -4.2e-05  3.847154  0.0
C  C216  1  0.98187768  0.53843018  0.89840791  1  0.00973  0.000742  -0.09259  0.040809  0.000373  3.864507  0.001
C  C217  1  0.48224659  0.03933429  0.10107631  1  -0.00506  0.000598  -0.092231  0.041535  0.000304  3.865063  0.0
C  C218  1  0.93993680  0.46779128  0.84313158  1  -0.038312  4.4e-05  -0.16678  -0.217393  1.4e-05  3.893419  0.0
C  C219  1  0.44062704  0.96846941  0.15646346  1  -0.026584  8e-05  -0.166462  -0.218666  3.9e-05  3.893621  0.0
C  C220  1  0.88164507  0.53553680  0.79109333  1  0.002795  0.000433  -0.092009  0.041696  0.000238  3.852669  0.0
C  C221  1  0.38274185  0.03607514  0.20869075  1  0.025415  0.000381  -0.091875  0.043506  0.000211  3.850221  0.0
C  C222  1  0.78248037  0.59398577  0.82248516  1  -0.062289  -1.6e-05  -0.169131  -0.281752  -1.9e-05  3.881382  0.0
C  C223  1  0.28344298  0.09474221  0.17759622  1  -0.03848  -2.5e-05  -0.168759  -0.281394  -3.2e-05  3.879524  0.0
C  C224  1  0.08818666  0.76854565  0.79101470  1  1.573535  -0.000979  0.218782  0.588864  -0.001877  4.09484  0.0
C  C225  1  0.58984138  0.26836427  0.20852809  1  1.571315  -0.00115  0.220965  0.592156  -0.002647  4.087666  -0.001
C  C226  1  0.56352807  0.12416325  0.83781006  1  0.00856  0.005602  -0.018262  0.048569  0.002965  3.778041  0.004
C  C227  1  0.06240631  0.62388013  0.16240773  1  0.027475  0.005275  -0.017986  0.0479  0.002779  3.780624  0.004
C  C228  1  0.50921108  0.17737192  0.89805948  1  -0.022402  -0.0001  -0.161151  -0.222516  -0.000256  3.871359  0.0
C  C229  1  0.00819584  0.67693621  0.10205730  1  -0.023242  0.000165  -0.161559  -0.222542  5e-06  3.874404  0.0
C  C230  1  0.65747522  0.05054341  0.86209624  1  0.011612  0.000187  -0.167203  -0.282493  3.8e-05  3.867664  0.0
C  C231  1  0.15638068  0.55018077  0.13828703  1  0.008916  0.000235  -0.167937  -0.283486  7.1e-05  3.866963  0.0
C  C232  1  0.61437395  0.20890670  0.79401984  1  -0.022771  0.001154  -0.167355  -0.226331  0.000633  3.888071  0.001
C  C233  1  0.11327328  0.70863776  0.20605900  1  -0.038578  0.001094  -0.167297  -0.22618  0.000594  3.887367  0.001
C  C234  1  0.74517997  0.11226038  0.90042248  1  0.482501  0.000117  0.059374  0.346857  5.2e-05  3.821757  0.0
C  C235  1  0.24422266  0.61180259  0.09985912  1  0.487471  -7.8e-05  0.059439  0.348047  -0.000105  3.818166  0.0
C  C236  1  0.68986272  0.16432383  0.95949641  1  -0.0177  -0.000108  -0.165845  -0.254344  -0.00015  3.83747  0.0
C  C237  1  0.18901005  0.66373380  0.04068359  1  -0.01987  -0.000123  -0.166156  -0.254714  -0.000172  3.838072  0.0
C  C238  1  0.59687765  0.23905154  0.93618218  1  0.00524  0.000105  -0.091311  0.042563  5.9e-05  3.857414  0.0
C  C239  1  0.09597611  0.73851184  0.06384077  1  0.008627  0.000289  -0.091135  0.041507  0.00016  3.859371  0.0
C  C240  1  0.64682247  0.32366320  0.89172532  1  -0.003261  -8.4e-05  -0.166897  -0.217164  -0.000126  3.900575  0.0
C  C241  1  0.14584581  0.82321048  0.10818048  1  -0.002871  -7.5e-05  -0.166403  -0.216754  -0.000112  3.901334  0.0
C  C242  1  0.70230923  0.27099489  0.83235474  1  0.008882  0.000547  -0.091109  0.044471  0.000287  3.838074  0.0
C  C243  1  0.20129389  0.77064732  0.16762755  1  0.005799  0.000585  -0.091211  0.045288  0.000304  3.839412  0.0
C  C244  1  0.79549874  0.19693988  0.85651227  1  -0.026102  4.4e-05  -0.171245  -0.285542  1.1e-05  3.877597  0.0
C  C245  1  0.29452935  0.69659400  0.14357343  1  0.017326  4.5e-05  -0.171314  -0.287574  1.4e-05  3.879291  0.0
C  C246  1  0.47034537  0.06204160  0.80447736  1  1.553308  0.000118  0.210341  0.57068  -0.000334  4.124223  0.0
C  C247  1  0.96890808  0.56235985  0.19595772  1  1.564164  0.000734  0.211246  0.570552  -0.000273  4.125583  0.001
C  C248  1  0.50686116  0.67092765  0.98443135  1  0.029528  -0.017058  0.015643  0.111041  -0.018542  3.976232  -0.01
C  C249  1  0.00831889  0.16904134  0.01565677  1  -0.020378  -0.014221  0.017214  0.114391  -0.015422  3.972244  -0.008
C  C250  1  0.49906493  0.77990106  0.99234404  1  -0.037714  0.002248  -0.081135  -0.170437  0.000512  3.949693  0.003
C  C251  1  0.00058344  0.27800899  0.00747889  1  0.044553  0.001106  -0.081837  -0.171384  -0.000259  3.949789  0.002
C  C252  1  0.43367972  0.83912998  0.95008349  1  0.530271  -0.009782  0.04486  0.086716  -0.010858  3.965613  -0.005
C  C253  1  0.93550341  0.33735151  0.04975027  1  0.434909  -0.006834  0.045361  0.087107  -0.007475  3.968305  -0.004
C  C254  1  0.37832033  0.69172281  0.89434329  1  0.523077  -0.009074  0.047527  0.094861  -0.009634  3.958205  -0.005
C  C255  1  0.88032631  0.19019681  0.10606155  1  0.506598  -0.007577  0.050526  0.100982  -0.008651  3.951485  -0.004
C  C256  1  0.44264132  0.62754823  0.93403279  1  0.043113  0.002471  -0.077282  -0.158668  0.000583  3.939564  0.003
C  C257  1  0.94436808  0.12583650  0.06630634  1  -0.029956  0.001215  -0.077736  -0.161227  -0.000118  3.935145  0.002
C  C258  1  0.95758649  0.67047399  0.51708909  1  0.013437  -0.013129  0.010254  0.098697  -0.01418  3.989825  -0.008
C  C259  1  0.45855438  0.17147478  0.48295697  1  -0.018569  -0.013511  0.009831  0.097665  -0.014565  3.990693  -0.008
C  C260  1  0.90487288  0.75275124  0.55094966  1  -0.038766  0.003384  -0.08218  -0.177267  0.001219  3.946032  0.003
C  C261  1  0.40571825  0.25404230  0.44933897  1  -0.056859  0.00266  -0.082505  -0.17828  0.000731  3.947746  0.003
C  C262  1  0.96714239  0.81567159  0.59237675  1  0.457192  -0.007778  0.049276  0.096307  -0.00867  3.94208  -0.004
C  C263  1  0.46796440  0.31767432  0.40827167  1  0.429557  -0.007202  0.049416  0.096691  -0.007833  3.942416  -0.004
C  C264  1  0.12920884  0.72474926  0.56777027  1  0.48324  -0.006416  0.04638  0.092492  -0.00706  3.950354  -0.004
C  C265  1  0.63019751  0.22681458  0.43254975  1  0.466097  -0.007532  0.0462  0.092118  -0.008407  3.94838  -0.004
C  C266  1  0.07311249  0.65758118  0.52615602  1  -0.039863  0.002257  -0.079015  -0.165505  0.000597  3.938043  0.003
C  C267  1  0.57411358  0.15891736  0.47385262  1  0.036623  0.001992  -0.079278  -0.167187  0.000509  3.93958  0.002
C  C268  1  0.57194984  0.49577591  0.02596585  1  -0.020257  0.001322  -0.080261  -0.168211  -1.7e-05  3.953686  0.002
C  C269  1  0.07358353  0.99394732  0.97409480  1  -0.056676  0.002785  -0.080205  -0.168148  0.000832  3.954372  0.003
C  C270  1  0.65546146  0.64928009  0.07017617  1  -0.035881  0.002008  -0.074171  -0.151174  0.000362  3.915944  0.003
C  C271  1  0.15653981  0.14774447  0.92970899  1  0.055069  0.003976  -0.074834  -0.151472  0.001425  3.918425  0.004
C  C272  1  0.64023860  0.43678799  0.06656286  1  0.547813  -0.008339  0.040915  0.080548  -0.009105  3.972522  -0.005
C  C273  1  0.14168075  0.93511672  0.93329395  1  0.456809  -0.010778  0.041157  0.081514  -0.011835  3.969267  -0.006
C  C274  1  0.71871777  0.58498878  0.11049602  1  0.510484  -0.009439  0.049278  0.105631  -0.010283  3.94463  -0.005
C  C275  1  0.21982903  0.08363858  0.88932607  1  0.422267  -0.010814  0.048281  0.103283  -0.011598  3.946091  -0.006
C  C276  1  0.57801140  0.60560499  0.02673399  1  -0.006645  -0.016304  0.016668  0.109808  -0.017545  3.963457  -0.01
C  C277  1  0.07940596  0.10377586  0.97329343  1  0.01801  -0.01897  0.015552  0.10656  -0.020506  3.967311  -0.011
C  C278  1  0.89447921  0.59845650  0.47527300  1  -0.013682  -0.011288  0.013169  0.104508  -0.012167  3.981932  -0.007
C  C279  1  0.39529016  0.09943601  0.52474466  1  -0.021487  -0.013414  0.013411  0.105894  -0.014456  3.979849  -0.008
C  C280  1  0.78329584  0.57285259  0.48987244  1  -0.001601  0.001405  -0.084313  -0.183738  0.00022  3.962731  0.002
C  C281  1  0.28388720  0.07442384  0.51027426  1  0.056364  0.001756  -0.083861  -0.182815  0.000232  3.962159  0.002
C  C282  1  0.72589788  0.50388534  0.45004250  1  0.48634  -0.006786  0.045173  0.091612  -0.007745  3.980474  -0.004
C  C283  1  0.22605762  0.00599847  0.55028441  1  0.411545  -0.007575  0.043886  0.089429  -0.008215  3.983357  -0.004
C  C284  1  0.87930488  0.48208479  0.38299228  1  0.442574  -0.005389  0.054107  0.111419  -0.00611  3.926044  -0.003
C  C285  1  0.37941200  0.98333415  0.61731982  1  0.464202  -0.007156  0.054122  0.112391  -0.008191  3.924971  -0.004
C  C286  1  0.94251627  0.55037089  0.42035163  1  0.013942  0.001425  -0.073914  -0.154798  0.000101  3.91447  0.002
C  C287  1  0.44303874  0.05097302  0.57965443  1  0.013981  0.001622  -0.072117  -0.153103  0.000159  3.913351  0.002
N  N288  1  0.37467176  0.79653091  0.90100981  1  -1.239461  0.059093  -0.327307  -0.239722  0.031483  3.563315  0.051
N  N289  1  0.87680736  0.29491211  0.09909920  1  -1.232226  0.056979  -0.329106  -0.240942  0.030636  3.5713  0.048
N  N290  1  0.07798619  0.80215024  0.60105835  1  -1.208774  0.059498  -0.32146  -0.236893  0.03196  3.556773  0.051
N  N291  1  0.57893191  0.30470511  0.39965472  1  -1.210004  0.057766  -0.320937  -0.23771  0.031096  3.550124  0.05
N  N292  1  0.71232784  0.47983365  0.10919756  1  -1.27365  0.052986  -0.332241  -0.2591  0.028476  3.596296  0.047
N  N293  1  0.21362013  0.97848339  0.89064370  1  -1.187107  0.057253  -0.3297  -0.255703  0.030778  3.584142  0.051
N  N294  1  0.77198034  0.45936169  0.39678599  1  -1.23134  0.051673  -0.325459  -0.258966  0.027617  3.560542  0.046
N  N295  1  0.27166734  0.96170421  0.60384581  1  -1.234198  0.051513  -0.330545  -0.264379  0.027484  3.582869  0.045
O  O296  1  0.08267239  0.11457789  0.74404936  1  -1.180709  0.009624  -0.332959  -0.549671  0.004322  2.132456  0.008
O  O297  1  0.57830208  0.61246597  0.25548531  1  -1.179378  0.008792  -0.333857  -0.549737  0.003871  2.133146  0.008
O  O298  1  0.24610852  0.98367436  0.74771741  1  -1.269775  0.106583  -0.557893  -0.807317  0.057817  2.399302  0.091
O  O299  1  0.74258592  0.48338329  0.25119543  1  -1.250702  0.103688  -0.558891  -0.807525  0.056264  2.403468  0.089
O  O300  1  0.05342260  0.00312367  0.66043569  1  -1.16885  0.083262  -0.319607  -0.56883  0.043602  2.430244  0.07
O  O301  1  0.55598168  0.50525045  0.34241351  1  -1.162825  0.072609  -0.319865  -0.57439  0.038167  2.425549  0.061
O  O302  1  0.11437836  0.40513405  0.55767552  1  -1.170258  0.000347  -0.424145  -0.563835  0.000181  2.188699  0.0
O  O303  1  0.61407005  0.90518362  0.44222164  1  -1.167698  0.000244  -0.424411  -0.564376  0.000131  2.188647  0.0
O  O304  1  0.27234033  0.76706003  0.68105876  1  -1.177659  0.083871  -0.314311  -0.570928  0.043752  2.477171  0.071
O  O305  1  0.77722988  0.26927083  0.32087836  1  -1.171967  0.079833  -0.319861  -0.580792  0.041938  2.471215  0.067
O  O306  1  0.39697432  0.78796264  0.76302065  1  -1.162019  0.066949  -0.311238  -0.548693  0.034544  2.341355  0.058
O  O307  1  0.89838260  0.28746017  0.23657800  1  -1.16013  0.061096  -0.307988  -0.545965  0.031153  2.338957  0.054
O  O308  1  0.30659439  0.37452524  0.63723816  1  -1.126555  0.00031  -0.384731  -0.524464  0.000147  2.244805  0.0
O  O309  1  0.80595005  0.87487827  0.36268916  1  -1.094599  0.000419  -0.385312  -0.525924  0.000202  2.245073  0.0
O  O310  1  0.17791263  0.78228014  0.82363708  1  -1.176465  0.079469  -0.316727  -0.579497  0.041547  2.46286  0.068
O  O311  1  0.68146859  0.28025487  0.17765148  1  -1.175528  0.082939  -0.313579  -0.572634  0.043202  2.466132  0.071
O  O312  1  0.05924193  0.81737591  0.73997618  1  -1.163368  0.063199  -0.311487  -0.548041  0.032119  2.331134  0.056
O  O313  1  0.56039801  0.31750262  0.25949862  1  -1.165526  0.067285  -0.313709  -0.55113  0.034645  2.336308  0.059
O  O314  1  0.73299351  0.71659798  0.91048366  1  -1.09411  -5.1e-05  -0.403479  -0.536204  -0.00015  2.200755  0.0
O  O315  1  0.23349820  0.21778505  0.08981008  1  -1.099991  -7.7e-05  -0.403351  -0.536124  -0.000181  2.200895  0.0
O  O316  1  0.42554677  0.09598257  0.75234263  1  -1.181677  0.007529  -0.331101  -0.555177  0.003324  2.142496  0.006
O  O317  1  0.92236826  0.59774461  0.24711231  1  -1.184095  0.009214  -0.330727  -0.554668  0.004163  2.137552  0.008
O  O318  1  0.43934051  0.98079258  0.83599965  1  -1.173608  0.072164  -0.323558  -0.577883  0.037727  2.410887  0.062
O  O319  1  0.93996790  0.47888381  0.16607555  1  -1.170308  0.080747  -0.324172  -0.571643  0.042206  2.415453  0.068
O  O320  1  0.83040181  0.04284221  0.92543802  1  -1.1156  -0.000242  -0.405824  -0.538003  -0.000294  2.205408  0.0
O  O321  1  0.32949241  0.54229882  0.07498237  1  -1.121171  -0.000322  -0.40596  -0.538118  -0.00037  2.204821  0.0
