# generated using pymatgen
data_HgH10C12(BrN2)2
_symmetry_space_group_name_H-M   'P 1'
_cell_length_a   8.34262858
_cell_length_b   11.82109887
_cell_length_c   14.89822450
_cell_angle_alpha   89.99961586
_cell_angle_beta   89.99956223
_cell_angle_gamma   89.99966129
_symmetry_Int_Tables_number   1
_chemical_formula_structural   HgH10C12(BrN2)2
_chemical_formula_sum   'Hg4 H40 C48 Br8 N16'
_cell_volume   1469.24855607
_cell_formula_units_Z   4
loop_
 _symmetry_equiv_pos_site_id
 _symmetry_equiv_pos_as_xyz
  1  'x, y, z'
loop_
 _atom_site_type_symbol
 _atom_site_label
 _atom_site_symmetry_multiplicity
 _atom_site_fract_x
 _atom_site_fract_y
 _atom_site_fract_z
 _atom_site_occupancy
 _atom_site_hle17_bader_spin_density
 _atom_site_hle17_ddec_charge
 _atom_site_hle17_ddec_spin_density
 _atom_site_hle17_ddec_sum_bond_order
 _atom_site_hle17_magmom
 _atom_site_hse06_10hf_bader_spin_density
 _atom_site_hse06_10hf_ddec_charge
 _atom_site_hse06_10hf_ddec_spin_density
 _atom_site_hse06_10hf_ddec_sum_bond_order
 _atom_site_hse06_10hf_magmom
 _atom_site_hse06_bader_spin_density
 _atom_site_hse06_ddec_charge
 _atom_site_hse06_ddec_spin_density
 _atom_site_hse06_ddec_sum_bond_order
 _atom_site_hse06_magmom
 _atom_site_pbe_bader_spin_density
 _atom_site_pbe_cm5_charge
 _atom_site_pbe_ddec_charge
 _atom_site_pbe_ddec_spin_density
 _atom_site_pbe_ddec_sum_bond_order
 _atom_site_pbe_magmom
Hg  Hg0  1  0.78260017  0.94676125  0.25000008  1  0  0.66776  0  2.065927  0  0  0.503669  0  2.580151  0  0  0.554764  0  2.543936  0  0  0.450597  0.46913  0  2.604319  0
Hg  Hg1  1  0.71740235  0.44676348  0.75000007  1  0  0.667744  0  2.065946  0  0  0.503652  0  2.580193  0  0  0.554746  0  2.543981  0  0  0.450624  0.469112  0  2.604364  0
Hg  Hg2  1  0.21740092  0.05324189  0.75000420  1  0  0.667766  0  2.065906  0  0  0.503671  0  2.580136  0  0  0.554764  0  2.543927  0  0  0.450607  0.469129  0  2.604304  0
Hg  Hg3  1  0.28259754  0.55323543  0.25000019  1  0  0.667766  0  2.065883  0  0  0.503668  0  2.580134  0  0  0.554763  0  2.543919  0  0  0.450628  0.469128  0  2.604303  0
H  H4  1  0.73477592  0.17624619  0.36977626  1  0  0.071501  0  0.959549  0  0  0.075799  0  1.032496  0  0  0.078455  0  1.030333  0  0  0.101304  0.073774  0  1.034114  0
H  H5  1  0.76522287  0.67624932  0.63022199  1  0  0.071495  0  0.959576  0  0  0.075779  0  1.032517  0  0  0.078443  0  1.030348  0  0  0.101296  0.073757  0  1.034134  0
H  H6  1  0.26522352  0.82375849  0.86977671  1  0  0.07148  0  0.959614  0  0  0.075797  0  1.032531  0  0  0.078447  0  1.030374  0  0  0.10131  0.073795  0  1.034131  0
H  H7  1  0.23477387  0.32375482  0.13022824  1  0  0.071479  0  0.959586  0  0  0.075772  0  1.032539  0  0  0.078441  0  1.030365  0  0  0.101286  0.07375  0  1.034157  0
H  H8  1  0.26522157  0.82375695  0.63022803  1  0  0.071452  0  0.95956  0  0  0.07573  0  1.032535  0  0  0.078407  0  1.030355  0  0  0.101277  0.07371  0  1.034147  0
H  H9  1  0.23477942  0.32375721  0.36977826  1  0  0.07146  0  0.959601  0  0  0.075783  0  1.03251  0  0  0.078432  0  1.030355  0  0  0.101305  0.073773  0  1.034117  0
H  H10  1  0.73478117  0.17624465  0.13022288  1  0  0.071472  0  0.959526  0  0  0.075785  0  1.032457  0  0  0.078435  0  1.030302  0  0  0.101302  0.073767  0  1.034072  0
H  H11  1  0.76521883  0.67623816  0.86977403  1  0  0.071423  0  0.959571  0  0  0.075706  0  1.032525  0  0  0.078387  0  1.030341  0  0  0.101293  0.073686  0  1.034138  0
H  H12  1  0.54741775  0.27932623  0.47544199  1  0  0.101278  0  1.004191  0  0  0.102936  0  1.078152  0  0  0.106932  0  1.0765  0  0  0.100043  0.100047  0  1.079485  0
H  H13  1  0.95258378  0.77932523  0.52455168  1  0  0.101275  0  1.00414  0  0  0.102953  0  1.078097  0  0  0.106939  0  1.076447  0  0  0.100056  0.100068  0  1.079434  0
H  H14  1  0.45257305  0.72067671  0.97544622  1  0  0.10119  0  1.004235  0  0  0.102928  0  1.078122  0  0  0.106935  0  1.076457  0  0  0.100036  0.10003  0  1.079474  0
H  H15  1  0.04742640  0.22067471  0.02455794  1  0  0.101257  0  1.004228  0  0  0.102925  0  1.078166  0  0  0.10692  0  1.076517  0  0  0.10005  0.100036  0  1.079502  0
H  H16  1  0.45258214  0.72067690  0.52456162  1  0  0.101269  0  1.0042  0  0  0.102931  0  1.078162  0  0  0.106924  0  1.076508  0  0  0.100052  0.100049  0  1.079496  0
H  H17  1  0.04741971  0.22067198  0.47544052  1  0  0.101272  0  1.004211  0  0  0.102946  0  1.078173  0  0  0.106928  0  1.076527  0  0  0.100042  0.100053  0  1.079516  0
H  H18  1  0.54741725  0.27932558  0.02455873  1  0  0.101289  0  1.004181  0  0  0.102953  0  1.078141  0  0  0.106948  0  1.076483  0  0  0.100064  0.100064  0  1.079477  0
H  H19  1  0.95257349  0.77931996  0.97543963  1  0  0.101228  0  1.004318  0  0  0.102978  0  1.078172  0  0  0.106984  0  1.076506  0  0  0.100064  0.100088  0  1.079515  0
H  H20  1  0.29058872  0.18449361  0.51895200  1  0  0.09741  0  0.948721  0  0  0.107039  0  1.013858  0  0  0.109784  0  1.011321  0  0  0.106971  0.105035  0  1.015655  0
H  H21  1  0.20941583  0.68449314  0.48104631  1  0  0.097351  0  0.948695  0  0  0.106991  0  1.013807  0  0  0.109739  0  1.011268  0  0  0.10696  0.104981  0  1.015619  0
H  H22  1  0.70940116  0.81550723  0.01895896  1  0  0.097426  0  0.948647  0  0  0.107036  0  1.013828  0  0  0.109782  0  1.011291  0  0  0.106946  0.105032  0  1.015624  0
H  H23  1  0.79060126  0.31550807  0.98104256  1  0  0.097385  0  0.948749  0  0  0.107032  0  1.013882  0  0  0.109778  0  1.011344  0  0  0.106947  0.105028  0  1.015669  0
H  H24  1  0.70940637  0.81550953  0.48104758  1  0  0.097439  0  0.948751  0  0  0.107081  0  1.013881  0  0  0.109813  0  1.01138  0  0  0.106959  0.105079  0  1.015667  0
H  H25  1  0.79058886  0.31550408  0.51895260  1  0  0.097407  0  0.948657  0  0  0.107025  0  1.01381  0  0  0.109772  0  1.011273  0  0  0.106964  0.105017  0  1.015619  0
H  H26  1  0.29059154  0.18449506  0.98104868  1  0  0.097387  0  0.94878  0  0  0.107005  0  1.013924  0  0  0.109752  0  1.011386  0  0  0.106957  0.105003  0  1.015721  0
H  H27  1  0.20940462  0.68449253  0.01894964  1  0  0.097494  0  0.948671  0  0  0.10713  0  1.013786  0  0  0.109862  0  1.011287  0  0  0.107011  0.105131  0  1.015572  0
H  H28  1  0.41699790  0.90969655  0.34136151  1  0  0.076827  0  0.958723  0  0  0.081126  0  1.034444  0  0  0.083474  0  1.032408  0  0  0.101357  0.079364  0  1.035958  0
H  H29  1  0.08300476  0.40970010  0.65864164  1  0  0.076904  0  0.958839  0  0  0.081194  0  1.034558  0  0  0.083545  0  1.032521  0  0  0.101396  0.079432  0  1.036072  0
H  H30  1  0.58300913  0.09030413  0.84135918  1  0  0.076883  0  0.958741  0  0  0.081156  0  1.034473  0  0  0.083518  0  1.032425  0  0  0.10138  0.079392  0  1.035989  0
H  H31  1  0.91698919  0.59030549  0.15863618  1  0  0.076908  0  0.95863  0  0  0.081137  0  1.034411  0  0  0.083535  0  1.032333  0  0  0.101369  0.079375  0  1.035926  0
H  H32  1  0.58300319  0.09030490  0.65864278  1  0  0.076891  0  0.958767  0  0  0.081162  0  1.034502  0  0  0.08353  0  1.032449  0  0  0.101407  0.079399  0  1.036016  0
H  H33  1  0.91699273  0.59030304  0.34135996  1  0  0.076893  0  0.958795  0  0  0.081204  0  1.034493  0  0  0.083543  0  1.032465  0  0  0.101396  0.079442  0  1.036007  0
H  H34  1  0.41699316  0.90969816  0.15864309  1  0  0.076833  0  0.958739  0  0  0.081133  0  1.034481  0  0  0.083473  0  1.032451  0  0  0.101371  0.079371  0  1.035996  0
H  H35  1  0.08300950  0.40969257  0.84135938  1  0  0.076894  0  0.958743  0  0  0.081173  0  1.034466  0  0  0.083535  0  1.032418  0  0  0.101383  0.07941  0  1.035981  0
H  H36  1  0.15202340  0.90699233  0.40981184  1  0  0.073691  0  0.941878  0  0  0.081667  0  1.014493  0  0  0.085097  0  1.009949  0  0  0.106026  0.079106  0  1.017849  0
H  H37  1  0.34798168  0.40699112  0.59019064  1  0  0.073721  0  0.941771  0  0  0.081675  0  1.014406  0  0  0.085088  0  1.009879  0  0  0.106035  0.079112  0  1.017765  0
H  H38  1  0.84798148  0.09300355  0.90981240  1  0  0.073623  0  0.942007  0  0  0.081654  0  1.014569  0  0  0.085058  0  1.01005  0  0  0.106007  0.079093  0  1.017926  0
H  H39  1  0.65202041  0.59300659  0.09018495  1  0  0.073646  0  0.941979  0  0  0.081678  0  1.014539  0  0  0.085091  0  1.01001  0  0  0.106017  0.079117  0  1.017896  0
H  H40  1  0.84798128  0.09300827  0.59018841  1  0  0.073688  0  0.941793  0  0  0.08167  0  1.014426  0  0  0.08507  0  1.00991  0  0  0.106024  0.079108  0  1.017783  0
H  H41  1  0.65201941  0.59300694  0.40981230  1  0  0.073671  0  0.941842  0  0  0.081698  0  1.014431  0  0  0.085099  0  1.009913  0  0  0.106045  0.079136  0  1.017788  0
H  H42  1  0.15201961  0.90699113  0.09019188  1  0  0.07371  0  0.941813  0  0  0.081704  0  1.014419  0  0  0.085099  0  1.009906  0  0  0.106046  0.079142  0  1.017777  0
H  H43  1  0.34798548  0.40699148  0.90981262  1  0  0.073681  0  0.941834  0  0  0.081677  0  1.01444  0  0  0.085079  0  1.009923  0  0  0.10602  0.079115  0  1.017798  0
C  C44  1  0.61910856  0.14048402  0.38925207  1  0  0.132635  0  3.692278  0  0  0.100781  0  3.944119  0  0  0.108827  0  3.962121  0  0  0.04427  0.095768  0  3.931761  0
C  C45  1  0.88089294  0.64048429  0.61074435  1  0  0.132607  0  3.692285  0  0  0.100794  0  3.944103  0  0  0.108836  0  3.9621  0  0  0.044288  0.095781  0  3.931743  0
C  C46  1  0.38088942  0.85951880  0.88925519  1  0  0.132581  0  3.692532  0  0  0.100719  0  3.944395  0  0  0.108773  0  3.962396  0  0  0.044239  0.095686  0  3.932031  0
C  C47  1  0.11911007  0.35951494  0.11074755  1  0  0.132645  0  3.692232  0  0  0.100776  0  3.944092  0  0  0.108814  0  3.962089  0  0  0.044263  0.095762  0  3.93174  0
C  C48  1  0.38089253  0.85951996  0.61075020  1  0  0.132643  0  3.692307  0  0  0.100788  0  3.94419  0  0  0.108818  0  3.962182  0  0  0.044213  0.095775  0  3.931833  0
C  C49  1  0.11910935  0.35951885  0.38925389  1  0  0.132597  0  3.692411  0  0  0.100738  0  3.944275  0  0  0.108792  0  3.962278  0  0  0.044235  0.095713  0  3.931914  0
C  C50  1  0.61910568  0.14048180  0.11074842  1  0  0.132606  0  3.692196  0  0  0.10074  0  3.944052  0  0  0.108794  0  3.962054  0  0  0.044216  0.095722  0  3.93169  0
C  C51  1  0.88089342  0.64047636  0.88925002  1  0  0.13267  0  3.692444  0  0  0.100824  0  3.94433  0  0  0.10885  0  3.962326  0  0  0.044205  0.095811  0  3.931975  0
C  C52  1  0.51578077  0.19662429  0.44798532  1  0  -0.123775  0  3.735876  0  0  -0.132475  0  3.985585  0  0  -0.141078  0  4.007349  0  0  -0.088082  -0.126896  0  3.970938  0
C  C53  1  0.98422025  0.69662546  0.55201148  1  0  -0.123787  0  3.735727  0  0  -0.132526  0  3.985436  0  0  -0.141116  0  4.007205  0  0  -0.088108  -0.126959  0  3.970795  0
C  C54  1  0.48421040  0.80337889  0.94798897  1  0  -0.123732  0  3.73597  0  0  -0.13251  0  3.985659  0  0  -0.141117  0  4.007405  0  0  -0.088073  -0.126938  0  3.971036  0
C  C55  1  0.01579076  0.30337510  0.05201273  1  0  -0.123836  0  3.735913  0  0  -0.132547  0  3.985643  0  0  -0.141149  0  4.007399  0  0  -0.088102  -0.126975  0  3.971016  0
C  C56  1  0.48421792  0.80337631  0.55201830  1  0  -0.123727  0  3.73597  0  0  -0.132417  0  3.985658  0  0  -0.141013  0  4.007425  0  0  -0.088027  -0.126851  0  3.971008  0
C  C57  1  0.01578204  0.30337514  0.44798609  1  0  -0.12375  0  3.73585  0  0  -0.132487  0  3.985568  0  0  -0.141072  0  4.007337  0  0  -0.088071  -0.126906  0  3.970922  0
C  C58  1  0.51578350  0.19662764  0.05201800  1  0  -0.123706  0  3.73585  0  0  -0.132426  0  3.985561  0  0  -0.14102  0  4.007321  0  0  -0.088065  -0.126854  0  3.970932  0
C  C59  1  0.98421034  0.69662127  0.94798081  1  0  -0.12379  0  3.73609  0  0  -0.132544  0  3.985748  0  0  -0.141152  0  4.007505  0  0  -0.088044  -0.126974  0  3.971118  0
C  C60  1  0.37149657  0.14553703  0.47055355  1  0  -0.026849  0  3.66703  0  0  -0.051216  0  3.905682  0  0  -0.047735  0  3.924628  0  0  -0.058928  -0.053113  0  3.89269  0
C  C61  1  0.12850231  0.64553734  0.52944296  1  0  -0.026743  0  3.66687  0  0  -0.051112  0  3.905514  0  0  -0.047634  0  3.924461  0  0  -0.058917  -0.053011  0  3.892519  0
C  C62  1  0.62849310  0.85446511  0.97055900  1  0  -0.026755  0  3.666795  0  0  -0.051111  0  3.90543  0  0  -0.047632  0  3.92438  0  0  -0.058859  -0.053005  0  3.892432  0
C  C63  1  0.87150780  0.35446172  0.02943829  1  0  -0.026691  0  3.666805  0  0  -0.051061  0  3.9054  0  0  -0.04758  0  3.924344  0  0  -0.058841  -0.052951  0  3.892403  0
C  C64  1  0.62849852  0.85446526  0.52944671  1  0  -0.026828  0  3.666989  0  0  -0.051232  0  3.90561  0  0  -0.047756  0  3.92455  0  0  -0.058894  -0.053124  0  3.892614  0
C  C65  1  0.87149758  0.35446242  0.47055394  1  0  -0.026813  0  3.666977  0  0  -0.05117  0  3.905591  0  0  -0.04769  0  3.924538  0  0  -0.058897  -0.053068  0  3.892596  0
C  C66  1  0.37150320  0.14554226  0.02944394  1  0  -0.026784  0  3.666945  0  0  -0.051158  0  3.905524  0  0  -0.047677  0  3.924473  0  0  -0.058865  -0.053058  0  3.892534  0
C  C67  1  0.12849209  0.64553634  0.97055391  1  0  -0.026833  0  3.666804  0  0  -0.051219  0  3.90548  0  0  -0.047743  0  3.924417  0  0  -0.058931  -0.053113  0  3.892485  0
C  C68  1  0.32976343  0.04186418  0.43053908  1  0  -0.003374  0  3.796346  0  0  0.021343  0  4.024908  0  0  0.014753  0  4.049922  0  0  -0.006108  0.025433  0  4.008085  0
C  C69  1  0.17024231  0.54186483  0.56945933  1  0  -0.003432  0  3.796325  0  0  0.021342  0  4.0248  0  0  0.014752  0  4.049811  0  0  -0.006149  0.025432  0  4.007976  0
C  C70  1  0.67023518  0.95813660  0.93054246  1  0  -0.003463  0  3.796407  0  0  0.021246  0  4.024972  0  0  0.014656  0  4.049981  0  0  -0.006211  0.025338  0  4.008147  0
C  C71  1  0.82976486  0.45813475  0.06945629  1  0  -0.003512  0  3.796174  0  0  0.021199  0  4.024738  0  0  0.014606  0  4.049759  0  0  -0.006234  0.025291  0  4.007914  0
C  C72  1  0.67023646  0.95814065  0.56946185  1  0  -0.00347  0  3.79645  0  0  0.021336  0  4.024912  0  0  0.014746  0  4.049918  0  0  -0.006109  0.025426  0  4.008086  0
C  C73  1  0.82976117  0.45813662  0.43054026  1  0  -0.003446  0  3.796466  0  0  0.021333  0  4.024967  0  0  0.014744  0  4.049969  0  0  -0.006162  0.025422  0  4.008143  0
C  C74  1  0.32975992  0.04186400  0.06946048  1  0  -0.003496  0  3.796479  0  0  0.021354  0  4.024858  0  0  0.014764  0  4.04986  0  0  -0.006145  0.025445  0  4.008034  0
C  C75  1  0.17023743  0.54186078  0.93053860  1  0  -0.003401  0  3.796216  0  0  0.021342  0  4.024747  0  0  0.014754  0  4.049751  0  0  -0.006144  0.025433  0  4.007925  0
C  C76  1  0.44214649  0.99138251  0.37292271  1  0  0.092723  0  3.670037  0  0  0.058206  0  3.91426  0  0  0.063887  0  3.935166  0  0  0.051351  0.054715  0  3.900004  0
C  C77  1  0.05785549  0.49138136  0.62707664  1  0  0.092598  0  3.670026  0  0  0.058074  0  3.914231  0  0  0.063753  0  3.935136  0  0  0.051338  0.054586  0  3.899972  0
C  C78  1  0.55785531  0.00862044  0.87292362  1  0  0.092651  0  3.670008  0  0  0.058173  0  3.91421  0  0  0.063844  0  3.935109  0  0  0.051394  0.054685  0  3.89995  0
C  C79  1  0.94214609  0.50861858  0.12707419  1  0  0.092729  0  3.6698  0  0  0.058267  0  3.914018  0  0  0.063905  0  3.9349  0  0  0.051443  0.054776  0  3.899765  0
C  C80  1  0.55785460  0.00861978  0.62707956  1  0  0.092702  0  3.670022  0  0  0.058198  0  3.914222  0  0  0.063863  0  3.935117  0  0  0.051354  0.054708  0  3.899962  0
C  C81  1  0.94214680  0.50861840  0.37292228  1  0  0.092581  0  3.670177  0  0  0.058045  0  3.914375  0  0  0.063736  0  3.935287  0  0  0.051312  0.054557  0  3.900117  0
C  C82  1  0.44214339  0.99138354  0.12707865  1  0  0.092709  0  3.670056  0  0  0.058133  0  3.914237  0  0  0.063823  0  3.935148  0  0  0.05136  0.054643  0  3.899977  0
C  C83  1  0.05785620  0.49137695  0.87292137  1  0  0.092563  0  3.669937  0  0  0.058076  0  3.914141  0  0  0.063746  0  3.935039  0  0  0.051387  0.054586  0  3.899887  0
C  C84  1  0.17646596  0.98648305  0.44560242  1  0  0.102351  0  3.68884  0  0  0.063588  0  3.953981  0  0  0.072115  0  3.967491  0  0  0.072069  0.057999  0  3.944907  0
C  C85  1  0.32353486  0.48648308  0.55439695  1  0  0.102375  0  3.688819  0  0  0.063615  0  3.953966  0  0  0.072156  0  3.967478  0  0  0.072083  0.058029  0  3.944893  0
C  C86  1  0.82353484  0.01351423  0.94560284  1  0  0.102428  0  3.689001  0  0  0.063601  0  3.954179  0  0  0.07215  0  3.967692  0  0  0.07205  0.058014  0  3.945107  0
C  C87  1  0.67646772  0.51351746  0.05439293  1  0  0.102501  0  3.688889  0  0  0.063691  0  3.954033  0  0  0.072233  0  3.967544  0  0  0.072162  0.058102  0  3.94496  0
C  C88  1  0.82353154  0.01351586  0.55439784  1  0  0.102362  0  3.688769  0  0  0.06355  0  3.95394  0  0  0.072103  0  3.967452  0  0  0.072024  0.05796  0  3.944866  0
C  C89  1  0.67646503  0.51351498  0.44560330  1  0  0.102387  0  3.688871  0  0  0.063536  0  3.954047  0  0  0.072088  0  3.96756  0  0  0.072022  0.057949  0  3.944974  0
C  C90  1  0.17647104  0.98648215  0.05439809  1  0  0.102397  0  3.688714  0  0  0.063574  0  3.953851  0  0  0.072133  0  3.967366  0  0  0.072014  0.057986  0  3.944777  0
C  C91  1  0.32353217  0.48648230  0.94560397  1  0  0.102403  0  3.688722  0  0  0.063614  0  3.953885  0  0  0.072164  0  3.967397  0  0  0.072071  0.058025  0  3.944811  0
Br  Br92  1  0.67181098  0.74787473  0.24999682  1  0  -0.441964  0  1.017801  0  0  -0.38452  0  1.333711  0  0  -0.403575  0  1.309284  0  0  -0.233708  -0.371636  0  1.350438  0
Br  Br93  1  0.82818841  0.24787565  0.74999768  1  0  -0.441956  0  1.017793  0  0  -0.384511  0  1.333697  0  0  -0.403566  0  1.309273  0  0  -0.233715  -0.371626  0  1.350425  0
Br  Br94  1  0.32819011  0.25212756  0.74999538  1  0  -0.441956  0  1.017845  0  0  -0.38451  0  1.33374  0  0  -0.403565  0  1.309317  0  0  -0.233699  -0.371624  0  1.350465  0
Br  Br95  1  0.17180429  0.75212241  0.25000526  1  0  -0.441963  0  1.017762  0  0  -0.384533  0  1.333688  0  0  -0.403588  0  1.309261  0  0  -0.233712  -0.371648  0  1.350418  0
Br  Br96  1  0.00005902  0.09467289  0.25000001  1  0  -0.393084  0  0.990595  0  0  -0.333124  0  1.279133  0  0  -0.353216  0  1.264239  0  0  -0.22022  -0.319366  0  1.289218  0
Br  Br97  1  0.49993910  0.59467404  0.74999611  1  0  -0.393078  0  0.990603  0  0  -0.333118  0  1.279131  0  0  -0.353209  0  1.26424  0  0  -0.220225  -0.319362  0  1.289221  0
Br  Br98  1  0.99994088  0.90532771  0.75000226  1  0  -0.393105  0  0.990582  0  0  -0.333132  0  1.2791  0  0  -0.353223  0  1.264207  0  0  -0.220232  -0.319377  0  1.289191  0
Br  Br99  1  0.50006319  0.40532741  0.25000281  1  0  -0.39306  0  0.990572  0  0  -0.333112  0  1.279118  0  0  -0.353203  0  1.264222  0  0  -0.220222  -0.319358  0  1.28921  0
N  N100  1  0.58394045  0.03884987  0.35434289  1  0  -0.292776  0  3.260986  0  0  -0.219672  0  3.524425  0  0  -0.239867  0  3.546699  0  0  -0.314097  -0.205978  0  3.508844  0
N  N101  1  0.91606069  0.53885054  0.64565744  1  0  -0.292652  0  3.260857  0  0  -0.219575  0  3.524303  0  0  -0.239772  0  3.546584  0  0  -0.314071  -0.205882  0  3.508721  0
N  N102  1  0.41605920  0.96115409  0.85434666  1  0  -0.29265  0  3.260966  0  0  -0.219548  0  3.524364  0  0  -0.239746  0  3.546648  0  0  -0.314065  -0.205854  0  3.50879  0
N  N103  1  0.08393943  0.46115262  0.14565621  1  0  -0.292788  0  3.260808  0  0  -0.219655  0  3.524203  0  0  -0.239854  0  3.5465  0  0  -0.314123  -0.205961  0  3.508625  0
N  N104  1  0.41606064  0.96115412  0.64565871  1  0  -0.292727  0  3.260832  0  0  -0.219651  0  3.524307  0  0  -0.239848  0  3.546595  0  0  -0.314099  -0.205962  0  3.508732  0
N  N105  1  0.08394279  0.46115175  0.35434483  1  0  -0.292591  0  3.26111  0  0  -0.219514  0  3.524575  0  0  -0.239709  0  3.546844  0  0  -0.314031  -0.205821  0  3.508996  0
N  N106  1  0.58393709  0.03884651  0.14566031  1  0  -0.292688  0  3.260873  0  0  -0.219584  0  3.524334  0  0  -0.23978  0  3.546605  0  0  -0.314066  -0.205893  0  3.508762  0
N  N107  1  0.91606286  0.53884459  0.85434069  1  0  -0.292608  0  3.260896  0  0  -0.219528  0  3.52434  0  0  -0.239726  0  3.546632  0  0  -0.314104  -0.205836  0  3.508767  0
N  N108  1  0.07019734  0.03118269  0.49815577  1  0  -0.217955  0  3.084124  0  0  -0.182077  0  3.374044  0  0  -0.193573  0  3.392514  0  0  -0.214473  -0.174257  0  3.361413  0
N  N109  1  0.42980730  0.53118113  0.50184404  1  0  -0.218072  0  3.084132  0  0  -0.18221  0  3.374074  0  0  -0.193707  0  3.392542  0  0  -0.21455  -0.17439  0  3.361449  0
N  N110  1  0.92980753  0.96881330  0.99815463  1  0  -0.218035  0  3.084107  0  0  -0.182185  0  3.374097  0  0  -0.193682  0  3.392565  0  0  -0.21453  -0.174365  0  3.361469  0
N  N111  1  0.57019481  0.46881647  0.00184070  1  0  -0.218127  0  3.084263  0  0  -0.182262  0  3.374233  0  0  -0.19376  0  3.392699  0  0  -0.2146  -0.174442  0  3.361602  0
N  N112  1  0.92981094  0.96881622  0.50184583  1  0  -0.218085  0  3.08411  0  0  -0.182222  0  3.37408  0  0  -0.193718  0  3.392544  0  0  -0.214557  -0.174403  0  3.361452  0
N  N113  1  0.57019259  0.46881355  0.49815488  1  0  -0.218048  0  3.084156  0  0  -0.182164  0  3.374102  0  0  -0.193661  0  3.392569  0  0  -0.214527  -0.174344  0  3.361476  0
N  N114  1  0.07019236  0.03117884  0.00184294  1  0  -0.218063  0  3.083836  0  0  -0.182194  0  3.3738  0  0  -0.193691  0  3.392264  0  0  -0.214485  -0.174373  0  3.361172  0
N  N115  1  0.42980988  0.53118244  0.99815486  1  0  -0.218047  0  3.084135  0  0  -0.182195  0  3.374106  0  0  -0.193691  0  3.392575  0  0  -0.214517  -0.174373  0  3.361475  0
