# generated using pymatgen
data_Zn4H34C36N4O13
_symmetry_space_group_name_H-M   'P 1'
_cell_length_a   18.05809405
_cell_length_b   18.16854983
_cell_length_c   18.18983960
_cell_angle_alpha   60.76679864
_cell_angle_beta   60.61052530
_cell_angle_gamma   60.71038231
_symmetry_Int_Tables_number   1
_chemical_formula_structural   Zn4H34C36N4O13
_chemical_formula_sum   'Zn8 H68 C72 N8 O26'
_cell_volume   4286.20456591
_cell_formula_units_Z   2
loop_
 _symmetry_equiv_pos_site_id
 _symmetry_equiv_pos_as_xyz
  1  'x, y, z'
loop_
 _atom_site_type_symbol
 _atom_site_label
 _atom_site_symmetry_multiplicity
 _atom_site_fract_x
 _atom_site_fract_y
 _atom_site_fract_z
 _atom_site_occupancy
 _atom_site_pbe_bader_charge
 _atom_site_pbe_bader_spin_density
 _atom_site_pbe_cm5_charge
 _atom_site_pbe_ddec_charge
 _atom_site_pbe_ddec_spin_density
 _atom_site_pbe_ddec_sum_bond_order
 _atom_site_pbe_magmom
Zn  Zn0  1  0.61801016  0.79460246  0.79476018  1  1.298825  0  0.661808  0.95301  0  2.403976  0
Zn  Zn1  1  0.38198692  0.20540097  0.20523730  1  1.298788  0  0.661791  0.952992  0  2.403919  0
Zn  Zn2  1  0.79430180  0.79362632  0.61784835  1  1.317355  0  0.661826  0.952914  0  2.372892  0
Zn  Zn3  1  0.20569469  0.20637512  0.38215260  1  1.317503  0  0.661816  0.952901  0  2.37292  0
Zn  Zn4  1  0.79359658  0.61876965  0.79421972  1  1.298228  0  0.661498  0.949179  0  2.398272  0
Zn  Zn5  1  0.20640013  0.38123112  0.20578146  1  1.298258  0  0.6615  0.94913  0  2.398349  0
Zn  Zn6  1  0.79372217  0.79320651  0.79483724  1  1.304416  0  0.661455  0.943713  0  2.429956  0
Zn  Zn7  1  0.20627648  0.20679226  0.20516342  1  1.304449  0  0.661436  0.943674  0  2.429985  0
H  H8  1  0.54358244  0.92772443  0.13407532  1  0.077608  0  0.098035  0.095409  0  0.992797  0
H  H9  1  0.59401385  0.85906092  0.46807804  1  0.085149  0  0.097724  0.083344  0  0.998005  0
H  H10  1  0.59798464  0.07309535  0.47474161  1  0.060728  0  0.09752  0.083578  0  0.995799  0
H  H11  1  0.40201504  0.92690407  0.52525547  1  0.060793  0  0.097489  0.083518  0  0.995861  0
H  H12  1  0.59738379  0.03162745  0.34278244  1  0.076729  0  0.099081  0.088448  0  0.992248  0
H  H13  1  0.40261462  0.96837197  0.65721362  1  0.076742  0  0.099113  0.088512  0  0.992274  0
H  H14  1  0.65744213  0.98528532  0.95650721  1  0.081724  0  0.101972  0.100686  0  0.984915  0
H  H15  1  0.34255943  0.01471611  0.04348905  1  0.08174  0  0.101991  0.100739  0  0.984973  0
H  H16  1  0.39380392  0.54079546  0.13525988  1  0.022574  0  0.097186  0.093912  0  0.995282  0
H  H17  1  0.60619254  0.45920798  0.86474011  1  0.022595  0  0.097181  0.093944  0  0.995287  0
H  H18  1  0.40385259  0.65650563  0.95777611  1  0.073795  0  0.102474  0.102307  0  0.982188  0
H  H19  1  0.45641871  0.07227633  0.86592147  1  0.077743  0  0.098043  0.095417  0  0.992772  0
H  H20  1  0.59614428  0.34349848  0.04222389  1  0.073858  0  0.10251  0.102381  0  0.982161  0
H  H21  1  0.14735567  0.52057815  0.92462182  1  0.054758  0  0.09885  0.09516  0  0.987581  0
H  H22  1  0.85264510  0.47941995  0.07537703  1  0.054474  0  0.09885  0.095114  0  0.98761  0
H  H23  1  0.97899651  0.65755467  0.96361724  1  0.078481  0  0.096582  0.097804  0  0.996588  0
H  H24  1  0.02100426  0.34244342  0.03638106  1  0.078477  0  0.096578  0.097815  0  0.996623  0
H  H25  1  0.89860653  0.03278275  0.82805862  1  0.033024  0  0.081358  0.103331  0  1.0098  0
H  H26  1  0.00160429  0.94349421  0.82812285  1  0.006182  0  0.081773  0.104173  0  1.00975  0
H  H27  1  0.99698776  0.05338107  0.80124300  1  0.002161  0  0.083432  0.107714  0  1.007145  0
H  H28  1  0.06757901  0.01388285  0.66130224  1  0.012288  0  0.083087  0.068008  0  0.99411  0
H  H29  1  0.96555909  0.10262330  0.66095305  1  0.02189  0  0.085418  0.072106  0  0.98159  0
H  H30  1  0.92299361  0.14663917  0.51964788  1  0.058431  0  0.098494  0.097347  0  0.9875  0
H  H31  1  0.88533654  0.99494430  0.71654354  1  0.044087  0  0.090323  0.090332  0  0.978406  0
H  H32  1  0.98598934  0.90541803  0.71888969  1  0.036877  0  0.088833  0.086703  0  0.982806  0
H  H33  1  0.99845238  0.05648864  0.17185162  1  0.006413  0  0.081784  0.104153  0  1.009721  0
H  H34  1  0.10142241  0.96716534  0.17196253  1  0.032997  0  0.081297  0.103208  0  1.009849  0
H  H35  1  0.00302066  0.94661504  0.19875251  1  0.002163  0  0.08336  0.107569  0  1.007107  0
H  H36  1  0.03440965  0.89738143  0.33906653  1  0.02167  0  0.085393  0.072088  0  0.98155  0
H  H37  1  0.93241166  0.98614724  0.33867318  1  0.012294  0  0.083108  0.067942  0  0.994169  0
H  H38  1  0.01402693  0.09457744  0.28110448  1  0.036964  0  0.088857  0.086678  0  0.982838  0
H  H39  1  0.11466809  0.00503845  0.28346590  1  0.043786  0  0.090333  0.090408  0  0.978287  0
H  H40  1  0.17191933  0.86288483  0.57724125  1  0.397894  0  0.287298  0.279219  0  0.965022  0
H  H41  1  0.07700396  0.85336093  0.48035211  1  0.058424  0  0.098486  0.097315  0  0.987491  0
H  H42  1  0.18271131  0.96366517  0.52935240  1  0.403965  0  0.2829  0.277263  0  0.989522  0
H  H43  1  0.82807783  0.13711460  0.42276091  1  0.397924  0  0.287316  0.279286  0  0.964891  0
H  H44  1  0.81728670  0.03633359  0.47064858  1  0.404687  0  0.282889  0.277649  0  0.989725  0
H  H45  1  0.68935698  0.66044723  0.41315299  1  0.014511  0  0.082102  0.103897  0  1.010938  0
H  H46  1  0.74336925  0.74159688  0.33435221  1  0.016236  0  0.084168  0.107674  0  1.00817  0
H  H47  1  0.74764820  0.66246432  0.30064837  1  0.009522  0  0.080664  0.101866  0  1.019025  0
H  H48  1  0.89455111  0.61966350  0.31886354  1  0.005897  0  0.087823  0.074573  0  0.978202  0
H  H49  1  0.84159665  0.53831496  0.39531579  1  0.026667  0  0.08679  0.07323  0  0.978613  0
H  H50  1  0.78050936  0.60498883  0.51537645  1  0.036308  0  0.08986  0.086091  0  0.976528  0
H  H51  1  0.83301813  0.68698237  0.43880231  1  0.043986  0  0.093951  0.097845  0  0.979162  0
H  H52  1  0.92020826  0.41025459  0.52180692  1  0.037754  0  0.097008  0.086519  0  0.992572  0
H  H53  1  0.25665656  0.25840793  0.66562278  1  0.016381  0  0.084204  0.107732  0  1.008089  0
H  H54  1  0.31064374  0.33957960  0.58683010  1  0.013794  0  0.082029  0.103826  0  1.010917  0
H  H55  1  0.25235881  0.33753980  0.69934224  1  0.010016  0  0.080668  0.101847  0  1.019114  0
H  H56  1  0.15838741  0.46168379  0.60469645  1  0.02662  0  0.08677  0.073154  0  0.978631  0
H  H57  1  0.10545567  0.38031657  0.68114122  1  0.00612  0  0.087777  0.074516  0  0.978241  0
H  H58  1  0.16698573  0.31301973  0.56118974  1  0.043934  0  0.093976  0.097841  0  0.979236  0
H  H59  1  0.21948917  0.39501796  0.48462197  1  0.036252  0  0.089867  0.086072  0  0.976623  0
H  H60  1  0.58427542  0.16445726  0.86807425  1  0.415328  0  0.293065  0.282657  0  0.969439  0
H  H61  1  0.47374415  0.21694347  0.89319064  1  0.386392  0  0.291024  0.279794  0  0.965567  0
H  H62  1  0.41572378  0.83554551  0.13192142  1  0.415372  0  0.293115  0.282703  0  0.969405  0
H  H63  1  0.07979141  0.58974685  0.47819356  1  0.037936  0  0.097007  0.086511  0  0.992628  0
H  H64  1  0.52625529  0.78305864  0.10680853  1  0.3862  0  0.291008  0.279808  0  0.965545  0
H  H65  1  0.38818084  0.58557588  0.86177889  1  0.402277  0  0.292146  0.281165  0  0.969742  0
H  H66  1  0.41484610  0.47588801  0.88948273  1  0.397497  0  0.290711  0.280244  0  0.964774  0
H  H67  1  0.61181562  0.41442755  0.13822001  1  0.402332  0  0.292191  0.281252  0  0.969686  0
H  H68  1  0.58514932  0.52411477  0.11051920  1  0.397303  0  0.290775  0.280295  0  0.964807  0
H  H69  1  0.86213419  0.58296737  0.16785083  1  0.388709  0  0.28489  0.275196  0  0.975597  0
H  H70  1  0.96286968  0.53126559  0.18023522  1  0.416172  0  0.284054  0.281269  0  0.985539  0
H  H71  1  0.13786552  0.41703005  0.83214722  1  0.388542  0  0.284884  0.275182  0  0.975609  0
H  H72  1  0.03712896  0.46873316  0.81976380  1  0.41611  0  0.284084  0.281255  0  0.985473  0
H  H73  1  0.04061442  0.59400402  0.34251365  1  0.077414  0  0.097729  0.091422  0  0.993267  0
H  H74  1  0.95938461  0.40599742  0.65748715  1  0.077408  0  0.09773  0.091418  0  0.99328  0
H  H75  1  0.40598456  0.14093850  0.53191966  1  0.085311  0  0.097711  0.083312  0  0.997995  0
C  C76  1  0.88994668  0.89013330  0.61202198  1  1.557886  0  0.228365  0.62563  0  4.146242  0
C  C77  1  0.55074767  0.55504183  0.94625535  1  -0.019103  0  -0.013858  -0.081285  0  3.657597  0
C  C78  1  0.45200350  0.51136537  0.95408952  1  0.469385  0  0.099307  0.272098  0  3.72791  0
C  C79  1  0.54799251  0.48863940  0.04590949  1  0.469048  0  0.099302  0.272114  0  3.727826  0
C  C80  1  0.98877719  0.58759704  0.98013945  1  -0.058296  0  -0.089162  -0.145411  0  3.647082  0
C  C81  1  0.01122336  0.41240172  0.01985863  1  -0.058201  0  -0.089195  -0.14546  0  3.647168  0
C  C82  1  0.08088985  0.51274137  0.95748579  1  -0.028143  0  -0.074742  -0.109099  0  3.625637  0
C  C83  1  0.91911155  0.48725673  0.04251219  1  -0.028132  0  -0.074675  -0.108942  0  3.625495  0
C  C84  1  0.05122516  0.44441997  0.05340534  1  0.011926  0  -0.012314  -0.078573  0  3.677966  0
C  C85  1  0.94877580  0.55557946  0.94659275  1  0.011445  0  -0.012304  -0.078492  0  3.677834  0
C  C86  1  0.95859846  0.51938727  0.07741348  1  0.447112  0  0.092047  0.266114  0  3.734272  0
C  C87  1  0.11004940  0.10986747  0.38798006  1  1.557564  0  0.228418  0.625776  0  4.146315  0
C  C88  1  0.04140294  0.48061083  0.92258505  1  0.447459  0  0.092108  0.266107  0  3.734299  0
C  C89  1  0.98058533  0.98934079  0.58802725  1  -0.002468  0  -0.008004  0.038741  0  3.628616  0
C  C90  1  0.01941309  0.01065864  0.41197264  1  -0.002411  0  -0.007962  0.038815  0  3.628563  0
C  C91  1  0.60871079  0.61187915  0.89099008  1  1.55868  0  0.219944  0.612234  0  4.175503  0
C  C92  1  0.39128739  0.38812296  0.10901081  1  1.558879  0  0.219853  0.612074  0  4.175945  0
C  C93  1  0.95682794  0.08027529  0.51242005  1  -0.060492  0  -0.076388  -0.145606  0  3.628727  0
C  C94  1  0.04317049  0.91972414  0.48758094  1  -0.060592  0  -0.076349  -0.14552  0  3.628663  0
C  C95  1  0.05313079  0.05182289  0.44341049  1  -0.028516  0  -0.013405  -0.119882  0  3.67979  0
C  C96  1  0.94686763  0.94817654  0.55658995  1  -0.028548  0  -0.013404  -0.119771  0  3.679558  0
C  C97  1  0.07849793  0.96023927  0.51764247  1  0.427877  0  0.090483  0.24446  0  3.719307  0
C  C98  1  0.51000210  0.08218581  0.95704832  1  0.439068  0  0.099955  0.282438  0  3.709166  0
C  C99  1  0.92149986  0.03976015  0.48235829  1  0.427848  0  0.09049  0.244528  0  3.719343  0
C  C100  1  0.92363968  0.55584582  0.47801237  1  0.03723  0  0.005466  0.109434  0  3.620454  0
C  C101  1  0.07635999  0.44415563  0.52198812  1  0.037443  0  0.005431  0.109318  0  3.620503  0
C  C102  1  0.95501429  0.45076064  0.51290276  1  -0.021286  0  -0.074132  -0.093887  0  3.627847  0
C  C103  1  0.04498515  0.54924147  0.48709751  1  -0.021413  0  -0.074118  -0.093851  0  3.627848  0
C  C104  1  0.05289631  0.44891020  0.44588957  1  0.008159  0  -0.01045  -0.065604  0  3.659016  0
C  C105  1  0.94710295  0.55109058  0.55411200  1  0.008189  0  -0.010426  -0.065543  0  3.659048  0
C  C106  1  0.02217804  0.55274325  0.41275330  1  -0.041845  0  -0.082028  -0.103516  0  3.653633  0
C  C107  1  0.97782099  0.44725820  0.58724750  1  -0.041842  0  -0.082024  -0.103469  0  3.653588  0
C  C108  1  0.55392488  0.04131050  0.48514037  1  -0.011756  0  -0.072895  -0.06363  0  3.63308  0
C  C109  1  0.48999924  0.91781630  0.04294827  1  0.438955  0  0.099938  0.282438  0  3.709178  0
C  C110  1  0.44607331  0.95868959  0.51485712  1  -0.011914  0  -0.072852  -0.063538  0  3.633041  0
C  C111  1  0.44845900  0.07760242  0.51855843  1  -0.065926  0  -0.072567  -0.063458  0  3.629222  0
C  C112  1  0.55154046  0.92239767  0.48143788  1  -0.065547  0  -0.072581  -0.063535  0  3.629156  0
C  C113  1  0.44980175  0.05384445  0.44511821  1  0.051341  0  -0.008577  -0.029989  0  3.651011  0
C  C114  1  0.55019602  0.94615496  0.55487981  1  0.051022  0  -0.008608  -0.030068  0  3.651137  0
C  C115  1  0.60853766  0.88671125  0.61148568  1  1.522802  0  0.223816  0.604366  0  4.18069  0
C  C116  1  0.39145904  0.11328951  0.38851330  1  1.522825  0  0.223785  0.604346  0  4.180764  0
C  C117  1  0.55481145  0.01715961  0.41290774  1  -0.054256  0  -0.078879  -0.069367  0  3.649741  0
C  C118  1  0.44518823  0.98283982  0.58708934  1  -0.054201  0  -0.078921  -0.069484  0  3.649907  0
C  C119  1  0.89135511  0.61170354  0.88936693  1  1.512447  0  0.225807  0.617835  0  4.160822  0
C  C120  1  0.44625122  0.58672233  0.97699991  1  -0.041905  0  -0.082705  -0.120968  0  3.671373  0
C  C121  1  0.10864459  0.38829589  0.11063289  1  1.512057  0  0.225826  0.617867  0  4.160799  0
C  C122  1  0.89012613  0.60939930  0.61055449  1  1.533728  0  0.223974  0.612229  0  4.170223  0
C  C123  1  0.10987014  0.39060280  0.38944625  1  1.533861  0  0.223993  0.612316  0  4.170005  0
C  C124  1  0.61235282  0.89612644  0.88431487  1  1.515357  0  0.219108  0.610767  0  4.183741  0
C  C125  1  0.38764788  0.10387566  0.11568149  1  1.515676  0  0.219177  0.610811  0  4.183418  0
C  C126  1  0.58722531  0.99200463  0.97621330  1  -0.049039  0  -0.083233  -0.123134  0  3.673462  0
C  C127  1  0.41277540  0.00799747  0.02378306  1  -0.048992  0  -0.08323  -0.123241  0  3.673434  0
C  C128  1  0.52488499  0.95940659  0.07393877  1  -0.061207  0  -0.081436  -0.135933  0  3.645351  0
C  C129  1  0.47511571  0.04059552  0.92605759  1  -0.061589  0  -0.081445  -0.135864  0  3.645388  0
C  C130  1  0.44471465  0.04819830  0.05709365  1  0.02016  0  -0.013431  -0.083631  0  3.662172  0
C  C131  1  0.55374396  0.41328110  0.02300016  1  -0.042344  0  -0.082707  -0.121093  0  3.67151  0
C  C132  1  0.55528583  0.95180447  0.94290249  1  0.020162  0  -0.013351  -0.083761  0  3.662538  0
C  C133  1  0.95894559  0.97715908  0.68334830  1  -0.024902  0  -0.165319  -0.187066  0  3.99339  0
C  C134  1  0.99420617  0.03092965  0.69498693  1  -0.018492  0  -0.166679  -0.086198  0  3.978552  0
C  C135  1  0.97177223  0.01446090  0.79331615  1  -0.048073  0  -0.246036  -0.352935  0  3.997781  0
C  C136  1  0.04105798  0.02283635  0.31665103  1  -0.024631  0  -0.165372  -0.187128  0  3.993317  0
C  C137  1  0.00578898  0.96907579  0.30501107  1  -0.018169  0  -0.166653  -0.086154  0  3.978449  0
C  C138  1  0.02825017  0.98552189  0.20668233  1  -0.048492  0  -0.245924  -0.352585  0  3.997494  0
C  C139  1  0.83908779  0.61759199  0.45538700  1  -0.031905  0  -0.16215  -0.203578  0  3.986289  0
C  C140  1  0.83551496  0.60778212  0.37819236  1  -0.015432  0  -0.163825  -0.081339  0  3.966874  0
C  C141  1  0.74939100  0.67150387  0.35523642  1  -0.042563  0  -0.244886  -0.353767  0  4.001068  0
C  C142  1  0.44136605  0.52325463  0.07469865  1  -0.012316  0  -0.081169  -0.132378  0  3.641199  0
C  C143  1  0.16091228  0.38241011  0.54461077  1  -0.031857  0  -0.162138  -0.203514  0  3.986538  0
C  C144  1  0.16448435  0.39221464  0.62180896  1  -0.015739  0  -0.163731  -0.081095  0  3.96686  0
C  C145  1  0.25061700  0.32850492  0.64475086  1  -0.042331  0  -0.244905  -0.35384  0  4.0011  0
C  C146  1  0.55863019  0.47674947  0.92530112  1  -0.012306  0  -0.081116  -0.132366  0  3.641277  0
C  C147  1  0.44924812  0.44496361  0.05374398  1  -0.018804  0  -0.013837  -0.081231  0  3.657703  0
N  N148  1  0.16601483  0.92048782  0.52430380  1  -1.149516  0  -0.626873  -0.667237  0  3.250977  0
N  N149  1  0.83398211  0.07951228  0.47569760  1  -1.150344  0  -0.626863  -0.667895  0  3.250943  0
N  N150  1  0.52353065  0.16558975  0.91738047  1  -1.14877  0  -0.616245  -0.656837  0  3.26914  0
N  N151  1  0.47647006  0.83441236  0.08261644  1  -1.148541  0  -0.616286  -0.656893  0  3.269036  0
N  N152  1  0.39526513  0.52609874  0.91226563  1  -1.167778  0  -0.616281  -0.655451  0  3.276432  0
N  N153  1  0.60472984  0.47390536  0.08773477  1  -1.167537  0  -0.616386  -0.655577  0  3.276489  0
N  N154  1  0.91841614  0.52801991  0.16347697  1  -1.162372  0  -0.625022  -0.669693  0  3.255786  0
N  N155  1  0.08158399  0.47197818  0.83652109  1  -1.162216  0  -0.625059  -0.669639  0  3.255695  0
O  O156  1  0.75009802  0.74981182  0.74895760  1  -1.215031  0  -0.573388  -1.027653  0  2.552063  0
O  O157  1  0.30671433  0.42874089  0.13568974  1  -1.177748  0  -0.319026  -0.549397  0  2.335013  0
O  O158  1  0.87497172  0.85871669  0.69605208  1  -1.168218  0  -0.311648  -0.545399  0  2.355082  0
O  O159  1  0.12502584  0.14128340  0.30394737  1  -1.168234  0  -0.311656  -0.545441  0  2.354952  0
O  O160  1  0.56948884  0.69604667  0.87647161  1  -1.166423  0  -0.32222  -0.556986  0  2.326086  0
O  O161  1  0.43050739  0.30395744  0.12352816  1  -1.166537  0  -0.322209  -0.556932  0  2.326347  0
O  O162  1  0.69337471  0.86683620  0.57014922  1  -1.168904  0  -0.322912  -0.556072  0  2.313456  0
O  O163  1  0.30662349  0.13316389  0.42984991  1  -1.169101  0  -0.322891  -0.556067  0  2.313613  0
O  O164  1  0.87600003  0.57038041  0.86053053  1  -1.168379  0  -0.318309  -0.553914  0  2.307694  0
O  O165  1  0.12399963  0.42962103  0.13946722  1  -1.168555  0  -0.318302  -0.553885  0  2.307717  0
O  O166  1  0.87203160  0.69373651  0.56972341  1  -1.180912  0  -0.320849  -0.557511  0  2.315276  0
O  O167  1  0.24989869  0.25018895  0.25104358  1  -1.214971  0  -0.573405  -1.027646  0  2.552018  0
O  O168  1  0.12796998  0.30626495  0.43027778  1  -1.180993  0  -0.32086  -0.557561  0  2.315218  0
O  O169  1  0.69714598  0.86628579  0.86986462  1  -1.173838  0  -0.323059  -0.55526  0  2.327769  0
O  O170  1  0.30285435  0.13371365  0.13013543  1  -1.173975  0  -0.323076  -0.555299  0  2.32773  0
O  O171  1  0.86422908  0.57049478  0.69475572  1  -1.184065  0  -0.318266  -0.548464  0  2.332117  0
O  O172  1  0.13576085  0.42950529  0.30524584  1  -1.184086  0  -0.318235  -0.548433  0  2.332016  0
O  O173  1  0.57170248  0.88088335  0.85491419  1  -1.160724  0  -0.318925  -0.549427  0  2.330714  0
O  O174  1  0.42829879  0.11912276  0.14507882  1  -1.160879  0  -0.318959  -0.54947  0  2.330599  0
O  O175  1  0.56921395  0.86051462  0.69570292  1  -1.171882  0  -0.31757  -0.547519  0  2.324579  0
O  O176  1  0.43078275  0.13948613  0.30429552  1  -1.171954  0  -0.317538  -0.547517  0  2.324534  0
O  O177  1  0.86153439  0.69557109  0.87436200  1  -1.163428  0  -0.317112  -0.545228  0  2.334584  0
O  O178  1  0.13846490  0.30442767  0.12563944  1  -1.163065  0  -0.317143  -0.545233  0  2.334571  0
O  O179  1  0.86096398  0.87586044  0.56999418  1  -1.168617  0  -0.3173  -0.55311  0  2.308764  0
O  O180  1  0.13903142  0.12414232  0.43000447  1  -1.16858  0  -0.317355  -0.553208  0  2.308867  0
O  O181  1  0.69328196  0.57126123  0.86431537  1  -1.177658  0  -0.319091  -0.549481  0  2.334939  0
