# generated using pymatgen
data_Cu3H10C12Br2(NO3)2
_symmetry_space_group_name_H-M   'P 1'
_cell_length_a   7.09529713
_cell_length_b   10.17819263
_cell_length_c   13.09385531
_cell_angle_alpha   89.88432744
_cell_angle_beta   89.97179896
_cell_angle_gamma   112.67721160
_symmetry_Int_Tables_number   1
_chemical_formula_structural   Cu3H10C12Br2(NO3)2
_chemical_formula_sum   'Cu6 H20 C24 Br4 N4 O12'
_cell_volume   872.49714771
_cell_formula_units_Z   2
loop_
 _symmetry_equiv_pos_site_id
 _symmetry_equiv_pos_as_xyz
  1  'x, y, z'
loop_
 _atom_site_type_symbol
 _atom_site_label
 _atom_site_symmetry_multiplicity
 _atom_site_fract_x
 _atom_site_fract_y
 _atom_site_fract_z
 _atom_site_occupancy
 _atom_site_hle17_ddec_charge
 _atom_site_hle17_ddec_spin_density
 _atom_site_hle17_ddec_sum_bond_order
 _atom_site_hle17_magmom
 _atom_site_hse06_10hf_ddec_charge
 _atom_site_hse06_10hf_ddec_spin_density
 _atom_site_hse06_10hf_ddec_sum_bond_order
 _atom_site_hse06_10hf_magmom
 _atom_site_hse06_ddec_charge
 _atom_site_hse06_ddec_spin_density
 _atom_site_hse06_ddec_sum_bond_order
 _atom_site_hse06_magmom
 _atom_site_pbe_cm5_charge
 _atom_site_pbe_ddec_charge
 _atom_site_pbe_ddec_spin_density
 _atom_site_pbe_ddec_sum_bond_order
 _atom_site_pbe_magmom
Cu  Cu0  1  0.24448313  0.19312823  0.67929679  1  0.786475  -0.641122  1.885193  -0.429  0.783592  -0.760633  2.291464  -0.564  0.888944  -0.882777  2.20452  -0.665  0.584264  0.724446  -0.652534  2.345353  -0.484
Cu  Cu1  1  0.25607853  0.80815126  0.17856308  1  0.779759  0.589541  1.888956  0.437  0.777002  0.703645  2.295246  0.565  0.882877  0.791042  2.208391  0.663  0.581408  0.719381  0.636131  2.34828  0.5
Cu  Cu2  1  0.75623692  0.80697088  0.32083713  1  0.778791  0.595502  1.889038  0.441  0.77614  0.706707  2.2953  0.567  0.881744  0.791612  2.208343  0.663  0.582241  0.718909  0.649979  2.34835  0.51
Cu  Cu3  1  0.74450889  0.19231748  0.82162328  1  0.778062  0.596232  1.892555  0.442  0.77583  0.707331  2.298719  0.568  0.880619  0.791452  2.212369  0.663  0.583079  0.719575  0.653698  2.351206  0.513
Cu  Cu4  1  0.00110956  0.99960432  0.49870733  1  1.01575  0.73121  1.796669  0.539  1.029751  0.831546  2.182304  0.664  1.118704  0.886344  2.104844  0.739  0.653415  0.975378  0.7912  2.24297  0.616
Cu  Cu5  1  0.49983014  0.00018387  0.99979579  1  1.00925  0.71865  1.803389  0.529  1.02426  0.817714  2.188404  0.653  1.114804  0.878788  2.108926  0.733  0.651068  0.969879  0.768104  2.249464  0.599
H  H6  1  0.27564207  0.99079097  0.59967017  1  0.398262  0.000425  0.86305  0.001  0.386943  -9.9e-05  0.920695  0.0  0.398879  -0.000103  0.910445  0.0  0.277844  0.378781  -7.1e-05  0.9278  0.0
H  H7  1  0.22245981  0.00945506  0.09751925  1  0.400066  -0.002752  0.859516  -0.005  0.388072  0.00013  0.918501  -0.001  0.399824  -0.000173  0.908727  -0.001  0.278889  0.380123  0.000503  0.925255  0.0
H  H8  1  0.72371961  0.00847604  0.40029507  1  0.398326  -0.002896  0.861609  -0.005  0.386205  4.9e-05  0.921287  -0.001  0.397951  -0.000239  0.911464  -0.001  0.277495  0.378215  0.000421  0.928175  0.0
H  H9  1  0.77773709  0.99129297  0.90203920  1  0.398773  -0.002846  0.861381  -0.005  0.386823  9e-05  0.920623  -0.001  0.398626  -0.000216  0.910711  -0.001  0.277402  0.378826  0.000463  0.927537  0.0
H  H10  1  0.36901493  0.79448520  0.39696367  1  0.098896  0.000712  0.954246  0.001  0.108012  0.000957  1.017725  0.001  0.112395  0.000679  1.014056  0.001  0.112745  0.104706  0.00127  1.020752  0.001
H  H11  1  0.13083998  0.20622410  0.89757442  1  0.099017  -0.000111  0.954925  -0.001  0.107959  -3.9e-05  1.018434  -0.001  0.112355  -0.000154  1.014714  -0.001  0.112338  0.104522  7.9e-05  1.021604  -0.001
H  H12  1  0.63124427  0.20536491  0.60318808  1  0.099224  0.001286  0.953981  0.001  0.108028  0.001362  1.017529  0.001  0.112416  0.001086  1.013774  0.001  0.112856  0.104579  0.001609  1.020788  0.001
H  H13  1  0.86913390  0.79392920  0.10244427  1  0.09867  0.000807  0.954964  0.001  0.107606  0.001082  1.018659  0.001  0.112056  0.000771  1.014861  0.001  0.112169  0.1041  0.001409  1.02196  0.001
H  H14  1  0.33575958  0.59984858  0.52149156  1  0.122063  0.000175  0.924242  0.0  0.136486  0.000217  0.974315  0.0  0.140582  0.000172  0.972247  0.0  0.117036  0.133524  0.000296  0.975929  0.0
H  H15  1  0.16400085  0.40043716  0.02183365  1  0.122495  -0.000263  0.922899  0.0  0.13644  -0.000252  0.973451  0.0  0.140439  -0.000209  0.971479  0.0  0.117135  0.133492  -0.000288  0.975055  0.0
H  H16  1  0.66409360  0.39994093  0.47858394  1  0.122187  0.000396  0.923604  0.0  0.136287  0.000398  0.974039  0.0  0.140267  0.000284  0.972121  0.0  0.11693  0.133289  0.000518  0.975763  0.001
H  H17  1  0.83613046  0.59969833  0.97820565  1  0.1221  0.000389  0.923137  0.0  0.13635  0.000376  0.973402  0.0  0.140416  0.000258  0.971398  0.0  0.117033  0.13328  0.000501  0.975173  0.001
H  H18  1  0.98161671  0.29706518  0.29575769  1  0.128244  0.000409  0.937515  0.0  0.137693  0.000414  0.995201  0.0  0.14339  0.0003  0.990707  0.0  0.112445  0.13379  0.000569  0.997896  0.0
H  H19  1  0.51767836  0.70405006  0.79525072  1  0.128468  -0.000187  0.938582  0.0  0.136983  -0.000182  0.997271  0.0  0.142668  -0.000167  0.992774  0.0  0.111839  0.133037  -0.000224  1.000053  0.0
H  H20  1  0.01810885  0.70303869  0.70419464  1  0.12821  0.000504  0.937475  0.0  0.137637  0.000433  0.995111  0.0  0.143307  0.00031  0.990671  0.0  0.112557  0.133625  0.000591  0.997865  0.0
H  H21  1  0.48260718  0.29610467  0.20480305  1  0.128778  0.000418  0.93829  0.0  0.137445  0.000436  0.996748  0.0  0.14312  0.000311  0.992255  0.0  0.112117  0.133436  0.000591  0.999541  0.0
H  H22  1  0.04016196  0.50380514  0.17743544  1  0.08264  0.000444  0.967412  0.001  0.090197  0.000485  1.033166  0.001  0.092424  0.000371  1.031464  0.001  0.115827  0.088589  0.000599  1.034467  0.001
H  H23  1  0.45896195  0.49771383  0.67715503  1  0.083255  -0.000602  0.966018  -0.001  0.090193  -0.000594  1.032249  -0.001  0.092377  -0.000467  1.030614  -0.001  0.115902  0.088612  -0.000695  1.033494  -0.001
H  H24  1  0.95987496  0.49639419  0.82259237  1  0.082658  0.000659  0.966939  0.001  0.090118  0.000683  1.032714  0.001  0.092232  0.000496  1.03109  0.001  0.115768  0.08839  0.000823  1.034082  0.002
H  H25  1  0.54091914  0.50242483  0.32284154  1  0.083201  0.000653  0.966478  0.001  0.090267  0.000681  1.032532  0.001  0.092418  0.000492  1.030917  0.001  0.115719  0.088508  0.000818  1.033918  0.002
C  C26  1  0.28677352  0.68297473  0.37723313  1  0.117574  -0.004826  3.675474  -0.004  0.085637  -0.001383  3.940203  -0.001  0.092579  -0.002518  3.957879  -0.002  0.041627  0.080052  -0.000314  3.930979  0.0
C  C27  1  0.21294773  0.31777837  0.87757942  1  0.11691  0.006026  3.674329  0.007  0.085515  0.001935  3.938907  0.003  0.092481  0.00258  3.956473  0.004  0.041998  0.079759  0.001481  3.930012  0.003
C  C28  1  0.71326365  0.31692565  0.62288502  1  0.116378  -0.003635  3.676081  -0.004  0.084462  -0.000481  3.941314  -0.001  0.091323  -0.001585  3.959097  -0.002  0.041224  0.078875  0.000458  3.932244  0.0
C  C29  1  0.78708700  0.68239082  0.12245758  1  0.117597  -0.004141  3.675516  -0.003  0.085679  -0.001201  3.940143  -0.001  0.092582  -0.002232  3.957756  -0.002  0.042517  0.079939  -0.000242  3.931359  0.0
C  C30  1  0.26564656  0.57425748  0.44642384  1  -0.101887  0.005612  3.67944  0.006  -0.126194  0.003019  3.930031  0.004  -0.130111  0.002991  3.946204  0.004  -0.072639  -0.123525  0.003231  3.919917  0.004
C  C31  1  0.23412230  0.42629339  0.94663625  1  -0.10151  -0.007028  3.677214  -0.007  -0.125413  -0.00296  3.928173  -0.003  -0.129288  -0.003539  3.944541  -0.004  -0.072491  -0.122864  -0.002405  3.918164  -0.003
C  C32  1  0.73418600  0.42556803  0.55366462  1  -0.10081  0.004564  3.678674  0.005  -0.124991  0.003071  3.929449  0.004  -0.128969  0.002922  3.946053  0.003  -0.071907  -0.122401  0.003393  3.919385  0.004
C  C33  1  0.76605274  0.57387975  0.05342211  1  -0.101005  0.003885  3.678319  0.004  -0.125232  0.002485  3.929023  0.003  -0.129101  0.002354  3.945233  0.003  -0.072512  -0.122726  0.002875  3.919326  0.003
C  C34  1  0.15604293  0.43299947  0.41776751  1  -0.010214  -0.003313  3.719643  -0.003  0.009224  -0.002217  3.947367  -0.002  0.008784  -0.003035  3.963505  -0.003  0.004351  0.009138  -0.001207  3.936492  -0.001
C  C35  1  0.34362983  0.56762822  0.91769601  1  -0.009694  0.018302  3.71805  0.02  0.008661  0.011233  3.94717  0.013  0.007825  0.009391  3.963589  0.011  0.003912  0.008853  0.012513  3.936144  0.014
C  C36  1  0.84374874  0.56687034  0.58223462  1  -0.010239  0.007308  3.720498  0.009  0.008848  0.006197  3.948284  0.008  0.008104  0.003681  3.964799  0.005  0.004085  0.008963  0.007988  3.93722  0.009
C  C37  1  0.65661820  0.43255323  0.08239440  1  -0.010511  0.007349  3.720674  0.009  0.008532  0.006204  3.948657  0.008  0.007984  0.003812  3.964799  0.005  0.003831  0.008442  0.007911  3.937866  0.009
C  C38  1  0.06871013  0.40591521  0.32037592  1  -0.117535  0.005331  3.68926  0.006  -0.135587  0.002987  3.926485  0.003  -0.139775  0.003067  3.942155  0.004  -0.074749  -0.132777  0.002637  3.915505  0.003
C  C39  1  0.43071188  0.59511009  0.82010643  1  -0.116588  -0.008463  3.68725  -0.008  -0.133307  -0.003815  3.924165  -0.004  -0.137372  -0.004135  3.939918  -0.005  -0.073752  -0.130599  -0.003367  3.913293  -0.004
C  C40  1  0.93108342  0.59415117  0.67961996  1  -0.11685  0.005662  3.688746  0.006  -0.134814  0.004081  3.925914  0.005  -0.138925  0.003676  3.94165  0.005  -0.07435  -0.132179  0.004156  3.915134  0.005
C  C41  1  0.56945651  0.40504508  0.17995575  1  -0.116803  0.005156  3.688448  0.006  -0.13399  0.003677  3.925482  0.005  -0.138156  0.003309  3.941166  0.004  -0.074186  -0.131278  0.003622  3.914715  0.004
C  C42  1  0.09930308  0.51971845  0.25496392  1  0.130662  -0.004598  3.683984  -0.005  0.100319  -0.000941  3.940417  -0.001  0.108529  -0.001904  3.960017  -0.002  0.043575  0.095129  -0.000235  3.928207  -0.001
C  C43  1  0.39995447  0.48150568  0.75481797  1  0.129648  0.004907  3.682392  0.006  0.099738  0.000978  3.939036  0.002  0.107837  0.001921  3.958759  0.003  0.043121  0.094533  0.000296  3.926818  0.001
C  C44  1  0.90066755  0.48041498  0.74507158  1  0.130875  -0.003509  3.682334  -0.003  0.100719  -0.000321  3.938752  -0.001  0.108916  -0.001442  3.958324  -0.002  0.043441  0.095559  0.000549  3.926677  0.0
C  C45  1  0.59998606  0.51864260  0.24519462  1  0.129757  -0.003158  3.682813  -0.003  0.099591  -0.000139  3.939185  0.0  0.107713  -0.001179  3.958899  -0.002  0.042923  0.094432  0.000638  3.927094  0.0
C  C46  1  0.13479302  0.30992119  0.48733107  1  0.655791  0.000241  3.858292  0.0  0.61554  0.000807  4.146097  0.001  0.654054  0.000575  4.139853  0.001  0.220179  0.589358  0.001056  4.149707  0.001
C  C47  1  0.36511872  0.69034549  0.98720565  1  0.656036  -0.004773  3.861764  -0.009  0.615233  0.000616  4.150411  -0.003  0.653885  -0.000264  4.14399  -0.003  0.22041  0.589032  0.001588  4.154154  -0.002
C  C48  1  0.86548909  0.68961676  0.51229548  1  0.654524  -0.004037  3.86119  -0.008  0.614891  0.001326  4.148128  -0.002  0.653389  0.000303  4.141972  -0.002  0.220526  0.588868  0.002328  4.15167  -0.002
C  C49  1  0.63490470  0.30983641  0.01288480  1  0.655912  -0.00385  3.86125  -0.007  0.61543  0.001462  4.149096  -0.002  0.653888  0.00039  4.142813  -0.002  0.220051  0.589515  0.002516  4.152758  -0.001
Br  Br50  1  0.32064069  0.03446944  0.80001614  1  -0.487545  -0.193628  1.09007  -0.17  -0.521377  -0.123693  1.417409  -0.115  -0.566455  -0.098227  1.379494  -0.091  -0.235917  -0.494014  -0.125481  1.444315  -0.118
Br  Br51  1  0.17937597  0.96703030  0.29899436  1  -0.491718  0.172485  1.087385  0.178  -0.523763  0.110932  1.41387  0.12  -0.567904  0.082133  1.375532  0.093  -0.237471  -0.497489  0.121843  1.441036  0.127
Br  Br52  1  0.67760839  0.96549528  0.20054295  1  -0.490947  0.181952  1.091377  0.188  -0.521833  0.116482  1.418025  0.125  -0.565204  0.085541  1.379619  0.096  -0.239429  -0.497763  0.131888  1.445386  0.138
Br  Br53  1  0.82005992  0.03248537  0.70203378  1  -0.49142  0.187602  1.07616  0.19  -0.522598  0.120006  1.400628  0.126  -0.565626  0.088651  1.362851  0.097  -0.241515  -0.498505  0.136162  1.427486  0.139
N  N54  1  0.20771824  0.65580736  0.28223058  1  -0.302974  0.050139  3.366031  0.065  -0.251091  0.040027  3.669748  0.054  -0.28431  0.035082  3.695692  0.05  -0.354265  -0.23325  0.040462  3.656769  0.053
N  N55  1  0.29180182  0.34529191  0.78243058  1  -0.302857  -0.058993  3.364514  -0.068  -0.251641  -0.044938  3.668502  -0.056  -0.284839  -0.040702  3.694325  -0.052  -0.353794  -0.233573  -0.043885  3.655612  -0.054
N  N56  1  0.79242456  0.34427497  0.71784771  1  -0.302561  0.05043  3.366769  0.065  -0.251061  0.040652  3.670944  0.055  -0.284065  0.035443  3.696689  0.05  -0.354382  -0.233382  0.04205  3.657974  0.054
N  N57  1  0.70812656  0.65486394  0.21757589  1  -0.302503  0.049621  3.365835  0.064  -0.25014  0.039859  3.668825  0.054  -0.283383  0.034647  3.6948  0.05  -0.353904  -0.232405  0.040871  3.655928  0.053
O  O58  1  0.02044929  0.18838392  0.45321540  1  -0.600949  0.066434  2.126442  0.09  -0.562601  0.047331  2.394572  0.068  -0.600294  0.036448  2.381669  0.056  -0.317101  -0.53666  0.054959  2.40359  0.077
O  O59  1  0.48059966  0.81190207  0.95323187  1  -0.602029  0.061895  2.129065  0.088  -0.562256  0.044029  2.396008  0.067  -0.599942  0.03337  2.383151  0.054  -0.317541  -0.53672  0.051462  2.40543  0.075
O  O60  1  0.98093747  0.81124275  0.54578922  1  -0.599025  0.065585  2.126288  0.09  -0.561229  0.046347  2.393794  0.068  -0.599021  0.03482  2.381221  0.054  -0.316874  -0.535357  0.054527  2.402472  0.077
O  O61  1  0.51989012  0.18828274  0.04704256  1  -0.601678  0.063781  2.129644  0.087  -0.562013  0.046106  2.396597  0.067  -0.599541  0.03511  2.383582  0.054  -0.317418  -0.536721  0.053771  2.405771  0.075
O  O62  1  0.23222337  0.33815489  0.57093797  1  -0.581248  -0.053358  2.094155  -0.065  -0.543284  -0.045056  2.365869  -0.061  -0.584512  -0.038662  2.358476  -0.054  -0.306403  -0.517088  -0.04696  2.370971  -0.062
O  O63  1  0.26664461  0.66195517  0.07062528  1  -0.581915  0.046603  2.094603  0.065  -0.543163  0.04105  2.365532  0.061  -0.58428  0.033614  2.358186  0.053  -0.306454  -0.517311  0.044568  2.370748  0.064
O  O64  1  0.76768297  0.66112845  0.42883089  1  -0.581237  0.046512  2.096351  0.065  -0.543183  0.041339  2.367693  0.062  -0.584143  0.033659  2.360135  0.054  -0.307318  -0.517826  0.045533  2.373261  0.065
O  O65  1  0.73235481  0.33818760  0.92915607  1  -0.58181  0.046952  2.094717  0.065  -0.543392  0.041591  2.366006  0.062  -0.584276  0.033697  2.358498  0.054  -0.306814  -0.517868  0.046325  2.371226  0.066
O  O66  1  0.26249746  0.07436012  0.56852270  1  -0.827501  -0.02438  1.898784  -0.023  -0.826799  -0.0141  2.185747  -0.014  -0.893527  -0.014828  2.163757  -0.016  -0.592981  -0.7848  -0.006315  2.201882  -0.005
O  O67  1  0.23527020  0.92555959  0.06693955  1  -0.814322  0.208213  1.889433  0.276  -0.819676  0.13276  2.178277  0.187  -0.887895  0.102887  2.157672  0.154  -0.588968  -0.77728  0.146483  2.193614  0.198
O  O68  1  0.73632672  0.92498566  0.43190845  1  -0.813344  0.215145  1.887771  0.285  -0.8201  0.136198  2.177142  0.192  -0.887463  0.104794  2.156522  0.156  -0.590253  -0.779159  0.153446  2.192622  0.208
O  O69  1  0.76511359  0.07489012  0.93324610  1  -0.814051  0.210365  1.889128  0.279  -0.819609  0.133523  2.177933  0.188  -0.88733  0.103118  2.157366  0.154  -0.589902  -0.777914  0.150464  2.193079  0.204
