# generated using pymatgen
data_CuH8C4(NO2)4
_symmetry_space_group_name_H-M   'P 1'
_cell_length_a   7.48298028
_cell_length_b   8.30741141
_cell_length_c   8.30741687
_cell_angle_alpha   87.70091089
_cell_angle_beta   73.78553899
_cell_angle_gamma   73.78499934
_symmetry_Int_Tables_number   1
_chemical_formula_structural   CuH8C4(NO2)4
_chemical_formula_sum   'Cu2 H16 C8 N8 O16'
_cell_volume   475.75478604
_cell_formula_units_Z   2
loop_
 _symmetry_equiv_pos_site_id
 _symmetry_equiv_pos_as_xyz
  1  'x, y, z'
loop_
 _atom_site_type_symbol
 _atom_site_label
 _atom_site_symmetry_multiplicity
 _atom_site_fract_x
 _atom_site_fract_y
 _atom_site_fract_z
 _atom_site_occupancy
 _atom_site_hle17_ddec_charge
 _atom_site_hle17_ddec_spin_density
 _atom_site_hle17_ddec_sum_bond_order
 _atom_site_hle17_magmom
 _atom_site_hse06_10hf_ddec_charge
 _atom_site_hse06_10hf_ddec_spin_density
 _atom_site_hse06_10hf_ddec_sum_bond_order
 _atom_site_hse06_10hf_magmom
 _atom_site_hse06_ddec_charge
 _atom_site_hse06_ddec_spin_density
 _atom_site_hse06_ddec_sum_bond_order
 _atom_site_hse06_magmom
 _atom_site_pbe_cm5_charge
 _atom_site_pbe_ddec_charge
 _atom_site_pbe_ddec_spin_density
 _atom_site_pbe_ddec_sum_bond_order
 _atom_site_pbe_magmom
Cu  Cu0  1  0.50000075  0.00000064  0.49999830  1  0.931399  -0.722221  1.71031  -0.541  0.909764  -0.822565  2.083922  -0.669  0.989258  -0.890936  2.02964  -0.75  0.747399  0.853917  -0.754622  2.126964  -0.6
Cu  Cu1  1  0.00000109  0.49999789  0.00000154  1  0.931387  0.722222  1.710391  0.541  0.909712  0.822567  2.083946  0.669  0.989301  0.89095  2.029756  0.75  0.747415  0.853933  0.754629  2.126994  0.6
H  H2  1  0.25000643  0.62120319  0.37878878  1  0.150982  -1e-06  0.953974  0.0  0.152599  -0.0  1.018832  0.0  0.156766  0.0  1.01679  0.0  0.119278  0.149258  -0.0  1.020771  0.0
H  H3  1  0.74999309  0.37879389  0.62121678  1  0.151023  -1e-06  0.953906  0.0  0.152629  -0.0  1.018777  0.0  0.156797  -0.0  1.016725  0.0  0.119283  0.149283  -0.0  1.020716  0.0
H  H4  1  0.24999816  0.19827522  0.80172207  1  0.093751  -2e-06  0.937989  0.0  0.097292  -0.0  1.002794  0.0  0.098172  -0.0  0.999981  0.0  0.140732  0.096075  -1e-06  1.0054  0.0
H  H5  1  0.75000881  0.80172435  0.19827300  1  0.093799  -1e-06  0.938042  0.0  0.097338  0.0  1.002838  0.0  0.098218  -0.0  1.000028  0.0  0.14074  0.096122  0.0  1.005444  0.0
H  H6  1  0.46942811  0.32550599  0.31168493  1  0.097356  -0.000518  0.967538  -0.001  0.0978  -0.000656  1.037546  -0.001  0.099599  -0.000484  1.034437  -0.001  0.12665  0.096361  -0.000753  1.039921  -0.001
H  H7  1  0.03055965  0.68832379  0.67450405  1  0.097204  0.00052  0.967533  0.001  0.097714  0.000657  1.037479  0.001  0.099516  0.000485  1.034365  0.001  0.126547  0.096274  0.000755  1.039854  0.001
H  H8  1  0.53057167  0.67449861  0.68831656  1  0.097208  -0.000516  0.967548  -0.001  0.097716  -0.000656  1.037498  -0.001  0.099516  -0.000484  1.034388  -0.001  0.126607  0.096277  -0.000753  1.039874  -0.001
H  H9  1  0.96943126  0.31167826  0.32550347  1  0.097183  0.000518  0.96749  0.001  0.097698  0.000657  1.037468  0.001  0.099497  0.000485  1.034356  0.001  0.126582  0.09626  0.000755  1.039838  0.001
H  H10  1  0.50995313  0.90964538  0.80299713  1  0.417711  -0.000199  0.881213  0.0  0.38565  -0.000702  0.954218  -0.001  0.398002  -0.000477  0.936417  0.0  0.293162  0.37664  -0.000838  0.967176  -0.001
H  H11  1  0.99004251  0.19700575  0.09035689  1  0.417699  0.000199  0.881229  0.0  0.385652  0.000702  0.954215  0.001  0.398002  0.000477  0.936417  0.0  0.293187  0.376642  0.000837  0.967172  0.001
H  H12  1  0.49004553  0.09035417  0.19700370  1  0.417696  -0.000198  0.881264  0.0  0.385652  -0.000702  0.954223  -0.001  0.398001  -0.000477  0.936423  0.0  0.293176  0.376642  -0.000837  0.96718  -0.001
H  H13  1  0.00995754  0.80299379  0.90964238  1  0.417686  0.000199  0.881291  0.0  0.385639  0.000702  0.954243  0.001  0.397989  0.000477  0.936444  0.0  0.293177  0.376629  0.000837  0.967201  0.001
H  H14  1  0.69332686  0.98251240  0.73167825  1  0.431669  -0.000225  0.863978  0.0  0.397679  -0.000705  0.933934  -0.001  0.410692  -0.000525  0.914985  -0.001  0.294983  0.38815  -0.000798  0.94778  -0.001
H  H15  1  0.80666779  0.26831889  0.01749224  1  0.431603  0.000225  0.864056  0.0  0.397621  0.000705  0.934  0.001  0.410632  0.000525  0.915056  0.001  0.294968  0.388097  0.000798  0.947839  0.001
H  H16  1  0.30667096  0.01748962  0.26831907  1  0.431615  -0.000225  0.864038  0.0  0.397635  -0.000705  0.93398  -0.001  0.410646  -0.000525  0.915034  -0.001  0.294957  0.388109  -0.000798  0.947822  -0.001
H  H17  1  0.19333323  0.73168192  0.98250672  1  0.431637  0.000225  0.864013  0.0  0.397653  0.000705  0.933957  0.001  0.410663  0.000525  0.915014  0.001  0.294971  0.388129  0.000798  0.947796  0.001
C  C18  1  0.24998318  0.52672441  0.47329144  1  -0.15065  2e-06  3.63359  0.0  -0.160774  -1e-06  3.879976  0.0  -0.175111  -0.0  3.900667  0.0  -0.072773  -0.151712  -1e-06  3.86731  0.0
C  C19  1  0.75000787  0.47328141  0.52671585  1  -0.150818  5e-06  3.63338  0.0  -0.16085  -0.0  3.879834  0.0  -0.175171  0.0  3.900493  0.0  -0.072789  -0.151796  0.0  3.867201  0.0
C  C20  1  0.24999623  0.29242024  0.70758507  1  0.326719  6e-06  3.66489  0.0  0.271369  -0.0  3.945344  0.0  0.292852  -1e-06  3.95671  0.0  0.18838  0.256841  -1e-06  3.937922  0.0
C  C21  1  0.75000838  0.70757805  0.29240947  1  0.326705  8e-06  3.664817  0.0  0.271392  1e-06  3.945226  0.0  0.292866  0.0  3.956593  0.0  0.188419  0.256864  -0.0  3.937807  0.0
C  C22  1  0.36989046  0.36406333  0.43584001  1  0.198203  -0.00228  3.610075  -0.002  0.165288  -0.001978  3.864891  -0.002  0.180667  -0.001166  3.880111  -0.001  0.075726  0.154666  -0.00258  3.855101  -0.002
C  C23  1  0.13011956  0.56414029  0.63593194  1  0.198446  0.002274  3.610905  0.002  0.165452  0.001977  3.865722  0.002  0.180842  0.001165  3.880963  0.001  0.075893  0.154833  0.002579  3.85593  0.002
C  C24  1  0.63011916  0.63593250  0.56415578  1  0.198567  -0.002291  3.609994  -0.002  0.165503  -0.001977  3.864947  -0.002  0.180883  -0.001165  3.880166  -0.001  0.075816  0.154878  -0.002579  3.855156  -0.002
C  C25  1  0.86987770  0.43585922  0.36406685  1  0.198587  0.002287  3.610391  0.002  0.165528  0.001978  3.865333  0.002  0.180917  0.001165  3.880565  0.001  0.075895  0.154906  0.002579  3.85554  0.002
N  N26  1  0.36565180  0.24670623  0.55236671  1  -0.333354  -0.066403  3.279663  -0.085  -0.287637  -0.046589  3.576279  -0.063  -0.324181  -0.037425  3.596034  -0.053  -0.336935  -0.263381  -0.050479  3.563225  -0.066
N  N27  1  0.13434410  0.44764560  0.75329483  1  -0.333503  0.066391  3.279914  0.085  -0.287727  0.046587  3.576481  0.063  -0.324333  0.037421  3.596323  0.053  -0.33703  -0.263494  0.050475  3.563454  0.066
N  N28  1  0.63434979  0.75329714  0.44763557  1  -0.333552  -0.0664  3.279341  -0.085  -0.28777  -0.046589  3.575973  -0.063  -0.324314  -0.037427  3.595724  -0.053  -0.336987  -0.263513  -0.050477  3.562927  -0.066
N  N29  1  0.86565513  0.55235648  0.24670693  1  -0.333513  0.066388  3.27994  0.085  -0.28778  0.046585  3.576602  0.063  -0.324372  0.03742  3.596426  0.053  -0.33707  -0.263546  0.050474  3.563577  0.066
N  N30  1  0.04160782  0.00481911  0.68560778  1  0.700779  0.000228  4.133091  0.0  0.727969  0.000224  4.437661  0.0  0.757348  0.000146  4.442316  0.0  0.100348  0.707778  0.000333  4.433867  0.0
N  N31  1  0.45838310  0.31439520  0.99518087  1  0.701076  -0.000211  4.132632  0.0  0.728043  -0.00023  4.43745  0.0  0.757419  -0.000147  4.442113  0.0  0.100321  0.707854  -0.000332  4.433661  0.0
N  N32  1  0.95839140  0.99518294  0.31439158  1  0.700828  0.00022  4.132952  0.0  0.72799  0.000226  4.437564  0.0  0.75737  0.000147  4.442217  0.0  0.100357  0.707798  0.000333  4.433771  0.0
N  N33  1  0.54162016  0.68560313  0.00482005  1  0.701042  -0.000209  4.132699  0.0  0.727913  -0.00023  4.437649  0.0  0.757292  -0.000146  4.442312  0.0  0.100261  0.707725  -0.000333  4.43386  0.0
O  O34  1  0.55899879  0.99274764  0.72520617  1  -0.793405  -0.06415  1.97088  -0.087  -0.770353  -0.044921  2.203539  -0.065  -0.802213  -0.034824  2.167502  -0.053  -0.575189  -0.747977  -0.050354  2.229347  -0.07
O  O35  1  0.94099936  0.27478646  0.00724795  1  -0.79334  0.064156  1.970907  0.087  -0.770283  0.044922  2.203512  0.065  -0.802158  0.034822  2.167509  0.053  -0.575228  -0.747923  0.050355  2.229326  0.07
O  O36  1  0.44100290  0.00724683  0.27478813  1  -0.793338  -0.064151  1.970938  -0.087  -0.770302  -0.044921  2.20356  -0.065  -0.802157  -0.034823  2.167531  -0.053  -0.575186  -0.747926  -0.050353  2.229367  -0.07
O  O37  1  0.05900427  0.72521055  0.99274572  1  -0.793364  0.064154  1.970959  0.087  -0.770312  0.04492  2.203558  0.065  -0.802186  0.03482  2.167554  0.053  -0.575213  -0.74795  0.050352  2.229374  0.07
O  O38  1  0.21657538  0.92677990  0.67454602  1  -0.483214  -0.000523  1.813083  -0.002  -0.478552  0.000217  2.056325  -0.001  -0.496103  0.000656  2.046923  0.0  -0.192022  -0.465005  -0.000496  2.062429  -0.002
O  O39  1  0.28341801  0.32545960  0.07321350  1  -0.483245  0.000523  1.812978  0.002  -0.478506  -0.000213  2.056285  0.001  -0.496083  -0.000657  2.046915  0.0  -0.191952  -0.464967  0.000496  2.062399  0.002
O  O40  1  0.78342428  0.07322096  0.32545930  1  -0.483204  -0.000525  1.813  -0.002  -0.478536  0.000217  2.056253  -0.001  -0.496088  0.000656  2.046849  0.0  -0.192001  -0.464988  -0.000496  2.062358  -0.002
O  O41  1  0.71658562  0.67453741  0.92678016  1  -0.483301  0.000525  1.812891  0.002  -0.47851  -0.000214  2.056206  0.001  -0.496091  -0.000658  2.046841  0.0  -0.191975  -0.464969  0.000497  2.062316  0.002
O  O42  1  0.90941177  0.94273352  0.77913344  1  -0.493339  -0.000953  1.846012  -0.001  -0.45921  -0.000338  2.051808  -0.001  -0.477945  -0.000128  2.04261  0.0  -0.183457  -0.445481  -0.00081  2.05798  -0.001
O  O43  1  0.59058493  0.22086993  0.05726470  1  -0.493414  0.000944  1.845791  0.001  -0.459203  0.000341  2.051644  0.001  -0.477944  0.00013  2.042452  0.0  -0.183449  -0.445471  0.00081  2.057808  0.001
O  O44  1  0.09058786  0.05726729  0.22086708  1  -0.49337  -0.000949  1.846023  -0.001  -0.459225  -0.00034  2.051832  -0.001  -0.477963  -0.000129  2.042633  0.0  -0.183463  -0.445496  -0.00081  2.058002  -0.001
O  O45  1  0.40941752  0.77913097  0.94274111  1  -0.493399  0.000932  1.845817  0.001  -0.459128  0.000343  2.051679  0.001  -0.477873  0.000131  2.042485  0.0  -0.1834  -0.445392  0.000809  2.057836  0.001
O  O46  1  0.99531738  0.13591429  0.61080179  1  -0.418475  0.000519  1.792611  0.001  -0.413774  0.00043  2.014087  0.001  -0.426847  0.000287  2.009647  0.0  -0.164768  -0.403953  0.000488  2.016762  0.001
O  O47  1  0.50466204  0.38920773  0.86408979  1  -0.418665  -0.000526  1.792546  -0.001  -0.413874  -0.000432  2.014121  -0.001  -0.426908  -0.000286  2.009637  0.0  -0.164799  -0.404054  -0.000488  2.016798  -0.001
O  O48  1  0.00467892  0.86408398  0.38919972  1  -0.418503  0.000526  1.792529  0.001  -0.413788  0.000431  2.014012  0.001  -0.426851  0.000287  2.009553  0.0  -0.164789  -0.403969  0.000488  2.016687  0.001
O  O49  1  0.49533620  0.61079306  0.13590988  1  -0.418594  -0.000517  1.792693  -0.001  -0.413798  -0.000432  2.014313  -0.001  -0.426832  -0.000287  2.00982  0.0  -0.164756  -0.403981  -0.000488  2.016991  -0.001
