# generated using pymatgen
data_SrH3C3O7
_symmetry_space_group_name_H-M   'P 1'
_cell_length_a   5.73130921
_cell_length_b   6.40839032
_cell_length_c   17.01688645
_cell_angle_alpha   89.99988564
_cell_angle_beta   90.00000440
_cell_angle_gamma   97.87324017
_symmetry_Int_Tables_number   1
_chemical_formula_structural   SrH3C3O7
_chemical_formula_sum   'Sr4 H12 C12 O28'
_cell_volume   619.11257142
_cell_formula_units_Z   4
loop_
 _symmetry_equiv_pos_site_id
 _symmetry_equiv_pos_as_xyz
  1  'x, y, z'
loop_
 _atom_site_type_symbol
 _atom_site_label
 _atom_site_symmetry_multiplicity
 _atom_site_fract_x
 _atom_site_fract_y
 _atom_site_fract_z
 _atom_site_occupancy
 _atom_site_hle17_bader_spin_density
 _atom_site_hle17_ddec_charge
 _atom_site_hle17_ddec_spin_density
 _atom_site_hle17_ddec_sum_bond_order
 _atom_site_hle17_magmom
 _atom_site_hse06_10hf_bader_spin_density
 _atom_site_hse06_10hf_ddec_charge
 _atom_site_hse06_10hf_ddec_spin_density
 _atom_site_hse06_10hf_ddec_sum_bond_order
 _atom_site_hse06_10hf_magmom
 _atom_site_hse06_bader_spin_density
 _atom_site_hse06_ddec_charge
 _atom_site_hse06_ddec_spin_density
 _atom_site_hse06_ddec_sum_bond_order
 _atom_site_hse06_magmom
 _atom_site_pbe_bader_spin_density
 _atom_site_pbe_cm5_charge
 _atom_site_pbe_ddec_charge
 _atom_site_pbe_ddec_spin_density
 _atom_site_pbe_ddec_sum_bond_order
 _atom_site_pbe_magmom
Sr  Sr0  1  0.73277967  0.87852333  0.41954411  1  0  1.609027  0  1.068718  0  0  1.459959  0  1.434561  0  0  1.499354  0  1.390064  0  0  0.936728  1.431149  0  1.465912  0
Sr  Sr1  1  0.76721715  0.62147836  0.91954402  1  0  1.609051  0  1.068667  0  0  1.459972  0  1.434527  0  0  1.499376  0  1.390013  0  0  0.936726  1.431159  0  1.465877  0
Sr  Sr2  1  0.26721877  0.12147751  0.58045514  1  0  1.609036  0  1.068706  0  0  1.459989  0  1.434526  0  0  1.499376  0  1.390041  0  0  0.936735  1.431178  0  1.465876  0
Sr  Sr3  1  0.23278327  0.37852406  0.08045641  1  0  1.609037  0  1.068689  0  0  1.459979  0  1.434521  0  0  1.49937  0  1.390031  0  0  0.936729  1.431172  0  1.465871  0
H  H4  1  0.46726134  0.71710212  0.57017983  1  0  0.425552  0  0.881789  0  0  0.393268  0  0.947498  0  0  0.405466  0  0.929781  0  0  0.302565  0.384634  0  0.96002  0
H  H5  1  0.03273712  0.78289785  0.07017941  1  0  0.425535  0  0.881818  0  0  0.393244  0  0.947534  0  0  0.405442  0  0.929817  0  0  0.30255  0.384611  0  0.960055  0
H  H6  1  0.53273535  0.28289871  0.42982059  1  0  0.425536  0  0.881822  0  0  0.393245  0  0.947541  0  0  0.405444  0  0.929824  0  0  0.302547  0.384611  0  0.960065  0
H  H7  1  0.96726306  0.21710299  0.92982043  1  0  0.425564  0  0.881778  0  0  0.393278  0  0.947488  0  0  0.405477  0  0.929771  0  0  0.302573  0.384646  0  0.960008  0
H  H8  1  0.69498400  0.86965908  0.60526963  1  0  0.431796  0  0.870022  0  0  0.40074  0  0.933296  0  0  0.412133  0  0.916697  0  0  0.306839  0.392645  0  0.945088  0
H  H9  1  0.80501749  0.63033960  0.10527049  1  0  0.431829  0  0.870001  0  0  0.400776  0  0.933268  0  0  0.412169  0  0.916667  0  0  0.306863  0.392681  0  0.94506  0
H  H10  1  0.30501595  0.13034019  0.39473080  1  0  0.431767  0  0.870072  0  0  0.400704  0  0.933357  0  0  0.412098  0  0.916757  0  0  0.306817  0.39261  0  0.94515  0
H  H11  1  0.19498270  0.36966124  0.89473052  1  0  0.43184  0  0.869983  0  0  0.400784  0  0.933253  0  0  0.412179  0  0.91665  0  0  0.306851  0.392689  0  0.945044  0
H  H12  1  0.99199891  0.64229650  0.25497708  1  0  0.410651  0  0.878337  0  0  0.378445  0  0.956475  0  0  0.392293  0  0.941555  0  0  0.31218  0.368725  0  0.96648  0
H  H13  1  0.50800427  0.85770137  0.75497622  1  0  0.410564  0  0.87842  0  0  0.378361  0  0.956565  0  0  0.392227  0  0.941633  0  0  0.31213  0.368642  0  0.966566  0
H  H14  1  0.00800081  0.35770119  0.74502394  1  0  0.410619  0  0.878359  0  0  0.378406  0  0.956511  0  0  0.392245  0  0.941619  0  0  0.312159  0.368686  0  0.966512  0
H  H15  1  0.49199743  0.14229790  0.24502362  1  0  0.410584  0  0.878412  0  0  0.378376  0  0.956557  0  0  0.392224  0  0.941641  0  0  0.312137  0.368657  0  0.966558  0
C  C16  1  0.57535875  0.63275324  0.23838826  1  0  0.568366  0  3.893702  0  0  0.516741  0  4.197729  0  0  0.546986  0  4.189157  0  0  0.232833  0.496221  0  4.203113  0
C  C17  1  0.92464047  0.86724156  0.73838740  1  0  0.568319  0  3.893693  0  0  0.516755  0  4.197602  0  0  0.546998  0  4.189023  0  0  0.232809  0.496236  0  4.202983  0
C  C18  1  0.42464096  0.36724445  0.76161275  1  0  0.568303  0  3.893857  0  0  0.516781  0  4.197728  0  0  0.547023  0  4.189152  0  0  0.232851  0.49626  0  4.203107  0
C  C19  1  0.07536123  0.13275772  0.26161185  1  0  0.568264  0  3.89373  0  0  0.516697  0  4.197629  0  0  0.546941  0  4.189056  0  0  0.232817  0.496179  0  4.203011  0
C  C20  1  0.09381116  0.58510604  0.51846654  1  0  0.576381  0  3.887841  0  0  0.529015  0  4.185694  0  0  0.559539  0  4.176034  0  0  0.237682  0.50825  0  4.191722  0
C  C21  1  0.40618954  0.91489737  0.01846661  1  0  0.5764  0  3.887757  0  0  0.529036  0  4.185619  0  0  0.559561  0  4.17596  0  0  0.237727  0.508273  0  4.19164  0
C  C22  1  0.90618576  0.41489637  0.48153388  1  0  0.576266  0  3.887957  0  0  0.528933  0  4.185778  0  0  0.559457  0  4.176118  0  0  0.237667  0.508168  0  4.191804  0
C  C23  1  0.59381263  0.08510506  0.98153323  1  0  0.576409  0  3.887662  0  0  0.529047  0  4.18554  0  0  0.559572  0  4.175879  0  0  0.237684  0.508284  0  4.191559  0
C  C24  1  0.33658351  0.65296096  0.27921770  1  0  0.563577  0  3.790976  0  0  0.515996  0  4.095359  0  0  0.545564  0  4.084856  0  0  0.247407  0.495665  0  4.102416  0
C  C25  1  0.16341812  0.84703632  0.77921744  1  0  0.563616  0  3.79083  0  0  0.516024  0  4.09521  0  0  0.545607  0  4.084684  0  0  0.247407  0.495692  0  4.102259  0
C  C26  1  0.66341668  0.34703989  0.72078390  1  0  0.563714  0  3.790608  0  0  0.516081  0  4.095039  0  0  0.545661  0  4.084516  0  0  0.247533  0.49575  0  4.10209  0
C  C27  1  0.83658183  0.15296294  0.22078240  1  0  0.56362  0  3.790931  0  0  0.51607  0  4.095226  0  0  0.545644  0  4.084714  0  0  0.247435  0.495736  0  4.102282  0
O  O28  1  0.15623740  0.61877586  0.23065595  1  0  -0.551674  0  2.171802  0  0  -0.500238  0  2.403556  0  0  -0.524306  0  2.390224  0  0  -0.306481  -0.483464  0  2.412186  0
O  O29  1  0.34376647  0.88122484  0.73065449  1  0  -0.551633  0  2.171822  0  0  -0.50018  0  2.403533  0  0  -0.52426  0  2.390193  0  0  -0.306445  -0.483406  0  2.412159  0
O  O30  1  0.84376232  0.38122183  0.76934448  1  0  -0.551648  0  2.171782  0  0  -0.500182  0  2.403545  0  0  -0.524249  0  2.390226  0  0  -0.306478  -0.483409  0  2.412172  0
O  O31  1  0.65623523  0.11877443  0.26934477  1  0  -0.55163  0  2.171799  0  0  -0.500214  0  2.403544  0  0  -0.524283  0  2.390214  0  0  -0.306463  -0.483438  0  2.412173  0
O  O32  1  0.75618277  0.67580449  0.28199258  1  0  -0.62906  0  2.105639  0  0  -0.575183  0  2.343929  0  0  -0.601689  0  2.336249  0  0  -0.32001  -0.556745  0  2.348702  0
O  O33  1  0.74382260  0.82419639  0.78198940  1  0  -0.629029  0  2.105881  0  0  -0.57519  0  2.344164  0  0  -0.601705  0  2.336478  0  0  -0.320013  -0.556752  0  2.348939  0
O  O34  1  0.24381694  0.32419320  0.71800843  1  0  -0.629018  0  2.105728  0  0  -0.575181  0  2.343973  0  0  -0.60168  0  2.3363  0  0  -0.320005  -0.556744  0  2.348743  0
O  O35  1  0.25618131  0.17580604  0.21800985  1  0  -0.628982  0  2.105816  0  0  -0.575129  0  2.344072  0  0  -0.601633  0  2.336392  0  0  -0.319967  -0.55669  0  2.348842  0
O  O36  1  0.56986816  0.85711529  0.56439788  1  0  -0.935801  0  1.865705  0  0  -0.873299  0  2.06353  0  0  -0.895746  0  2.029634  0  0  -0.654717  -0.857215  0  2.087099  0
O  O37  1  0.93013009  0.64288516  0.06439756  1  0  -0.935854  0  1.865757  0  0  -0.873335  0  2.06357  0  0  -0.89578  0  2.029659  0  0  -0.654734  -0.85725  0  2.087138  0
O  O38  1  0.43013027  0.14288554  0.43560255  1  0  -0.935781  0  1.865766  0  0  -0.873272  0  2.063595  0  0  -0.895716  0  2.029689  0  0  -0.654684  -0.857187  0  2.087164  0
O  O39  1  0.06987184  0.35711568  0.93560345  1  0  -0.935869  0  1.865709  0  0  -0.873356  0  2.063531  0  0  -0.895801  0  2.029612  0  0  -0.65473  -0.857273  0  2.087097  0
O  O40  1  0.06836233  0.77644894  0.50823840  1  0  -0.685331  0  2.038444  0  0  -0.622763  0  2.284703  0  0  -0.648858  0  2.275845  0  0  -0.373044  -0.604441  0  2.290315  0
O  O41  1  0.43163767  0.72354980  0.00823861  1  0  -0.685358  0  2.038337  0  0  -0.622782  0  2.284592  0  0  -0.648881  0  2.275738  0  0  -0.373081  -0.604457  0  2.290201  0
O  O42  1  0.93163762  0.22355033  0.49176086  1  0  -0.6853  0  2.038446  0  0  -0.622735  0  2.284688  0  0  -0.648831  0  2.275832  0  0  -0.373051  -0.604411  0  2.2903  0
O  O43  1  0.56836275  0.27645262  0.99176123  1  0  -0.685377  0  2.038259  0  0  -0.622805  0  2.284519  0  0  -0.648904  0  2.275663  0  0  -0.373075  -0.604481  0  2.290127  0
O  O44  1  0.57114814  0.57919636  0.16740115  1  0  -0.607173  0  2.068065  0  0  -0.550532  0  2.301505  0  0  -0.574185  0  2.292804  0  0  -0.314347  -0.534091  0  2.307273  0
O  O45  1  0.92885809  0.92079885  0.66739672  1  0  -0.607166  0  2.067882  0  0  -0.550542  0  2.301296  0  0  -0.574198  0  2.292598  0  0  -0.314297  -0.534102  0  2.307061  0
O  O46  1  0.42885355  0.42080291  0.83259928  1  0  -0.607179  0  2.068119  0  0  -0.550558  0  2.301499  0  0  -0.574215  0  2.292799  0  0  -0.314359  -0.534118  0  2.307264  0
O  O47  1  0.07114313  0.07919728  0.33260136  1  0  -0.607172  0  2.067965  0  0  -0.55054  0  2.301356  0  0  -0.574197  0  2.292658  0  0  -0.314355  -0.5341  0  2.307124  0
O  O48  1  0.25960075  0.51825667  0.55620261  1  0  -0.641424  0  2.046756  0  0  -0.584466  0  2.279985  0  0  -0.609523  0  2.269883  0  0  -0.332756  -0.566981  0  2.286566  0
O  O49  1  0.24039994  0.98174653  0.05620322  1  0  -0.641419  0  2.046792  0  0  -0.58446  0  2.280022  0  0  -0.609519  0  2.26992  0  0  -0.332734  -0.566974  0  2.286599  0
O  O50  1  0.74039595  0.48174416  0.44379840  1  0  -0.641382  0  2.046879  0  0  -0.58443  0  2.280094  0  0  -0.609489  0  2.269993  0  0  -0.332717  -0.566945  0  2.286675  0
O  O51  1  0.75960072  0.01825746  0.94379486  1  0  -0.641443  0  2.046766  0  0  -0.584483  0  2.28  0  0  -0.609544  0  2.269897  0  0  -0.332717  -0.566996  0  2.286574  0
O  O52  1  0.32765826  0.69876760  0.34935272  1  0  -0.534849  0  1.975284  0  0  -0.487669  0  2.194631  0  0  -0.507011  0  2.187154  0  0  -0.2749  -0.474334  0  2.199699  0
O  O53  1  0.17234031  0.80123244  0.84935014  1  0  -0.534868  0  1.975281  0  0  -0.487694  0  2.194633  0  0  -0.507046  0  2.187153  0  0  -0.274909  -0.474376  0  2.199734  0
O  O54  1  0.67234494  0.30123011  0.65064536  1  0  -0.534949  0  1.974908  0  0  -0.487788  0  2.194304  0  0  -0.507136  0  2.186825  0  0  -0.275006  -0.474452  0  2.199368  0
O  O55  1  0.82766011  0.19876997  0.15064852  1  0  -0.53485  0  1.97534  0  0  -0.487696  0  2.194674  0  0  -0.507043  0  2.187198  0  0  -0.274908  -0.474376  0  2.199774  0
