# generated using pymatgen
data_Zn6H33C62Cl3O26
_symmetry_space_group_name_H-M   'P 1'
_cell_length_a   18.40617188
_cell_length_b   18.79220706
_cell_length_c   18.65954983
_cell_angle_alpha   109.47255804
_cell_angle_beta   108.79755377
_cell_angle_gamma   108.74010976
_symmetry_Int_Tables_number   1
_chemical_formula_structural   Zn6H33C62Cl3O26
_chemical_formula_sum   'Zn6 H33 C62 Cl3 O26'
_cell_volume   5052.47528715
_cell_formula_units_Z   1
loop_
 _symmetry_equiv_pos_site_id
 _symmetry_equiv_pos_as_xyz
  1  'x, y, z'
loop_
 _atom_site_type_symbol
 _atom_site_label
 _atom_site_symmetry_multiplicity
 _atom_site_fract_x
 _atom_site_fract_y
 _atom_site_fract_z
 _atom_site_occupancy
 _atom_site_pbe_bader_charge
 _atom_site_pbe_bader_spin_density
 _atom_site_pbe_cm5_charge
 _atom_site_pbe_ddec_charge
 _atom_site_pbe_ddec_spin_density
 _atom_site_pbe_ddec_sum_bond_order
 _atom_site_pbe_magmom
Zn  Zn0  1  0.05767625  0.05122762  0.49494397  1  1.313463  0  0.722509  0.954755  0  2.147546  0
Zn  Zn1  1  0.92788770  0.93303809  0.49535426  1  1.306773  0  0.722725  0.95909  0  2.126903  0
Zn  Zn2  1  0.51121140  0.94071702  0.94234256  1  1.307677  0  0.719035  0.951474  0  2.123681  0
Zn  Zn3  1  0.49396561  0.05745658  0.05879490  1  1.312932  0  0.723927  0.957774  0  2.159884  0
Zn  Zn4  1  0.93151371  0.49356231  0.93527003  1  1.30735  0  0.719531  0.951736  0  2.135574  0
Zn  Zn5  1  0.06121999  0.50301150  0.06528283  1  1.303493  0  0.720029  0.950373  0  2.144847  0
H  H6  1  0.89921123  0.01556481  0.24192124  1  0.066411  0  0.109968  0.118665  0  0.980729  0
H  H7  1  0.15831985  0.42856073  0.82815338  1  0.062495  0  0.09984  0.109726  0  0.977423  0
H  H8  1  0.08156418  0.29827946  0.63589055  1  0.062372  0  0.098573  0.110274  0  0.98089  0
H  H9  1  0.16606421  0.30785671  0.72542245  1  0.037382  0  0.101095  0.112901  0  0.974544  0
H  H10  1  0.24983225  0.98989158  0.85493512  1  0.112849  0  0.1129  0.139217  0  0.980828  0
H  H11  1  0.44509220  0.01142018  0.69372120  1  0.04274  0  0.096003  0.103258  0  0.9844  0
H  H12  1  0.37642908  0.89755846  0.63773557  1  0.054595  0  0.095521  0.103546  0  0.984085  0
H  H13  1  0.33415124  0.02365828  0.58359542  1  0.043573  0  0.096508  0.105617  0  0.985061  0
H  H14  1  0.26609600  0.90969511  0.52887239  1  0.055509  0  0.093053  0.096285  0  1.001848  0
H  H15  1  0.80649082  0.69540344  0.22477385  1  0.07841  0  0.108708  0.113628  0  0.986853  0
H  H16  1  0.80695585  0.59730806  0.09748182  1  0.096926  0  0.10616  0.109591  0  0.992316  0
H  H17  1  0.15734732  0.76489965  0.26760362  1  0.035097  0  0.096795  0.108042  0  0.982258  0
H  H18  1  0.13829791  0.82151312  0.20949046  1  0.040103  0  0.097413  0.105799  0  0.984537  0
H  H19  1  0.15607754  0.87182340  0.39164652  1  0.035331  0  0.09413  0.100152  0  1.005084  0
H  H20  1  0.13417614  0.92632967  0.33224581  1  0.059356  0  0.098676  0.110237  0  0.978636  0
H  H21  1  0.37810933  0.88851932  0.16282455  1  0.093164  0  0.10234  0.110954  0  1.019708  0
H  H22  1  0.27555860  0.76430637  0.16140399  1  0.09116  0  0.104601  0.107338  0  0.998726  0
H  H23  1  0.13514837  0.57710680  0.81809003  1  0.057249  0  0.093278  0.095825  0  1.010539  0
H  H24  1  0.07139599  0.63131605  0.82008142  1  0.066303  0  0.09922  0.109936  0  0.979  0
H  H25  1  0.24860651  0.69774739  0.82071253  1  0.051524  0  0.098786  0.110083  0  0.979433  0
H  H26  1  0.67461329  0.06471380  0.46440439  1  0.059361  0  0.109187  0.132664  0  0.992707  0
H  H27  1  0.18347824  0.75059331  0.81947698  1  0.04349  0  0.098774  0.107946  0  0.979893  0
H  H28  1  0.64543028  0.29375089  0.04134788  1  0.101958  0  0.110508  0.116013  0  0.984215  0
H  H29  1  0.76530942  0.39635223  0.03595263  1  0.066724  0  0.107442  0.111903  0  0.990291  0
H  H30  1  0.91601302  0.19577407  0.02243745  1  0.084409  0  0.099024  0.120743  0  0.992401  0
H  H31  1  0.96724978  0.25928381  0.13803163  1  0.079254  0  0.103317  0.123699  0  0.968389  0
H  H32  1  0.84187277  0.15262499  0.13698447  1  0.091983  0  0.106387  0.088035  0  0.962111  0
H  H33  1  0.54216282  0.94939224  0.18713706  1  0.111789  0  0.109937  0.139391  0  1.005969  0
H  H34  1  0.77066034  0.98104516  0.10916872  1  0.094454  0  0.100778  0.104928  0  1.030389  0
H  H35  1  0.88274647  0.07941270  0.70332427  1  0.126278  0  0.110809  0.133309  0  0.986099  0
H  H36  1  0.07377290  0.41886055  0.73822172  1  0.040458  0  0.097534  0.104023  0  0.992249  0
H  H37  1  0.07621760  0.97452183  0.68948655  1  0.641029  0  0.309143  0.359859  0  0.943166  0
H  H38  1  0.52535664  0.98982877  0.37790604  1  0.603769  0  0.341868  0.366893  0  0.870975  0
C  C39  1  0.98253467  0.08971106  0.62131513  1  1.53577  0  0.213995  0.598158  0  4.16559  0
C  C40  1  0.76097975  0.03000555  0.32602527  1  0.047156  0  -0.009275  -0.0196  0  3.937107  0
C  C41  1  0.83802706  0.03294225  0.32150768  1  -0.031496  0  -0.010186  -0.04894  0  3.932553  0
C  C42  1  0.84046593  0.01442823  0.24424163  1  0.004399  0  -0.085207  -0.101724  0  3.978955  0
C  C43  1  0.76711741  0.99148738  0.16876965  1  0.029918  0  -0.081447  -0.089097  0  3.986664  0
C  C44  1  0.68993347  0.98246222  0.16963698  1  -0.054332  0  -0.008783  -0.06642  0  3.90723  0
C  C45  1  0.03412009  0.24662838  0.71222131  1  -0.052227  0  -0.00492  0.066069  0  3.879754  0
C  C46  1  0.98213146  0.16084477  0.68675177  1  0.030516  0  -0.021135  -0.073781  0  3.999798  0
C  C47  1  0.92525991  0.14541158  0.72191950  1  0.041998  0  -0.087443  -0.164783  0  3.957999  0
C  C48  1  0.92184412  0.21311188  0.77918755  1  0.018765  0  0.016084  0.118605  0  4.035084  0
C  C49  1  0.97389480  0.29987687  0.80428056  1  0.036929  0  -0.007932  -0.106566  0  3.939045  0
C  C50  1  0.90819080  0.03394000  0.39119183  1  1.560149  0  0.213625  0.595853  0  4.177781  0
C  C51  1  0.02953263  0.31352218  0.76891818  1  0.000168  0  -0.007669  0.058215  0  3.896941  0
C  C52  1  0.09773171  0.38279994  0.76629414  1  -0.045121  0  -0.149503  -0.197167  0  3.866072  0
C  C53  1  0.10260823  0.30677641  0.70170616  1  0.004924  0  -0.148246  -0.193982  0  3.871621  0
C  C54  1  0.26696755  0.97788323  0.65176897  1  -0.070047  0  -0.007364  0.07901  0  3.927792  0
C  C55  1  0.19661207  0.98594193  0.65908951  1  0.028977  0  -0.033092  -0.220815  0  3.982443  0
C  C56  1  0.18953714  0.98486628  0.73274858  1  0.537936  0  0.090139  0.305598  0  4.05954  0
C  C57  1  0.25520995  0.98493156  0.79720906  1  -0.043377  0  -0.098224  -0.226556  0  3.9359  0
C  C58  1  0.32530777  0.97676284  0.78797561  1  0.011545  0  -0.011128  -0.04649  0  4.004551  0
C  C59  1  0.32782733  0.97029987  0.71216082  1  0.017119  0  -0.019771  0.023262  0  3.913358  0
C  C60  1  0.37736194  0.95994468  0.66167213  1  -0.021814  0  -0.150462  -0.191284  0  3.88932  0
C  C61  1  0.94888478  0.85012421  0.36649701  1  1.536395  0  0.221434  0.611617  0  4.136669  0
C  C62  1  0.30787222  0.96798505  0.59278064  1  -0.030495  0  -0.152261  -0.198269  0  3.886368  0
C  C63  1  0.02016272  0.80158509  0.28283095  1  0.013625  0  -0.003824  0.062548  0  3.88987  0
C  C64  1  0.94424055  0.78591271  0.29027615  1  -0.02089  0  -0.013788  -0.073422  0  3.98103  0
C  C65  1  0.86746837  0.71008992  0.22189060  1  0.008842  0  -0.081012  -0.098965  0  3.977931  0
C  C66  1  0.86785472  0.65446327  0.15015024  1  -0.060532  0  -0.084102  -0.109798  0  3.98532  0
C  C67  1  0.94593028  0.66928278  0.14556044  1  -0.013517  0  -0.007435  -0.057608  0  3.971495  0
C  C68  1  0.02146217  0.74381835  0.21408478  1  -0.051406  0  -0.006957  0.054678  0  3.894822  0
C  C69  1  0.11915354  0.79647165  0.24970401  1  0.009902  0  -0.151475  -0.197329  0  3.873853  0
C  C70  1  0.11745221  0.86271771  0.32739905  1  -0.011842  0  -0.150829  -0.193783  0  3.876165  0
C  C71  1  0.38478429  0.90207000  0.02192480  1  1.532743  0  0.220553  0.60847  0  4.14616  0
C  C72  1  0.13148221  0.99498245  0.59677537  1  1.503385  0  0.221713  0.629763  0  4.125465  0
C  C73  1  0.61851810  0.97266745  0.09411347  1  1.548878  0  0.21915  0.605423  0  4.135  0
C  C74  1  0.62565849  0.14303493  0.04034958  1  1.555083  0  0.222392  0.613679  0  4.138897  0
C  C75  1  0.39309659  0.97794525  0.85907170  1  1.539062  0  0.225551  0.61795  0  4.126585  0
C  C76  1  0.91351005  0.39570568  0.04431919  1  1.557472  0  0.219834  0.609674  0  4.146196  0
C  C77  1  0.97385258  0.37340883  0.86853284  1  1.596942  0  0.224494  0.631404  0  4.151206  0
C  C78  1  0.13173727  0.61692712  0.02032704  1  1.538443  0  0.222395  0.616064  0  4.131808  0
C  C79  1  0.95294355  0.60700841  0.07752244  1  1.541663  0  0.22091  0.614519  0  4.135581  0
C  C80  1  0.25162791  0.75805755  0.94645460  1  -0.073939  0  -0.005352  0.05613  0  3.888942  0
C  C81  1  0.31998322  0.83129488  0.02321186  1  -0.012112  0  -0.010003  -0.060262  0  3.966457  0
C  C82  1  0.32571912  0.83261576  0.10094483  1  -0.008913  0  -0.085655  -0.108827  0  3.973033  0
C  C83  1  0.75525478  0.05942919  0.40408917  1  0.021788  0  0.018326  0.136094  0  4.034923  0
C  C84  1  0.26734664  0.76262115  0.10022642  1  -0.03868  0  -0.084666  -0.10271  0  3.986333  0
C  C85  1  0.19669213  0.68993444  0.02209599  1  -0.015052  0  -0.014788  -0.074407  0  3.98228  0
C  C86  1  0.19003563  0.69085151  0.94588915  1  -0.024544  0  -0.005332  0.058374  0  3.888579  0
C  C87  1  0.13804320  0.63991014  0.84768782  1  -0.021461  0  -0.150553  -0.193819  0  3.878485  0
C  C88  1  0.20868867  0.71562966  0.84833656  1  0.012974  0  -0.149743  -0.196804  0  3.872466  0
C  C89  1  0.77968302  0.20642404  0.06213751  1  -0.013438  0  -0.010321  -0.005225  0  3.87993  0
C  C90  1  0.70398901  0.21267468  0.05266119  1  0.040547  0  -0.002554  -0.030897  0  3.944184  0
C  C91  1  0.70267106  0.28535773  0.04753961  1  -0.077878  0  -0.081411  -0.108696  0  3.974782  0
C  C92  1  0.77083559  0.34392877  0.04582802  1  0.039606  0  -0.077472  -0.088698  0  3.970463  0
C  C93  1  0.84689377  0.33681069  0.05514716  1  -0.068276  0  -0.009794  -0.062278  0  3.959716  0
C  C94  1  0.67603541  0.04113784  0.40319030  1  0.080744  0  -0.113087  -0.30172  0  4.010208  0
C  C95  1  0.85033190  0.26806471  0.06621317  1  -0.010453  0  -0.000935  0.073066  0  3.895472  0
C  C96  1  0.90501982  0.22311290  0.07735213  1  -0.032326  0  -0.149142  -0.246689  0  3.855377  0
C  C97  1  0.82671225  0.15511321  0.07621104  1  0.11586  0  -0.037124  0.070128  0  3.799335  0
C  C98  1  0.59823424  0.99569004  0.32328160  1  0.39261  0  0.079903  0.334439  0  4.119903  0
C  C99  1  0.60199691  0.97748437  0.24697747  1  0.06052  0  -0.107306  -0.25817  0  3.923193  0
C  C100  1  0.68292052  0.99639282  0.24718682  1  0.016506  0  0.006578  0.101704  0  3.961615  0
Cl  Cl101  1  0.84833478  0.12828878  0.50385188  1  -0.20641  0  0.012406  -0.055973  0  1.628189  0
Cl  Cl102  1  0.77910548  0.04686127  0.99221025  1  -0.250747  0  -0.065356  -0.145426  0  1.349377  0
Cl  Cl103  1  0.85102912  0.18965847  0.82101188  1  -0.206944  0  -0.017243  -0.082948  0  1.441521  0
O  O104  1  0.03778218  0.11165777  0.59526995  1  -1.170021  0  -0.310602  -0.564944  0  2.342024  0
O  O105  1  0.41001758  0.98021891  0.07627275  1  -1.122984  0  -0.317723  -0.528084  0  2.224434  0
O  O106  1  0.59734103  0.92117202  0.01613680  1  -1.123998  0  -0.31511  -0.523752  0  2.219979  0
O  O107  1  0.58499871  0.02096570  0.11286508  1  -1.176943  0  -0.30998  -0.577387  0  2.37962  0
O  O108  1  0.60302923  0.06725985  0.98667446  1  -1.169008  0  -0.306354  -0.565499  0  2.345813  0
O  O109  1  0.58648918  0.16401733  0.08331711  1  -1.122128  0  -0.31818  -0.529501  0  2.213235  0
O  O110  1  0.43023767  0.93267406  0.83843238  1  -1.123009  0  -0.314191  -0.524181  0  2.221985  0
O  O111  1  0.40962074  0.02409582  0.93579802  1  -1.171818  0  -0.313493  -0.570091  0  2.331105  0
O  O112  1  0.88459097  0.41430037  0.98557301  1  -1.170899  0  -0.309666  -0.574762  0  2.337484  0
O  O113  1  0.99524580  0.42349428  0.09401354  1  -1.126901  0  -0.317423  -0.523914  0  2.206792  0
O  O114  1  0.91880371  0.39789524  0.83925014  1  -1.121458  0  -0.311536  -0.521784  0  2.230424  0
O  O115  1  0.92644175  0.01158938  0.59376001  1  -1.133561  0  -0.319175  -0.529823  0  2.24909  0
O  O116  1  0.03058405  0.40681091  0.94679125  1  -1.168764  0  -0.305732  -0.558442  0  2.290744  0
O  O117  1  0.05298463  0.57977263  0.96054665  1  -1.176659  0  -0.311113  -0.568219  0  2.297755  0
O  O118  1  0.15933753  0.59571999  0.07873635  1  -1.127405  0  -0.318707  -0.530482  0  2.236822  0
O  O119  1  0.89838722  0.57342382  0.99674337  1  -1.120593  0  -0.318013  -0.52614  0  2.197742  0
O  O120  1  0.01551017  0.59156350  0.10572383  1  -1.170727  0  -0.30844  -0.572332  0  2.317554  0
O  O121  1  0.98921669  0.07965162  0.41458446  1  -1.138634  0  -0.320434  -0.533833  0  2.225662  0
O  O122  1  0.88067239  0.98213886  0.41766461  1  -1.163341  0  -0.314031  -0.57752  0  2.381756  0
O  O123  1  0.00848516  0.92684659  0.39955573  1  -1.181822  0  -0.31028  -0.570493  0  2.360989  0
O  O124  1  0.89633905  0.82721423  0.39624200  1  -1.127297  0  -0.318002  -0.526437  0  2.198224  0
O  O125  1  0.15702186  0.04169319  0.56384523  1  -1.121242  0  -0.310384  -0.51488  0  2.210063  0
O  O126  1  0.05212908  0.95697597  0.58167712  1  -1.180801  0  -0.312113  -0.594035  0  2.33149  0
O  O127  1  0.41049203  0.87997198  0.96667292  1  -1.163962  0  -0.309963  -0.566946  0  2.295304  0
O  O128  1  0.12114289  0.98657224  0.74503272  1  -1.149569  0  -0.363938  -0.447559  0  2.234827  0
O  O129  1  0.51792069  0.97284879  0.31963132  1  -1.117234  0  -0.349622  -0.445207  0  2.242662  0
