# generated using pymatgen
data_PrH8C6SNO9
_symmetry_space_group_name_H-M   'P 1'
_cell_length_a   7.33434309
_cell_length_b   10.41782501
_cell_length_c   15.95544457
_cell_angle_alpha   78.45787845
_cell_angle_beta   77.26812789
_cell_angle_gamma   69.46443318
_symmetry_Int_Tables_number   1
_chemical_formula_structural   PrH8C6SNO9
_chemical_formula_sum   'Pr4 H32 C24 S4 N4 O36'
_cell_volume   1103.47606554
_cell_formula_units_Z   4
loop_
 _symmetry_equiv_pos_site_id
 _symmetry_equiv_pos_as_xyz
  1  'x, y, z'
loop_
 _atom_site_type_symbol
 _atom_site_label
 _atom_site_symmetry_multiplicity
 _atom_site_fract_x
 _atom_site_fract_y
 _atom_site_fract_z
 _atom_site_occupancy
 _atom_site_hle17_bader_spin_density
 _atom_site_hle17_ddec_charge
 _atom_site_hle17_ddec_spin_density
 _atom_site_hle17_ddec_sum_bond_order
 _atom_site_hle17_magmom
 _atom_site_hse06_10hf_bader_spin_density
 _atom_site_hse06_10hf_ddec_charge
 _atom_site_hse06_10hf_ddec_spin_density
 _atom_site_hse06_10hf_ddec_sum_bond_order
 _atom_site_hse06_10hf_magmom
 _atom_site_hse06_bader_spin_density
 _atom_site_hse06_ddec_charge
 _atom_site_hse06_ddec_spin_density
 _atom_site_hse06_ddec_sum_bond_order
 _atom_site_hse06_magmom
 _atom_site_pbe_bader_charge
 _atom_site_pbe_bader_spin_density
 _atom_site_pbe_cm5_charge
 _atom_site_pbe_ddec_charge
 _atom_site_pbe_ddec_spin_density
 _atom_site_pbe_ddec_sum_bond_order
 _atom_site_pbe_magmom
Pr  Pr0  1  0.29427876  0.50864214  0.92799424  1  0  2.348719  0  1.597934  0  0  2.245468  0  1.964648  0  0  2.27941  0  1.923954  0  2.271773  0  1.488  2.169431  0  2.083792  0
Pr  Pr1  1  0.73310003  0.99129561  0.57182936  1  0  2.348886  0  1.599746  0  0  2.245802  0  1.966631  0  0  2.279692  0  1.925914  0  2.274243  0  1.490244  2.170196  0  2.085481  0
Pr  Pr2  1  0.70572147  0.49135808  0.07200487  1  0  2.348759  0  1.59787  0  0  2.245494  0  1.964574  0  0  2.279437  0  1.923879  0  2.271743  0  1.488009  2.169472  0  2.083692  0
Pr  Pr3  1  0.26690270  0.00870461  0.42817146  1  0  2.34889  0  1.599799  0  0  2.245805  0  1.966691  0  0  2.279694  0  1.925975  0  2.274174  0  1.490258  2.170216  0  2.085505  0
H  H4  1  0.16276803  0.39255891  0.79548948  1  0  0.438425  0  0.853305  0  0  0.408433  0  0.915737  0  0  0.418321  0  0.90114  0  0.664247  0  0.305139  0.401359  0  0.926016  0
H  H5  1  0.35565004  0.10751102  0.70347802  1  0  0.438369  0  0.853646  0  0  0.408178  0  0.916402  0  0  0.418112  0  0.901723  0  0.651822  0  0.304964  0.401128  0  0.926646  0
H  H6  1  0.83723190  0.60743924  0.20450965  1  0  0.438462  0  0.853255  0  0  0.40845  0  0.915716  0  0  0.418337  0  0.901119  0  0.6643  0  0.305142  0.401376  0  0.925995  0
H  H7  1  0.64435066  0.89248817  0.29652258  1  0  0.438349  0  0.853675  0  0  0.408161  0  0.916429  0  0  0.418095  0  0.901749  0  0.651787  0  0.304956  0.401108  0  0.926677  0
H  H8  1  0.38332352  0.38912465  0.76345522  1  0  0.439487  0  0.815272  0  0  0.422709  0  0.868597  0  0  0.431005  0  0.85638  0  0.629319  0  0.325437  0.416701  0  0.876033  0
H  H9  1  0.54054954  0.11140146  0.73645967  1  0  0.439979  0  0.815791  0  0  0.42348  0  0.867509  0  0  0.431745  0  0.855339  0  0.649459  0  0.326122  0.417572  0  0.875813  0
H  H10  1  0.61667546  0.61087558  0.23654373  1  0  0.4395  0  0.815256  0  0  0.422721  0  0.86858  0  0  0.431016  0  0.856364  0  0.62931  0  0.325431  0.416713  0  0.876018  0
H  H11  1  0.45945022  0.88859980  0.26354075  1  0  0.439988  0  0.815793  0  0  0.423487  0  0.867504  0  0  0.431751  0  0.855334  0  0.649462  0  0.326121  0.417579  0  0.875818  0
H  H12  1  0.15039316  0.72435828  0.76997763  1  0  0.452986  0  0.843291  0  0  0.422683  0  0.903797  0  0  0.433191  0  0.888487  0  0.677517  0  0.300836  0.41514  0  0.914696  0
H  H13  1  0.64748657  0.77536742  0.72939691  1  0  0.452957  0  0.843644  0  0  0.42277  0  0.904053  0  0  0.43331  0  0.888687  0  0.648165  0  0.300492  0.415196  0  0.915  0
H  H14  1  0.84960644  0.27564194  0.23002211  1  0  0.452978  0  0.8433  0  0  0.422683  0  0.903795  0  0  0.433192  0  0.888484  0  0.677526  0  0.300854  0.41514  0  0.914694  0
H  H15  1  0.35251413  0.22463177  0.27060229  1  0  0.452967  0  0.843646  0  0  0.422778  0  0.904056  0  0  0.433318  0  0.888689  0  0.64816  0  0.300499  0.415204  0  0.915003  0
H  H16  1  0.97430331  0.65964003  0.80705644  1  0  0.437799  0  0.866428  0  0  0.405845  0  0.931199  0  0  0.416441  0  0.915567  0  0.645063  0  0.299697  0.398248  0  0.942262  0
H  H17  1  0.44447206  0.84135387  0.69163305  1  0  0.437553  0  0.867022  0  0  0.406239  0  0.931082  0  0  0.416805  0  0.915475  0  0.660211  0  0.30004  0.39864  0  0.942175  0
H  H18  1  0.02569724  0.34035813  0.19294207  1  0  0.437813  0  0.86641  0  0  0.405868  0  0.931164  0  0  0.416461  0  0.91554  0  0.645129  0  0.299732  0.398271  0  0.942228  0
H  H19  1  0.55552894  0.15864739  0.30836613  1  0  0.43751  0  0.867092  0  0  0.406207  0  0.931131  0  0  0.416774  0  0.915523  0  0.660123  0  0.30005  0.398608  0  0.942225  0
H  H20  1  0.77167946  0.80368146  0.89146022  1  0  0.133704  0  0.942283  0  0  0.139368  0  1.002736  0  0  0.143102  0  0.998998  0  0.180356  0  0.14392  0.136585  0  1.005931  0
H  H21  1  0.47017600  0.69596666  0.60796222  1  0  0.133254  0  0.941204  0  0  0.139006  0  1.001585  0  0  0.142598  0  0.99794  0  0.206809  0  0.143751  0.136295  0  1.004744  0
H  H22  1  0.22831904  0.19631980  0.10853865  1  0  0.133701  0  0.942298  0  0  0.139359  0  1.002773  0  0  0.143092  0  0.999035  0  0.180328  0  0.143918  0.136586  0  1.005941  0
H  H23  1  0.52982485  0.30403357  0.39203627  1  0  0.133194  0  0.941285  0  0  0.138962  0  1.001656  0  0  0.142547  0  0.998016  0  0.20677  0  0.143736  0.136255  0  1.004814  0
H  H24  1  0.98339384  0.74803193  0.12097895  1  0  0.136079  0  0.954267  0  0  0.143555  0  1.009348  0  0  0.14715  0  1.006411  0  0.211594  0  0.141573  0.140864  0  1.012034  0
H  H25  1  0.84966142  0.75195030  0.37953405  1  0  0.1353  0  0.95358  0  0  0.14315  0  1.008279  0  0  0.146601  0  1.005473  0  0.211905  0  0.141779  0.140549  0  1.010838  0
H  H26  1  0.01660499  0.25196726  0.87902072  1  0  0.136018  0  0.95435  0  0  0.143555  0  1.009343  0  0  0.147151  0  1.006402  0  0.211582  0  0.141573  0.140862  0  1.01203  0
H  H27  1  0.15034475  0.24804785  0.62046585  1  0  0.135298  0  0.953551  0  0  0.143139  0  1.008256  0  0  0.14659  0  1.005451  0  0.211932  0  0.141759  0.14054  0  1.010813  0
H  H28  1  0.63371056  0.06365281  0.89120759  1  0  0.127581  0  0.922158  0  0  0.137992  0  0.976156  0  0  0.141778  0  0.974605  0  0.126995  0  0.121485  0.135219  0  0.977691  0
H  H29  1  0.59200101  0.43613267  0.60825303  1  0  0.128153  0  0.922935  0  0  0.138435  0  0.976706  0  0  0.142217  0  0.975186  0  0.111166  0  0.121939  0.135574  0  0.978348  0
H  H30  1  0.36628482  0.93634845  0.10879300  1  0  0.127576  0  0.922192  0  0  0.138015  0  0.976148  0  0  0.141801  0  0.974596  0  0.127013  0  0.121479  0.135223  0  0.977707  0
H  H31  1  0.40799844  0.56386653  0.39174601  1  0  0.128181  0  0.922924  0  0  0.13844  0  0.97671  0  0  0.142222  0  0.975188  0  0.111143  0  0.121927  0.135579  0  0.978354  0
H  H32  1  0.84562010  0.00338564  0.13232536  1  0  0.136439  0  0.93503  0  0  0.140908  0  0.997646  0  0  0.144948  0  0.995863  0  0.147649  0  0.11891  0.137915  0  0.999427  0
H  H33  1  0.97852888  0.49649810  0.36821967  1  0  0.135166  0  0.934073  0  0  0.140327  0  0.996287  0  0  0.144391  0  0.994443  0  0.151784  0  0.118967  0.137393  0  0.997925  0
H  H34  1  0.15437263  0.99661458  0.86767564  1  0  0.13647  0  0.934978  0  0  0.140932  0  0.997606  0  0  0.144973  0  0.995822  0  0.147707  0  0.11892  0.137936  0  0.99939  0
H  H35  1  0.02147557  0.50350110  0.63177998  1  0  0.135124  0  0.93408  0  0  0.140326  0  0.996232  0  0  0.144397  0  0.994383  0  0.151735  0  0.118936  0.137391  0  0.997872  0
C  C36  1  0.63836525  0.20713669  0.01512963  1  0  0.703442  0  3.870889  0  0  0.660311  0  4.164647  0  0  0.69436  0  4.152593  0  1.604458  0  0.234377  0.636665  0  4.16949  0
C  C37  1  0.86057416  0.29276153  0.48471278  1  0  0.704924  0  3.868149  0  0  0.660471  0  4.164027  0  0  0.69449  0  4.15204  0  1.617551  0  0.23448  0.636599  0  4.16926  0
C  C38  1  0.36162856  0.79286664  0.98487140  1  0  0.703824  0  3.870503  0  0  0.660546  0  4.164468  0  0  0.694594  0  4.152413  0  1.604429  0  0.234464  0.63691  0  4.169298  0
C  C39  1  0.13942794  0.70723869  0.51528726  1  0  0.704867  0  3.868152  0  0  0.660421  0  4.164052  0  0  0.694435  0  4.152072  0  1.617928  0  0.234418  0.636549  0  4.169284  0
C  C40  1  0.78443123  0.85560399  0.94140889  1  0  0.044801  0  3.550929  0  0  0.004819  0  3.812977  0  0  0.013342  0  3.822295  0  0.423592  0  0.065085  -0.000767  0  3.806982  0
C  C41  1  0.58319969  0.64422826  0.55814463  1  0  0.047288  0  3.551773  0  0  0.008297  0  3.811576  0  0  0.017056  0  3.820813  0  0.342054  0  0.066146  0.002015  0  3.806031  0
C  C42  1  0.21556603  0.14439727  0.05859123  1  0  0.044816  0  3.550993  0  0  0.004821  0  3.813051  0  0  0.013343  0  3.82237  0  0.423608  0  0.065086  -0.000764  0  3.807057  0
C  C43  1  0.41680461  0.35576990  0.44185434  1  0  0.047303  0  3.551782  0  0  0.008286  0  3.811594  0  0  0.017045  0  3.820833  0  0.342033  0  0.066155  0.001997  0  3.806054  0
C  C44  1  0.90135672  0.82356191  0.07350562  1  0  0.04317  0  3.535139  0  0  0.00707  0  3.789819  0  0  0.014347  0  3.801014  0  0.386498  0  0.06208  0.001646  0  3.783338  0
C  C45  1  0.79672376  0.67637481  0.42666049  1  0  0.041512  0  3.534994  0  0  0.005029  0  3.789973  0  0  0.012488  0  3.801215  0  0.308745  0  0.061113  0.000222  0  3.782931  0
C  C46  1  0.09863897  0.17643728  0.92649437  1  0  0.043133  0  3.53515  0  0  0.007023  0  3.789792  0  0  0.014304  0  3.800981  0  0.386471  0  0.062085  0.001605  0  3.783307  0
C  C47  1  0.20328257  0.32362438  0.57333870  1  0  0.041475  0  3.535128  0  0  0.00499  0  3.79011  0  0  0.012449  0  3.801356  0  0.308757  0  0.061112  0.000184  0  3.783064  0
C  C48  1  0.70927367  0.99676871  0.94326747  1  0  -0.092508  0  3.709207  0  0  -0.114517  0  3.962475  0  0  -0.120095  0  3.982397  0  -0.054099  0  -0.064575  -0.111061  0  3.949765  0
C  C49  1  0.65110154  0.50304802  0.55631178  1  0  -0.092051  0  3.707825  0  0  -0.113965  0  3.960497  0  0  -0.119581  0  3.980304  0  0.08538  0  -0.064209  -0.110638  0  3.948422  0
C  C50  1  0.29072218  0.00323152  0.05673321  1  0  -0.092445  0  3.709234  0  0  -0.114479  0  3.962453  0  0  -0.120056  0  3.982376  0  -0.05441  0  -0.064533  -0.111007  0  3.949749  0
C  C51  1  0.34890431  0.49695221  0.44368732  1  0  -0.09212  0  3.707776  0  0  -0.113967  0  3.960449  0  0  -0.119582  0  3.980254  0  0.085734  0  -0.064227  -0.110641  0  3.948377  0
C  C52  1  0.72585119  0.05355587  0.01248065  1  0  -0.023797  0  3.728357  0  0  -0.011699  0  3.96297  0  0  -0.013027  0  3.983399  0  0.064917  0  0.003407  -0.011067  0  3.95061  0
C  C53  1  0.79178152  0.44637856  0.48736954  1  0  -0.025686  0  3.728137  0  0  -0.013712  0  3.963922  0  0  -0.014886  0  3.984105  0  0.000129  0  0.002547  -0.012968  0  3.95143  0
C  C54  1  0.27414169  0.94644539  0.98751963  1  0  -0.024012  0  3.728375  0  0  -0.011813  0  3.962948  0  0  -0.013143  0  3.983378  0  0.065281  0  0.003402  -0.011183  0  3.950582  0
C  C55  1  0.20822011  0.55362270  0.51263042  1  0  -0.025613  0  3.728147  0  0  -0.01374  0  3.964033  0  0  -0.014913  0  3.984224  0  -0.000222  0  0.002594  -0.012996  0  3.95154  0
C  C56  1  0.82534139  0.96437596  0.07775279  1  0  -0.104391  0  3.701165  0  0  -0.124864  0  3.95273  0  0  -0.130477  0  3.972834  0  -0.018385  0  -0.069407  -0.121761  0  3.940746  0
C  C57  1  0.86565472  0.53559283  0.42238793  1  0  -0.101656  0  3.703095  0  0  -0.122758  0  3.954601  0  0  -0.128359  0  3.974554  0  0.054454  0  -0.068378  -0.119416  0  3.941781  0
C  C58  1  0.17465259  0.03562426  0.92224836  1  0  -0.104326  0  3.701115  0  0  -0.124822  0  3.952646  0  0  -0.130439  0  3.972753  0  -0.018533  0  -0.069441  -0.121716  0  3.940662  0
C  C59  1  0.13435098  0.46440637  0.57761048  1  0  -0.101668  0  3.70322  0  0  -0.122746  0  3.954669  0  0  -0.128355  0  3.974628  0  0.054597  0  -0.068379  -0.119404  0  3.941848  0
S  S60  1  0.71965383  0.52506764  0.82528343  1  0  1.610843  0  5.816649  0  0  1.482778  0  6.374662  0  0  1.539566  0  6.335428  0  3.800824  0  0.577704  1.444045  0  6.394388  0
S  S61  1  0.07414214  0.97507390  0.67504482  1  0  1.610113  0  5.810897  0  0  1.481851  0  6.368977  0  0  1.538551  0  6.329857  0  3.794974  0  0.577483  1.443215  0  6.38865  0
S  S62  1  0.28034547  0.47493052  0.17471493  1  0  1.610883  0  5.816657  0  0  1.482818  0  6.374665  0  0  1.539607  0  6.335429  0  3.801092  0  0.577776  1.444082  0  6.39439  0
S  S63  1  0.92585840  0.02492840  0.32495847  1  0  1.609635  0  5.811066  0  0  1.481382  0  6.369175  0  0  1.538078  0  6.33006  0  3.795183  0  0.57724  1.442737  0  6.388851  0
N  N64  1  0.87618252  0.77176041  0.00688302  1  0  0.297747  0  3.658424  0  0  0.346596  0  3.928047  0  0  0.345666  0  3.946134  0  -0.676141  0  -0.109436  0.346989  0  3.911241  0
N  N65  1  0.65482829  0.72811942  0.49294324  1  0  0.297638  0  3.655613  0  0  0.346132  0  3.925341  0  0  0.345198  0  3.943304  0  -0.665245  0  -0.109507  0.346635  0  3.908524  0
N  N66  1  0.12381709  0.22823982  0.99311671  1  0  0.297807  0  3.658454  0  0  0.346641  0  3.92809  0  0  0.34571  0  3.946176  0  -0.676114  0  -0.109411  0.347032  0  3.911287  0
N  N67  1  0.34517491  0.27187977  0.50705626  1  0  0.297766  0  3.655727  0  0  0.346253  0  3.925452  0  0  0.345321  0  3.943413  0  -0.665272  0  -0.10945  0.346757  0  3.908634  0
O  O68  1  0.29411897  0.36250809  0.81343038  1  0  -0.883219  0  1.863206  0  0  -0.848008  0  2.045979  0  0  -0.863915  0  2.016486  0  -1.273173  0  -0.618814  -0.831638  0  2.068222  0
O  O69  1  0.47471431  0.13715119  0.68593370  1  0  -0.884582  0  1.864017  0  0  -0.849445  0  2.046026  0  0  -0.865357  0  2.016569  0  -1.279749  0  -0.619364  -0.833055  0  2.069079  0
O  O70  1  0.70588063  0.63749214  0.18656935  1  0  -0.883291  0  1.863163  0  0  -0.848044  0  2.045941  0  0  -0.863951  0  2.016447  0  -1.273214  0  -0.618817  -0.831674  0  2.068186  0
O  O71  1  0.52528654  0.86284904  0.31406619  1  0  -0.884576  0  1.864055  0  0  -0.84944  0  2.046056  0  0  -0.865352  0  2.016597  0  -1.279754  0  -0.619352  -0.833052  0  2.069121  0
O  O72  1  0.10633032  0.65601543  0.81572175  1  0  -0.960958  0  1.855272  0  0  -0.917766  0  2.058543  0  0  -0.934959  0  2.024874  0  -1.323599  0  -0.677731  -0.899043  0  2.084885  0
O  O73  1  0.58191495  0.84372372  0.68289735  1  0  -0.961655  0  1.854081  0  0  -0.919099  0  2.055631  0  0  -0.936328  0  2.022104  0  -1.311935  0  -0.678407  -0.900574  0  2.082125  0
O  O74  1  0.89366928  0.34398479  0.18427798  1  0  -0.96097  0  1.855299  0  0  -0.917789  0  2.058554  0  0  -0.934981  0  2.024885  0  -1.323638  0  -0.677781  -0.899067  0  2.084896  0
O  O75  1  0.41808637  0.15627548  0.31710123  1  0  -0.961608  0  1.854138  0  0  -0.919049  0  2.055681  0  0  -0.936278  0  2.022151  0  -1.31192  0  -0.678409  -0.900524  0  2.082177  0
O  O76  1  0.90202370  0.42046953  0.79157018  1  0  -0.696613  0  1.916044  0  0  -0.637396  0  2.14847  0  0  -0.659457  0  2.130668  0  -1.351929  0  -0.334575  -0.622579  0  2.16082  0
O  O77  1  0.11954984  0.07986108  0.70873379  1  0  -0.695319  0  1.917302  0  0  -0.634654  0  2.148336  0  0  -0.656723  0  2.130664  0  -1.34515  0  -0.333354  -0.620063  0  2.160783  0
O  O78  1  0.09797575  0.57952966  0.20842887  1  0  -0.696635  0  1.916089  0  0  -0.637392  0  2.148498  0  0  -0.659451  0  2.130694  0  -1.351917  0  -0.334574  -0.622573  0  2.160849  0
O  O79  1  0.88045227  0.92013915  0.29126905  1  0  -0.695187  0  1.917315  0  0  -0.634561  0  2.148372  0  0  -0.656635  0  2.130707  0  -1.345702  0  -0.333296  -0.619953  0  2.16081  0
O  O80  1  0.50503781  0.27152083  0.96881111  1  0  -0.720285  0  2.052975  0  0  -0.679435  0  2.304945  0  0  -0.702737  0  2.294881  0  -1.196967  0  -0.385932  -0.65694  0  2.312027  0
O  O81  1  0.74692620  0.22823878  0.53079976  1  0  -0.721539  0  2.051296  0  0  -0.680691  0  2.304374  0  0  -0.703878  0  2.294315  0  -1.203235  0  -0.386087  -0.656965  0  2.311829  0
O  O82  1  0.49495240  0.72848354  0.03118875  1  0  -0.720473  0  2.052835  0  0  -0.679573  0  2.304877  0  0  -0.702867  0  2.294797  0  -1.1969  0  -0.386012  -0.657089  0  2.311964  0
O  O83  1  0.25307653  0.77176144  0.46920106  1  0  -0.721504  0  2.051296  0  0  -0.680657  0  2.3044  0  0  -0.703842  0  2.294343  0  -1.20323  0  -0.386064  -0.656932  0  2.311853  0
O  O84  1  0.70485750  0.25838581  0.06281663  1  0  -0.707386  0  2.008909  0  0  -0.669376  0  2.258584  0  0  -0.691775  0  2.247961  0  -1.185898  0  -0.383991  -0.646045  0  2.26642  0
O  O85  1  0.02434830  0.24162516  0.43730933  1  0  -0.706316  0  2.008892  0  0  -0.667056  0  2.25835  0  0  -0.689926  0  2.248152  0  -1.195481  0  -0.383471  -0.64593  0  2.266689  0
O  O86  1  0.29514055  0.74161235  0.93718437  1  0  -0.707476  0  2.008742  0  0  -0.669487  0  2.258563  0  0  -0.691885  0  2.247932  0  -1.185946  0  -0.384027  -0.646156  0  2.266396  0
O  O87  1  0.97565428  0.75837403  0.56269080  1  0  -0.706296  0  2.008935  0  0  -0.667024  0  2.258384  0  0  -0.689894  0  2.248192  0  -1.195842  0  -0.383428  -0.645899  0  2.266727  0
O  O88  1  0.94015919  0.63424511  0.00637218  1  0  -0.717436  0  1.856477  0  0  -0.688914  0  2.129189  0  0  -0.70654  0  2.122734  0  -0.718095  0  -0.33681  -0.663371  0  2.132461  0
O  O89  1  0.58108155  0.86561921  0.49335208  1  0  -0.718176  0  1.858091  0  0  -0.689968  0  2.131365  0  0  -0.707539  0  2.124769  0  -0.730178  0  -0.338477  -0.663764  0  2.134245  0
O  O90  1  0.05984041  0.36575512  0.99362616  1  0  -0.717468  0  1.856549  0  0  -0.68895  0  2.129266  0  0  -0.706574  0  2.122808  0  -0.71808  0  -0.33683  -0.663408  0  2.132538  0
O  O91  1  0.41892305  0.13438102  0.50664687  1  0  -0.718184  0  1.858058  0  0  -0.68998  0  2.131336  0  0  -0.707548  0  2.124735  0  -0.730236  0  -0.338491  -0.663782  0  2.134225  0
O  O92  1  0.66419969  0.49194977  0.92258847  1  0  -0.94254  0  2.149206  0  0  -0.896057  0  2.446985  0  0  -0.914654  0  2.424052  0  -1.356005  0  -0.476949  -0.871398  0  2.460279  0
O  O93  1  0.08087643  0.00759365  0.57763940  1  0  -0.941673  0  2.14646  0  0  -0.895586  0  2.444594  0  0  -0.914072  0  2.421415  0  -1.346854  0  -0.476063  -0.871279  0  2.458356  0
O  O94  1  0.33580101  0.50804942  0.07741073  1  0  -0.94254  0  2.149241  0  0  -0.896049  0  2.447001  0  0  -0.914649  0  2.424073  0  -1.356059  0  -0.476964  -0.871393  0  2.460303  0
O  O95  1  0.91912615  0.99240554  0.42236353  1  0  -0.941526  0  2.146525  0  0  -0.895436  0  2.444662  0  0  -0.913924  0  2.421486  0  -1.346807  0  -0.476002  -0.871129  0  2.458424  0
O  O96  1  0.74618848  0.66424318  0.80688047  1  0  -0.717121  0  1.993075  0  0  -0.645975  0  2.222868  0  0  -0.669189  0  2.204642  0  -1.341538  0  -0.324187  -0.630125  0  2.235036  0
O  O97  1  0.22046490  0.83572561  0.69432109  1  0  -0.715205  0  1.986381  0  0  -0.644723  0  2.216234  0  0  -0.667867  0  2.198073  0  -1.349849  0  -0.32375  -0.628919  0  2.228553  0
O  O98  1  0.25381441  0.33575394  0.19311766  1  0  -0.717128  0  1.99292  0  0  -0.645996  0  2.222726  0  0  -0.669206  0  2.204499  0  -1.341628  0  -0.324223  -0.630164  0  2.234935  0
O  O99  1  0.77953768  0.16427358  0.30568185  1  0  -0.715077  0  1.986455  0  0  -0.644618  0  2.216317  0  0  -0.667759  0  2.198155  0  -1.349746  0  -0.323733  -0.628815  0  2.228638  0
O  O100  1  0.54578505  0.52863638  0.78960099  1  0  -0.784592  0  1.898819  0  0  -0.73451  0  2.151716  0  0  -0.755822  0  2.133788  0  -1.339249  0  -0.405357  -0.714933  0  2.164059  0
O  O101  1  0.86900989  0.97216822  0.71013917  1  0  -0.787638  0  1.898008  0  0  -0.737546  0  2.150877  0  0  -0.758733  0  2.132801  0  -1.340819  0  -0.408884  -0.71776  0  2.163188  0
O  O102  1  0.45421347  0.47136075  0.21039870  1  0  -0.78461  0  1.898823  0  0  -0.734536  0  2.151726  0  0  -0.755848  0  2.1338  0  -1.339425  0  -0.405387  -0.714957  0  2.164069  0
O  O103  1  0.13099457  0.02783097  0.28986329  1  0  -0.787521  0  1.897922  0  0  -0.737399  0  2.150765  0  0  -0.758584  0  2.132692  0  -1.340524  0  -0.408806  -0.717616  0  2.163076  0
