# generated using pymatgen
data_Li2H8C2N10O3
_symmetry_space_group_name_H-M   'P 1'
_cell_length_a   6.82070571
_cell_length_b   7.66102886
_cell_length_c   9.91967694
_cell_angle_alpha   82.78363216
_cell_angle_beta   75.00036220
_cell_angle_gamma   66.79635606
_symmetry_Int_Tables_number   1
_chemical_formula_structural   Li2H8C2N10O3
_chemical_formula_sum   'Li4 H16 C4 N20 O6'
_cell_volume   460.01500904
_cell_formula_units_Z   2
loop_
 _symmetry_equiv_pos_site_id
 _symmetry_equiv_pos_as_xyz
  1  'x, y, z'
loop_
 _atom_site_type_symbol
 _atom_site_label
 _atom_site_symmetry_multiplicity
 _atom_site_fract_x
 _atom_site_fract_y
 _atom_site_fract_z
 _atom_site_occupancy
 _atom_site_hle17_bader_spin_density
 _atom_site_hle17_ddec_charge
 _atom_site_hle17_ddec_spin_density
 _atom_site_hle17_ddec_sum_bond_order
 _atom_site_hle17_magmom
 _atom_site_hse06_10hf_bader_spin_density
 _atom_site_hse06_10hf_ddec_charge
 _atom_site_hse06_10hf_ddec_spin_density
 _atom_site_hse06_10hf_ddec_sum_bond_order
 _atom_site_hse06_10hf_magmom
 _atom_site_hse06_bader_spin_density
 _atom_site_hse06_ddec_charge
 _atom_site_hse06_ddec_spin_density
 _atom_site_hse06_ddec_sum_bond_order
 _atom_site_hse06_magmom
 _atom_site_pbe_bader_spin_density
 _atom_site_pbe_cm5_charge
 _atom_site_pbe_ddec_charge
 _atom_site_pbe_ddec_spin_density
 _atom_site_pbe_ddec_sum_bond_order
 _atom_site_pbe_magmom
Li  Li0  1  0.56666076  0.36524269  0.16566361  1  0  0.773924  0  0.507913  0  0  0.690825  0  0.678048  0  0  0.702297  0  0.660069  0  0  0.551526  0.682955  0  0.690367  0
Li  Li1  1  0.43333982  0.63475666  0.83433679  1  0  0.773952  0  0.507867  0  0  0.690853  0  0.678009  0  0  0.702309  0  0.660053  0  0  0.551535  0.682981  0  0.690328  0
Li  Li2  1  0.48864318  0.14189061  0.56860589  1  0  0.842949  0  0.415504  0  0  0.797726  0  0.530291  0  0  0.806598  0  0.514633  0  0  0.521174  0.791425  0  0.541334  0
Li  Li3  1  0.51135827  0.85811017  0.43139422  1  0  0.842957  0  0.415504  0  0  0.797743  0  0.530278  0  0  0.806614  0  0.514619  0  0  0.521179  0.791441  0  0.54132  0
H  H4  1  0.99469218  0.35050270  0.76904167  1  0  0.263198  0  0.943495  0  0  0.23573  0  1.026851  0  0  0.242925  0  1.020665  0  0  0.319966  0.230572  0  1.031587  0
H  H5  1  0.00530777  0.64949806  0.23095871  1  0  0.263224  0  0.943435  0  0  0.235734  0  1.026796  0  0  0.242927  0  1.020614  0  0  0.319989  0.230581  0  1.031524  0
H  H6  1  0.95921532  0.67843798  0.73805686  1  0  0.259165  0  0.917191  0  0  0.240682  0  0.987811  0  0  0.24603  0  0.983594  0  0  0.323203  0.23682  0  0.99118  0
H  H7  1  0.04078313  0.32156277  0.26194277  1  0  0.259176  0  0.917207  0  0  0.240686  0  0.987835  0  0  0.246037  0  0.983615  0  0  0.323208  0.236823  0  0.991206  0
H  H8  1  0.69400839  0.16434229  0.72885680  1  0  0.397149  0  0.913576  0  0  0.36099  0  0.98731  0  0  0.370924  0  0.972624  0  0  0.298246  0.354007  0  0.997635  0
H  H9  1  0.30599157  0.83565848  0.27114256  1  0  0.397149  0  0.913577  0  0  0.360988  0  0.987317  0  0  0.370923  0  0.972628  0  0  0.298246  0.354005  0  0.99764  0
H  H10  1  0.14692449  0.10217216  0.54994520  1  0  0.415173  0  0.89484  0  0  0.372539  0  0.979097  0  0  0.384  0  0.962195  0  0  0.30067  0.364467  0  0.990978  0
H  H11  1  0.85307459  0.89782718  0.45005444  1  0  0.415184  0  0.894826  0  0  0.372558  0  0.97907  0  0  0.384018  0  0.962168  0  0  0.300677  0.364487  0  0.990951  0
H  H12  1  0.94151504  0.14253238  0.08761393  1  0  0.398377  0  0.909412  0  0  0.357695  0  0.993463  0  0  0.36824  0  0.977987  0  0  0.296025  0.350278  0  1.004341  0
H  H13  1  0.05848490  0.85746839  0.91238644  1  0  0.398413  0  0.909346  0  0  0.357732  0  0.993428  0  0  0.368277  0  0.977951  0  0  0.296049  0.350314  0  1.004307  0
H  H14  1  0.64978254  0.97867932  0.79802524  1  0  0.387862  0  0.935995  0  0  0.346639  0  1.016394  0  0  0.356929  0  1.001487  0  0  0.289238  0.339419  0  1.026841  0
H  H15  1  0.35021590  0.02132143  0.20197540  1  0  0.387874  0  0.935973  0  0  0.346653  0  1.016371  0  0  0.356944  0  1.001463  0  0  0.28925  0.339434  0  1.026817  0
H  H16  1  0.80693405  0.01159644  0.09403395  1  0  0.403624  0  0.899893  0  0  0.364575  0  0.980785  0  0  0.374641  0  0.966312  0  0  0.297895  0.357462  0  0.991019  0
H  H17  1  0.19306653  0.98840290  0.90596645  1  0  0.403613  0  0.899901  0  0  0.364568  0  0.980791  0  0  0.374632  0  0.96632  0  0  0.297893  0.357454  0  0.991026  0
H  H18  1  0.22892465  0.96513672  0.67644414  1  0  0.442529  0  0.847372  0  0  0.417719  0  0.898958  0  0  0.427416  0  0.884577  0  0  0.309872  0.410777  0  0.909267  0
H  H19  1  0.77107594  0.03486263  0.32355524  1  0  0.442563  0  0.84732  0  0  0.417755  0  0.898903  0  0  0.427452  0  0.884523  0  0  0.309887  0.410814  0  0.909211  0
C  C20  1  0.17514106  0.55816173  0.56110310  1  0  0.457584  0  3.825005  0  0  0.412779  0  4.122491  0  0  0.429426  0  4.134155  0  0  0.336571  0.401342  0  4.114429  0
C  C21  1  0.82486016  0.44183621  0.43889630  1  0  0.45769  0  3.824934  0  0  0.412879  0  4.122425  0  0  0.429526  0  4.134089  0  0  0.336617  0.401439  0  4.114366  0
C  C22  1  0.19914995  0.34914473  0.89120696  1  0  0.491108  0  3.842872  0  0  0.43931  0  4.139028  0  0  0.459207  0  4.149126  0  0  0.340388  0.42565  0  4.132237  0
C  C23  1  0.80084937  0.65085747  0.10879239  1  0  0.491243  0  3.843  0  0  0.439416  0  4.139154  0  0  0.45931  0  4.149252  0  0  0.340404  0.425756  0  4.132363  0
N  N24  1  0.11511940  0.39627577  0.77516043  1  0  -0.32092  0  3.340454  0  0  -0.282609  0  3.609875  0  0  -0.296956  0  3.618488  0  0  -0.319019  -0.272519  0  3.603961  0
N  N25  1  0.88488055  0.60372500  0.22483893  1  0  -0.321008  0  3.340522  0  0  -0.28264  0  3.60994  0  0  -0.296985  0  3.618555  0  0  -0.319045  -0.272555  0  3.604023  0
N  N26  1  0.33766949  0.40862086  0.49174000  1  0  -0.419333  0  3.02349  0  0  -0.394498  0  3.319507  0  0  -0.406262  0  3.33033  0  0  -0.297875  -0.386674  0  3.312397  0
N  N27  1  0.66233110  0.59137850  0.50825938  1  0  -0.419337  0  3.023456  0  0  -0.394501  0  3.319477  0  0  -0.406264  0  3.330296  0  0  -0.297853  -0.386677  0  3.312367  0
N  N28  1  0.35597668  0.46363461  0.35628138  1  0  -0.168518  0  3.124691  0  0  -0.148029  0  3.430632  0  0  -0.147359  0  3.440425  0  0  -0.167232  -0.148522  0  3.424755  0
N  N29  1  0.64402541  0.53636475  0.64371876  1  0  -0.168536  0  3.124747  0  0  -0.148051  0  3.430696  0  0  -0.147377  0  3.440488  0  0  -0.167256  -0.148544  0  3.424815  0
N  N30  1  0.10545592  0.56819638  0.70509301  1  0  -0.300472  0  3.244603  0  0  -0.267192  0  3.507472  0  0  -0.278794  0  3.516256  0  0  -0.314432  -0.25878  0  3.501246  0
N  N31  1  0.89454404  0.43180439  0.29490635  1  0  -0.300496  0  3.244679  0  0  -0.267221  0  3.507541  0  0  -0.278826  0  3.516321  0  0  -0.314439  -0.258805  0  3.501316  0
N  N32  1  0.29486916  0.19936341  0.07525361  1  0  -0.090601  0  3.12984  0  0  -0.059146  0  3.403237  0  0  -0.06024  0  3.413467  0  0  -0.090663  -0.058036  0  3.396585  0
N  N33  1  0.70513231  0.80063738  0.92474550  1  0  -0.0906  0  3.129798  0  0  -0.059151  0  3.403189  0  0  -0.060243  0  3.413416  0  0  -0.090638  -0.05804  0  3.396535  0
N  N34  1  0.09307605  0.70154812  0.47375537  1  0  -0.360896  0  2.977508  0  0  -0.319653  0  3.240204  0  0  -0.33312  0  3.25116  0  0  -0.212467  -0.310392  0  3.232809  0
N  N35  1  0.90692303  0.29845121  0.52624428  1  0  -0.360888  0  2.977538  0  0  -0.319629  0  3.240213  0  0  -0.333095  0  3.251169  0  0  -0.212439  -0.310368  0  3.232818  0
N  N36  1  0.37553377  0.33218553  0.04491340  1  0  -0.15271  0  3.128637  0  0  -0.133012  0  3.431698  0  0  -0.131488  0  3.440406  0  0  -0.162811  -0.134027  0  3.426504  0
N  N37  1  0.62446768  0.66781525  0.95508672  1  0  -0.152702  0  3.128656  0  0  -0.133005  0  3.431733  0  0  -0.131478  0  3.440443  0  0  -0.162849  -0.134019  0  3.426539  0
N  N38  1  0.17936701  0.20527701  0.98083954  1  0  -0.418922  0  3.006019  0  0  -0.363369  0  3.264668  0  0  -0.379918  0  3.274679  0  0  -0.228896  -0.351844  0  3.25789  0
N  N39  1  0.82063079  0.79472516  0.01916108  1  0  -0.418948  0  3.006042  0  0  -0.363363  0  3.264687  0  0  -0.379912  0  3.274699  0  0  -0.228887  -0.351838  0  3.25791  0
N  N40  1  0.21198915  0.63770353  0.34525397  1  0  -0.138262  0  3.127897  0  0  -0.104145  0  3.405645  0  0  -0.106623  0  3.41604  0  0  -0.101234  -0.102187  0  3.399118  0
N  N41  1  0.78801142  0.36229582  0.65474642  1  0  -0.138368  0  3.127919  0  0  -0.104261  0  3.405675  0  0  -0.106743  0  3.416069  0  0  -0.101309  -0.102302  0  3.399146  0
N  N42  1  0.31940913  0.43039757  0.92852890  1  0  -0.447762  0  3.033384  0  0  -0.415166  0  3.334888  0  0  -0.428689  0  3.343914  0  0  -0.314267  -0.406294  0  3.328903  0
N  N43  1  0.68058867  0.56960461  0.07147171  1  0  -0.447793  0  3.033515  0  0  -0.415203  0  3.335036  0  0  -0.428749  0  3.344113  0  0  -0.314251  -0.40633  0  3.329047  0
O  O44  1  0.28067858  0.01262608  0.58217944  1  0  -0.955917  0  1.846463  0  0  -0.908841  0  2.039154  0  0  -0.924124  0  2.005246  0  0  -0.687538  -0.898095  0  2.062896  0
O  O45  1  0.71932264  0.98737185  0.41781996  1  0  -0.955968  0  1.846423  0  0  -0.908905  0  2.039123  0  0  -0.924188  0  2.005215  0  0  -0.687554  -0.89816  0  2.062865  0
O  O46  1  0.81319536  0.11419523  0.14342008  1  0  -0.865719  0  1.901375  0  0  -0.800813  0  2.093659  0  0  -0.818306  0  2.060778  0  0  -0.618839  -0.788404  0  2.116524  0
O  O47  1  0.18680522  0.88580411  0.85658032  1  0  -0.865744  0  1.901327  0  0  -0.80086  0  2.093585  0  0  -0.818349  0  2.060708  0  0  -0.618861  -0.788451  0  2.116452  0
O  O48  1  0.62527613  0.07579775  0.72093324  1  0  -0.892624  0  1.844017  0  0  -0.84075  0  2.031247  0  0  -0.856753  0  2.000855  0  0  -0.669524  -0.829409  0  2.052381  0
O  O49  1  0.37472383  0.92420302  0.27906612  1  0  -0.892632  0  1.844  0  0  -0.840762  0  2.031231  0  0  -0.856765  0  2.000835  0  0  -0.669528  -0.829425  0  2.052372  0
