# generated using pymatgen
data_LiH11C14O3
_symmetry_space_group_name_H-M   'P 1'
_cell_length_a   10.04532010
_cell_length_b   12.37540331
_cell_length_c   24.47719477
_cell_angle_alpha   90.00006836
_cell_angle_beta   90.00033554
_cell_angle_gamma   90.00005432
_symmetry_Int_Tables_number   1
_chemical_formula_structural   LiH11C14O3
_chemical_formula_sum   'Li8 H88 C112 O24'
_cell_volume   3042.87971420
_cell_formula_units_Z   8
loop_
 _symmetry_equiv_pos_site_id
 _symmetry_equiv_pos_as_xyz
  1  'x, y, z'
loop_
 _atom_site_type_symbol
 _atom_site_label
 _atom_site_symmetry_multiplicity
 _atom_site_fract_x
 _atom_site_fract_y
 _atom_site_fract_z
 _atom_site_occupancy
 _atom_site_pbe_bader_charge
 _atom_site_pbe_bader_spin_density
 _atom_site_pbe_cm5_charge
 _atom_site_pbe_ddec_charge
 _atom_site_pbe_ddec_spin_density
 _atom_site_pbe_ddec_sum_bond_order
 _atom_site_pbe_magmom
Li  Li0  1  0.21417751  0.27243874  0.55893081  1  0.85716  0  0.55469  0.806939  0  0.525092  0
Li  Li1  1  0.78582746  0.72756535  0.05893030  1  0.857111  0  0.55469  0.806955  0  0.525073  0
Li  Li2  1  0.28582650  0.77243561  0.05893094  1  0.857123  0  0.55468  0.806951  0  0.525088  0
Li  Li3  1  0.71417848  0.22756524  0.55893221  1  0.857146  0  0.554686  0.806954  0  0.52509  0
Li  Li4  1  0.46992193  0.27151272  0.48243787  1  0.863139  0  0.547735  0.812183  0  0.506243  0
Li  Li5  1  0.53008313  0.72848591  0.98243696  1  0.863174  0  0.547714  0.812221  0  0.506132  0
Li  Li6  1  0.03008116  0.77151462  0.98243719  1  0.863157  0  0.547704  0.812232  0  0.506131  0
Li  Li7  1  0.96991991  0.22848724  0.48243642  1  0.863144  0  0.547721  0.812218  0  0.506154  0
H  H8  1  0.73053718  0.20235086  0.67768848  1  0.107184  0  0.106977  0.109271  0  1.043638  0
H  H9  1  0.26946352  0.79765432  0.17769127  1  0.10708  0  0.106989  0.109252  0  1.043608  0
H  H10  1  0.76945948  0.70234692  0.17769102  1  0.107178  0  0.107001  0.109281  0  1.043624  0
H  H11  1  0.23053126  0.29765665  0.67768954  1  0.107086  0  0.106998  0.10923  0  1.043637  0
H  H12  1  0.73401216  0.24938136  0.77526913  1  0.072506  0  0.092028  0.085641  0  1.06232  0
H  H13  1  0.26598596  0.75062162  0.27527188  1  0.07245  0  0.092059  0.085664  0  1.062304  0
H  H14  1  0.76598197  0.74938065  0.27527125  1  0.072389  0  0.092069  0.085667  0  1.062185  0
H  H15  1  0.23401515  0.25061507  0.77526975  1  0.072561  0  0.092041  0.085646  0  1.062319  0
H  H16  1  0.53960960  0.20336750  0.83554049  1  0.041149  0  0.094413  0.089196  0  1.035543  0
H  H17  1  0.46038938  0.79663078  0.33554414  1  0.041097  0  0.094393  0.089163  0  1.035479  0
H  H18  1  0.96038534  0.70337341  0.33554553  1  0.041046  0  0.09442  0.089205  0  1.035478  0
H  H19  1  0.03961463  0.29662407  0.83554155  1  0.04108  0  0.094408  0.089176  0  1.03543  0
H  H20  1  0.34681899  0.10602025  0.79627797  1  0.084864  0  0.095446  0.086354  0  1.052765  0
H  H21  1  0.65317644  0.89397875  0.29628255  1  0.084815  0  0.095452  0.08633  0  1.052792  0
H  H22  1  0.15317628  0.60602591  0.29628309  1  0.084807  0  0.095442  0.086292  0  1.05284  0
H  H23  1  0.84682711  0.39398197  0.79628315  1  0.084844  0  0.095427  0.086303  0  1.052833  0
H  H24  1  0.34271386  0.05795221  0.69806204  1  0.084102  0  0.104618  0.106426  0  1.007269  0
H  H25  1  0.65729310  0.94204656  0.19806707  1  0.083927  0  0.104664  0.106453  0  1.007249  0
H  H26  1  0.15729189  0.55795545  0.19806758  1  0.08398  0  0.104676  0.106501  0  1.007172  0
H  H27  1  0.84271607  0.44205786  0.69806847  1  0.084166  0  0.104668  0.106401  0  1.007301  0
H  H28  1  0.31401687  0.03758905  0.55472817  1  0.108456  0  0.1183  0.113411  0  1.012384  0
H  H29  1  0.68598008  0.96241422  0.05473083  1  0.108521  0  0.11832  0.113415  0  1.012455  0
H  H30  1  0.18598283  0.53758989  0.05472929  1  0.108447  0  0.118301  0.113394  0  1.012403  0
H  H31  1  0.81400915  0.46240853  0.55473176  1  0.108688  0  0.118362  0.113498  0  1.012445  0
H  H32  1  0.21855388  0.85598738  0.54037617  1  0.062406  0  0.099999  0.094412  0  1.01886  0
H  H33  1  0.78143789  0.14401667  0.04037611  1  0.062466  0  0.099999  0.09444  0  1.018812  0
H  H34  1  0.28143702  0.35598694  0.04037599  1  0.062545  0  0.100007  0.09445  0  1.018837  0
H  H35  1  0.71854977  0.64401145  0.54037466  1  0.062427  0  0.100028  0.094527  0  1.018775  0
H  H36  1  0.31260589  0.69674256  0.58832127  1  0.054633  0  0.099149  0.095603  0  1.006615  0
H  H37  1  0.68738657  0.30325837  0.08832354  1  0.054512  0  0.099131  0.095654  0  1.006631  0
H  H38  1  0.18738352  0.19674367  0.08832250  1  0.054181  0  0.099156  0.095646  0  1.006664  0
H  H39  1  0.81260495  0.80325726  0.58831945  1  0.054612  0  0.099155  0.095545  0  1.006677  0
H  H40  1  0.50672062  0.72090031  0.65131647  1  0.049654  0  0.100566  0.097137  0  1.011795  0
H  H41  1  0.49327273  0.27909592  0.15131622  1  0.049623  0  0.100584  0.097176  0  1.011761  0
H  H42  1  0.99326970  0.22090569  0.15131721  1  0.049729  0  0.100584  0.09718  0  1.011744  0
H  H43  1  0.00671569  0.77909942  0.65131589  1  0.049688  0  0.100602  0.097163  0  1.011805  0
H  H44  1  0.60011956  0.90301160  0.66710930  1  0.050161  0  0.098922  0.091854  0  1.013487  0
H  H45  1  0.39987601  0.09698467  0.16710871  1  0.050237  0  0.098926  0.091868  0  1.013478  0
H  H46  1  0.89987618  0.40301853  0.16710899  1  0.050068  0  0.098936  0.091879  0  1.013457  0
H  H47  1  0.10011541  0.59699067  0.66710902  1  0.050228  0  0.098961  0.091904  0  1.013466  0
H  H48  1  0.34876432  0.59004840  0.36019056  1  0.034902  0  0.098165  0.093087  0  1.019114  0
H  H49  1  0.65125093  0.40994347  0.86018403  1  0.034887  0  0.098154  0.093097  0  1.019034  0
H  H50  1  0.15125075  0.09005633  0.86018538  1  0.034885  0  0.098117  0.093024  0  1.019051  0
H  H51  1  0.84875753  0.90994848  0.36018799  1  0.034954  0  0.098152  0.09309  0  1.019085  0
H  H52  1  0.26772481  0.77674453  0.37628019  1  0.054451  0  0.09991  0.096046  0  1.02207  0
H  H53  1  0.73228868  0.22324819  0.87627375  1  0.054278  0  0.099901  0.095967  0  1.022197  0
H  H54  1  0.23229170  0.27674928  0.87627602  1  0.054383  0  0.099891  0.095962  0  1.022256  0
H  H55  1  0.76772080  0.72324990  0.37627669  1  0.054639  0  0.099891  0.095994  0  1.022031  0
H  H56  1  0.10590176  0.81369285  0.45103286  1  0.042406  0  0.097904  0.091366  0  1.003784  0
H  H57  1  0.89410583  0.18629521  0.95102882  1  0.042123  0  0.097936  0.091454  0  1.003786  0
H  H58  1  0.39410890  0.31370500  0.95103153  1  0.04213  0  0.097916  0.0914  0  1.003663  0
H  H59  1  0.60589869  0.68630002  0.45102974  1  0.042256  0  0.097934  0.091437  0  1.003719  0
H  H60  1  0.03198709  0.66344486  0.51173862  1  0.100187  0  0.093522  0.089943  0  1.053593  0
H  H61  1  0.96802020  0.33654539  0.01173586  1  0.100187  0  0.093519  0.089926  0  1.053727  0
H  H62  1  0.46802110  0.16345346  0.01173807  1  0.100122  0  0.093531  0.089946  0  1.053729  0
H  H63  1  0.53198220  0.83654567  0.51173600  1  0.100167  0  0.0935  0.089834  0  1.053758  0
H  H64  1  0.11412861  0.47860726  0.49666626  1  0.068794  0  0.109885  0.103193  0  1.039664  0
H  H65  1  0.88587466  0.52138009  0.99666404  1  0.068996  0  0.10982  0.10321  0  1.039745  0
H  H66  1  0.38587492  0.97861833  0.99666685  1  0.068907  0  0.10985  0.103255  0  1.039624  0
H  H67  1  0.61412535  0.02138195  0.49666550  1  0.068931  0  0.109844  0.103206  0  1.039673  0
H  H68  1  0.49468086  0.30122878  0.36086271  1  0.103546  0  0.106316  0.107461  0  1.039882  0
H  H69  1  0.50531847  0.69876471  0.86086131  1  0.103603  0  0.106312  0.107455  0  1.039895  0
H  H70  1  0.00531953  0.80123956  0.86086197  1  0.100243  0  0.106307  0.107468  0  1.039929  0
H  H71  1  0.99466885  0.19877171  0.36086409  1  0.100427  0  0.106284  0.107358  0  1.040098  0
H  H72  1  0.49883929  0.25647538  0.26294625  1  0.045576  0  0.091867  0.085847  0  1.06101  0
H  H73  1  0.50115964  0.74352838  0.76294610  1  0.045648  0  0.091863  0.085833  0  1.060989  0
H  H74  1  0.00115667  0.75647726  0.76294550  1  0.045557  0  0.091859  0.085838  0  1.060984  0
H  H75  1  0.99883032  0.24353055  0.26294807  1  0.045816  0  0.091898  0.085894  0  1.060979  0
H  H76  1  0.30264902  0.29903465  0.20332400  1  0.068944  0  0.09189  0.085461  0  1.03994  0
H  H77  1  0.69735105  0.70097382  0.70332306  1  0.068852  0  0.091895  0.085413  0  1.040079  0
H  H78  1  0.19735111  0.79903507  0.70332372  1  0.068913  0  0.091885  0.085442  0  1.039972  0
H  H79  1  0.80264100  0.20096532  0.20332498  1  0.068996  0  0.09182  0.085389  0  1.039878  0
H  H80  1  0.10553170  0.38932421  0.24368748  1  0.074105  0  0.095746  0.087097  0  1.043752  0
H  H81  1  0.89447094  0.61068355  0.74368452  1  0.073973  0  0.095749  0.087064  0  1.043779  0
H  H82  1  0.39446712  0.88932801  0.74368482  1  0.074113  0  0.095729  0.087016  0  1.043766  0
H  H83  1  0.60552556  0.11067248  0.24368759  1  0.074059  0  0.095802  0.087253  0  1.043765  0
H  H84  1  0.10125581  0.43584563  0.34212442  1  0.11481  0  0.10583  0.109621  0  1.000887  0
H  H85  1  0.89874923  0.56415670  0.84212226  1  0.114811  0  0.105785  0.109564  0  1.000796  0
H  H86  1  0.39874148  0.93584944  0.84212095  1  0.114819  0  0.105832  0.10956  0  1.00089  0
H  H87  1  0.60124962  0.06414724  0.34212410  1  0.114679  0  0.105843  0.109703  0  1.000839  0
H  H88  1  0.72193467  0.04935295  0.62166853  1  0.5949  0  0.340483  0.374708  0  0.877068  0
H  H89  1  0.27807120  0.95064483  0.12167061  1  0.594955  0  0.340468  0.374723  0  0.877074  0
H  H90  1  0.77806997  0.54935709  0.12166986  1  0.594924  0  0.340487  0.374763  0  0.876998  0
H  H91  1  0.22192694  0.45065119  0.62167009  1  0.594889  0  0.340468  0.374643  0  0.87717  0
H  H92  1  0.48537454  0.44911979  0.41859648  1  0.586037  0  0.338912  0.372601  0  0.88038  0
H  H93  1  0.51463259  0.55087223  0.91859420  1  0.5857  0  0.338896  0.372574  0  0.880451  0
H  H94  1  0.01463083  0.94912814  0.91859454  1  0.58569  0  0.338905  0.372627  0  0.88045  0
H  H95  1  0.98536933  0.05087842  0.41859533  1  0.585745  0  0.33891  0.37255  0  0.880446  0
C  C96  1  0.45728394  0.18713175  0.59154960  1  1.634541  0  0.235155  0.603226  0  4.174903  0
C  C97  1  0.54271653  0.81286029  0.09155142  1  1.648308  0  0.235068  0.603189  0  4.17493  0
C  C98  1  0.04271945  0.68713894  0.09155160  1  1.648318  0  0.23504  0.603114  0  4.174713  0
C  C99  1  0.95728599  0.31286603  0.59155187  1  1.647747  0  0.235154  0.603242  0  4.174682  0
C  C100  1  0.53196862  0.09350497  0.62110329  1  0.436156  0  0.086393  0.131527  0  3.832436  0
C  C101  1  0.46803525  0.90648957  0.12110703  1  0.422517  0  0.086373  0.131322  0  3.83282  0
C  C102  1  0.96803307  0.59351330  0.12110672  1  0.422531  0  0.086447  0.131551  0  3.832627  0
C  C103  1  0.03196383  0.40649336  0.62110810  1  0.422742  0  0.086408  0.131267  0  3.832829  0
C  C104  1  0.53777177  0.12319054  0.68157388  1  -0.110616  0  -0.017086  0.017084  0  3.96878  0
C  C105  1  0.46222998  0.87680980  0.18157718  1  -0.110457  0  -0.017071  0.017191  0  3.968984  0
C  C106  1  0.96222883  0.62319564  0.18157648  1  -0.110097  0  -0.017115  0.017084  0  3.968909  0
C  C107  1  0.03777093  0.37681278  0.68157826  1  -0.110147  0  -0.017131  0.017025  0  3.969029  0
C  C108  1  0.64699795  0.17870476  0.70356634  1  -0.017702  0  -0.095004  -0.136802  0  3.972997  0
C  C109  1  0.35300312  0.82129402  0.20357138  1  -0.017452  0  -0.095113  -0.136934  0  3.97295  0
C  C110  1  0.85299806  0.67870492  0.20357112  1  -0.017642  0  -0.095094  -0.136929  0  3.972916  0
C  C111  1  0.14699704  0.32129386  0.70357028  1  -0.017497  0  -0.095065  -0.136785  0  3.972924  0
C  C112  1  0.64786245  0.20699481  0.75887171  1  -0.056251  0  -0.099477  -0.080191  0  4.027219  0
C  C113  1  0.35213543  0.79300894  0.25887673  1  -0.056585  0  -0.099432  -0.080113  0  4.027067  0
C  C114  1  0.85213140  0.70699336  0.25887608  1  -0.055963  0  -0.099457  -0.080073  0  4.027032  0
C  C115  1  0.14786051  0.29300232  0.75887563  1  -0.0564  0  -0.099483  -0.080174  0  4.027206  0
C  C116  1  0.54001046  0.18150716  0.79236765  1  -0.074635  0  -0.099727  -0.098493  0  4.023091  0
C  C117  1  0.45999088  0.81850072  0.29237213  1  -0.074454  0  -0.099754  -0.098512  0  4.022807  0
C  C118  1  0.95999180  0.68150740  0.29237187  1  -0.075037  0  -0.099812  -0.098653  0  4.023083  0
C  C119  1  0.04000855  0.31849401  0.79237036  1  -0.074684  0  -0.099725  -0.098483  0  4.023007  0
C  C120  1  0.43060808  0.12748380  0.77025263  1  -0.123141  0  -0.094401  -0.077144  0  4.021994  0
C  C121  1  0.56939494  0.87251191  0.27025250  1  -0.123617  0  -0.094351  -0.077084  0  4.022055  0
C  C122  1  0.06938783  0.62748616  0.27025428  1  -0.123097  0  -0.094374  -0.077066  0  4.022171  0
C  C123  1  0.93061120  0.37252005  0.77025616  1  -0.123254  0  -0.094325  -0.077083  0  4.02199  0
C  C124  1  0.42897009  0.09904345  0.71523079  1  0.029241  0  -0.089214  -0.11361  0  3.970119  0
C  C125  1  0.57103313  0.90095617  0.21523273  1  0.029779  0  -0.089265  -0.113618  0  3.970368  0
C  C126  1  0.07103098  0.59904581  0.21523326  1  0.029057  0  -0.089195  -0.113565  0  3.970181  0
C  C127  1  0.92897026  0.40095865  0.71523352  1  0.028818  0  -0.089241  -0.113462  0  3.970138  0
C  C128  1  0.46495477  0.98374097  0.61152232  1  0.00086  0  -0.006742  0.041699  0  3.925896  0
C  C129  1  0.53504598  0.01625678  0.11152405  1  0.001012  0  -0.006729  0.041688  0  3.926116  0
C  C130  1  0.03504326  0.48374600  0.11152400  1  0.000976  0  -0.006725  0.041466  0  3.926172  0
C  C131  1  0.96494455  0.51625822  0.61152646  1  0.001387  0  -0.006702  0.041825  0  3.926154  0
C  C132  1  0.35723669  0.96881369  0.57599483  1  -0.090469  0  -0.080923  -0.115676  0  3.951882  0
C  C133  1  0.64275957  0.03118397  0.07599560  1  -0.09072  0  -0.080878  -0.115593  0  3.951872  0
C  C134  1  0.14276082  0.46881719  0.07599513  1  -0.090695  0  -0.080942  -0.115563  0  3.951916  0
C  C135  1  0.85723046  0.53118128  0.57599816  1  -0.091524  0  -0.080962  -0.115774  0  3.952027  0
C  C136  1  0.30249666  0.86615519  0.56812414  1  -0.022844  0  -0.089658  -0.080054  0  4.023175  0
C  C137  1  0.69749850  0.13384246  0.06812837  1  -0.022723  0  -0.08973  -0.080075  0  4.023175  0
C  C138  1  0.19749565  0.36615954  0.06812662  1  -0.022786  0  -0.089736  -0.080129  0  4.023317  0
C  C139  1  0.80248955  0.63383892  0.56812631  1  -0.022732  0  -0.089772  -0.08028  0  4.023144  0
C  C140  1  0.35550855  0.77658645  0.59506150  1  -0.065061  0  -0.094168  -0.091475  0  4.026295  0
C  C141  1  0.64448500  0.22341207  0.09506280  1  -0.064953  0  -0.094167  -0.091646  0  4.02635  0
C  C142  1  0.14448503  0.27658833  0.09506344  1  -0.064562  0  -0.094141  -0.091527  0  4.026291  0
C  C143  1  0.85550154  0.72341181  0.59506004  1  -0.065079  0  -0.094039  -0.091246  0  4.026094  0
C  C144  1  0.46402302  0.79029437  0.63014899  1  -0.017573  0  -0.093421  -0.087084  0  4.028251  0
C  C145  1  0.53597401  0.20970666  0.13014920  1  -0.017523  0  -0.093427  -0.08712  0  4.028209  0
C  C146  1  0.03597606  0.29029535  0.13015067  1  -0.017596  0  -0.09345  -0.08716  0  4.028162  0
C  C147  1  0.96401600  0.70970729  0.63014752  1  -0.017608  0  -0.093513  -0.087201  0  4.028261  0
C  C148  1  0.51744801  0.89310236  0.63849440  1  -0.098728  0  -0.093157  -0.135111  0  3.99737  0
C  C149  1  0.48255511  0.10689384  0.13849647  1  -0.098826  0  -0.09316  -0.135076  0  3.997442  0
C  C150  1  0.98255328  0.39310935  0.13849552  1  -0.098646  0  -0.093179  -0.135046  0  3.997482  0
C  C151  1  0.01743292  0.60689735  0.63849862  1  -0.098563  0  -0.093222  -0.135143  0  3.997575  0
C  C152  1  0.21332163  0.31967424  0.44910982  1  1.642439  0  0.230856  0.593466  0  4.188405  0
C  C153  1  0.78668494  0.68031785  0.94910950  1  1.644089  0  0.230851  0.593257  0  4.188621  0
C  C154  1  0.28668602  0.81968038  0.94911058  1  1.644102  0  0.23084  0.593213  0  4.18849  0
C  C155  1  0.71331657  0.18031898  0.44911202  1  1.644066  0  0.230956  0.593548  0  4.188426  0
C  C156  1  0.29481413  0.40776025  0.41801856  1  0.417922  0  0.086645  0.133348  0  3.828125  0
C  C157  1  0.70519498  0.59223015  0.91801717  1  0.416504  0  0.086655  0.133375  0  3.82819  0
C  C158  1  0.20519417  0.90776956  0.91801748  1  0.416521  0  0.086632  0.133347  0  3.828195  0
C  C159  1  0.79480598  0.09223538  0.41801865  1  0.416144  0  0.086486  0.13292  0  3.828634  0
C  C160  1  0.23681014  0.52068343  0.42712414  1  -0.075829  0  -0.011015  0.038584  0  3.936952  0
C  C161  1  0.76319512  0.47930699  0.92712405  1  -0.076157  0  -0.010983  0.03855  0  3.93696  0
C  C162  1  0.26319486  0.02069225  0.92712535  1  -0.076065  0  -0.010921  0.038639  0  3.936861  0
C  C163  1  0.73680542  0.97931191  0.42712365  1  -0.075959  0  -0.010953  0.038656  0  3.936878  0
C  C164  1  0.28011171  0.60616345  0.39388471  1  0.03358  0  -0.096469  -0.140416  0  4.004454  0
C  C165  1  0.71990005  0.39382770  0.89388078  1  0.03344  0  -0.096455  -0.140346  0  4.004357  0
C  C166  1  0.21990088  0.10617062  0.89388255  1  0.033518  0  -0.096441  -0.140263  0  4.004264  0
C  C167  1  0.78010987  0.89383104  0.39388376  1  0.0337  0  -0.096477  -0.140441  0  4.004283  0
C  C168  1  0.23416805  0.71122183  0.40264345  1  -0.1077  0  -0.096706  -0.087371  0  4.030931  0
C  C169  1  0.76584383  0.28876933  0.90263794  1  -0.107517  0  -0.096784  -0.087349  0  4.031076  0
C  C170  1  0.26584678  0.21122742  0.90263854  1  -0.107643  0  -0.096802  -0.087447  0  4.031241  0
C  C171  1  0.73416012  0.78877425  0.40263958  1  -0.108049  0  -0.096754  -0.087319  0  4.030832  0
C  C172  1  0.14387855  0.73207046  0.44472211  1  -0.065477  0  -0.095283  -0.089993  0  4.034192  0
C  C173  1  0.85612098  0.26791515  0.94472048  1  -0.065467  0  -0.095211  -0.09002  0  4.034054  0
C  C174  1  0.35611898  0.23208259  0.94472354  1  -0.065332  0  -0.095194  -0.089932  0  4.033986  0
C  C175  1  0.64387459  0.76792161  0.44471904  1  -0.065441  0  -0.095222  -0.090033  0  4.033937  0
C  C176  1  0.10197764  0.64798111  0.47861276  1  -0.056494  0  -0.094043  -0.079046  0  4.009299  0
C  C177  1  0.89803233  0.35200782  0.97860924  1  -0.056479  0  -0.094056  -0.079053  0  4.009364  0
C  C178  1  0.39803123  0.14799245  0.97861226  1  -0.05656  0  -0.09405  -0.079049  0  4.009334  0
C  C179  1  0.60197377  0.85201102  0.47861138  1  -0.05649  0  -0.094016  -0.078921  0  4.009209  0
C  C180  1  0.14840212  0.54305766  0.46989161  1  0.006595  0  -0.084035  -0.113089  0  3.951352  0
C  C181  1  0.85160673  0.45692962  0.96988845  1  0.007048  0  -0.083983  -0.11311  0  3.95161  0
C  C182  1  0.35160849  0.04306736  0.96989099  1  0.007015  0  -0.084033  -0.113184  0  3.951354  0
C  C183  1  0.64839539  0.95693286  0.46988988  1  0.006741  0  -0.084036  -0.1131  0  3.951363  0
C  C184  1  0.29923365  0.37579112  0.35782497  1  -0.069928  0  -0.015975  0.02164  0  3.95991  0
C  C185  1  0.70077161  0.62420721  0.85782359  1  -0.069415  0  -0.015895  0.021765  0  3.959875  0
C  C186  1  0.20077076  0.87579316  0.85782429  1  -0.06973  0  -0.015909  0.021771  0  3.960019  0
C  C187  1  0.79922455  0.12421083  0.35782550  1  -0.070071  0  -0.015837  0.021849  0  3.959931  0
C  C188  1  0.40996861  0.32326275  0.33527839  1  -0.079546  0  -0.095828  -0.137635  0  3.975545  0
C  C189  1  0.59003534  0.67673795  0.83527800  1  -0.079656  0  -0.095877  -0.13777  0  3.975414  0
C  C190  1  0.09003742  0.82326147  0.83527867  1  -0.076316  0  -0.095826  -0.137721  0  3.975562  0
C  C191  1  0.90995857  0.17674328  0.33528017  1  -0.076404  0  -0.095823  -0.137597  0  3.975511  0
C  C192  1  0.41131808  0.29617024  0.27980756  1  -0.026031  0  -0.100093  -0.079925  0  4.030489  0
C  C193  1  0.58868209  0.70382872  0.77980719  1  -0.026095  0  -0.100023  -0.079803  0  4.030376  0
C  C194  1  0.08868214  0.79616976  0.77980825  1  -0.026011  0  -0.100049  -0.07985  0  4.030471  0
C  C195  1  0.91130409  0.20383566  0.27981018  1  -0.026076  0  -0.100152  -0.079993  0  4.030325  0
C  C196  1  0.30220735  0.31958676  0.24666026  1  -0.168157  0  -0.102058  -0.100665  0  4.030838  0
C  C197  1  0.69779135  0.68042262  0.74665850  1  -0.167858  0  -0.102118  -0.100689  0  4.030695  0
C  C198  1  0.19779144  0.81958072  0.74665957  1  -0.167851  0  -0.102128  -0.100738  0  4.030833  0
C  C199  1  0.80219532  0.18041816  0.24666204  1  -0.167973  0  -0.102058  -0.100606  0  4.030498  0
C  C200  1  0.19071781  0.36978471  0.26936577  1  0.02199  0  -0.094426  -0.077695  0  4.024446  0
C  C201  1  0.80928719  0.63022150  0.76936465  1  0.021724  0  -0.094477  -0.077705  0  4.024314  0
C  C202  1  0.30928235  0.86978440  0.76936494  1  0.021644  0  -0.094396  -0.077607  0  4.024381  0
C  C203  1  0.69070771  0.13021453  0.26936629  1  0.021414  0  -0.09438  -0.077856  0  4.024565  0
C  C204  1  0.18876806  0.39724731  0.32453713  1  -0.053279  0  -0.088483  -0.114749  0  3.964919  0
C  C205  1  0.81123374  0.60275014  0.82453191  1  -0.053541  0  -0.088405  -0.114646  0  3.964806  0
C  C206  1  0.31123591  0.89724297  0.82453426  1  -0.05334  0  -0.088487  -0.114673  0  3.964926  0
C  C207  1  0.68875893  0.10275448  0.32453723  1  -0.052788  0  -0.08855  -0.114796  0  3.964953  0
O  O208  1  0.33703301  0.19939960  0.60389932  1  -1.224141  0  -0.383829  -0.630079  0  2.20655  0
O  O209  1  0.66297460  0.80059490  0.10390101  1  -1.224006  0  -0.383791  -0.63004  0  2.206298  0
O  O210  1  0.16297952  0.69940366  0.10390161  1  -1.224099  0  -0.383827  -0.630054  0  2.206062  0
O  O211  1  0.83702908  0.30058761  0.60390404  1  -1.223959  0  -0.383864  -0.630093  0  2.206136  0
O  O212  1  0.52379629  0.24376504  0.55767286  1  -1.246136  0  -0.445459  -0.714222  0  2.187837  0
O  O213  1  0.47620966  0.75622854  0.05767571  1  -1.246478  0  -0.44539  -0.714178  0  2.18795  0
O  O214  1  0.97621164  0.74377338  0.05767753  1  -1.24639  0  -0.445343  -0.714141  0  2.188005  0
O  O215  1  0.02379531  0.25624282  0.55767390  1  -1.246082  0  -0.445436  -0.714155  0  2.187879  0
O  O216  1  0.66439828  0.09054347  0.59736217  1  -1.115684  0  -0.421026  -0.569243  0  2.30009  0
O  O217  1  0.33560625  0.90945263  0.09736437  1  -1.115684  0  -0.420991  -0.569189  0  2.300151  0
O  O218  1  0.83560507  0.59055089  0.09736446  1  -1.115694  0  -0.421005  -0.569232  0  2.300119  0
O  O219  1  0.16439050  0.40946137  0.59736371  1  -1.115602  0  -0.421041  -0.569137  0  2.300161  0
O  O220  1  0.27672451  0.26307009  0.48419724  1  -1.252642  0  -0.448075  -0.719421  0  2.186779  0
O  O221  1  0.72327958  0.73692208  0.98419557  1  -1.252645  0  -0.448088  -0.719409  0  2.187083  0
O  O222  1  0.22327760  0.76307618  0.98419702  1  -1.252674  0  -0.448085  -0.719405  0  2.186894  0
O  O223  1  0.77672349  0.23692568  0.48419742  1  -1.252766  0  -0.448098  -0.719487  0  2.186862  0
O  O224  1  0.09215567  0.31119930  0.43759651  1  -1.222848  0  -0.370074  -0.623706  0  2.179048  0
O  O225  1  0.90785273  0.68879518  0.93759730  1  -1.222793  0  -0.370055  -0.623564  0  2.178899  0
O  O226  1  0.40784981  0.81120393  0.93759796  1  -1.222808  0  -0.370042  -0.623536  0  2.178953  0
O  O227  1  0.59215062  0.18879379  0.43759912  1  -1.22274  0  -0.370131  -0.623676  0  2.178966  0
O  O228  1  0.42752187  0.40588322  0.44185192  1  -1.106498  0  -0.42646  -0.572544  0  2.274905  0
O  O229  1  0.57248658  0.59410885  0.94184940  1  -1.106367  0  -0.426494  -0.572586  0  2.274911  0
O  O230  1  0.07248677  0.90589081  0.94184848  1  -1.106362  0  -0.426498  -0.572652  0  2.274984  0
O  O231  1  0.92751571  0.09411176  0.44185161  1  -1.10609  0  -0.426408  -0.572353  0  2.274903  0
