# generated using pymatgen
data_CdH24C24(N6Cl)2
_symmetry_space_group_name_H-M   'P 1'
_cell_length_a   7.59957981
_cell_length_b   8.89007422
_cell_length_c   21.89500000
_cell_angle_alpha   90.00000000
_cell_angle_beta   90.00000000
_cell_angle_gamma   109.15844816
_symmetry_Int_Tables_number   1
_chemical_formula_structural   CdH24C24(N6Cl)2
_chemical_formula_sum   'Cd2 H48 C48 N24 Cl4'
_cell_volume   1397.31583214
_cell_formula_units_Z   2
loop_
 _symmetry_equiv_pos_site_id
 _symmetry_equiv_pos_as_xyz
  1  'x, y, z'
loop_
 _atom_site_type_symbol
 _atom_site_label
 _atom_site_symmetry_multiplicity
 _atom_site_fract_x
 _atom_site_fract_y
 _atom_site_fract_z
 _atom_site_occupancy
 _atom_site_hle17_bader_spin_density
 _atom_site_hle17_ddec_charge
 _atom_site_hle17_ddec_spin_density
 _atom_site_hle17_ddec_sum_bond_order
 _atom_site_hle17_magmom
 _atom_site_hse06_10hf_bader_spin_density
 _atom_site_hse06_10hf_ddec_charge
 _atom_site_hse06_10hf_ddec_spin_density
 _atom_site_hse06_10hf_ddec_sum_bond_order
 _atom_site_hse06_10hf_magmom
 _atom_site_hse06_bader_spin_density
 _atom_site_hse06_ddec_charge
 _atom_site_hse06_ddec_spin_density
 _atom_site_hse06_ddec_sum_bond_order
 _atom_site_hse06_magmom
 _atom_site_pbe_bader_charge
 _atom_site_pbe_bader_spin_density
 _atom_site_pbe_cm5_charge
 _atom_site_pbe_ddec_charge
 _atom_site_pbe_ddec_spin_density
 _atom_site_pbe_ddec_sum_bond_order
 _atom_site_pbe_magmom
Cd  Cd0  1  0.00000046  0.00000119  0.49999954  1  0  0.979468  0  1.938996  0  0  0.796219  0  2.394327  0  0  0.842158  0  2.356286  0  1.202105  0  0.691263  0.763899  0  2.420082  0
Cd  Cd1  1  0.99999967  0.49999916  0.99999954  1  0  0.979504  0  1.93895  0  0  0.796268  0  2.394262  0  0  0.842209  0  2.356217  0  1.202125  0  0.691284  0.763949  0  2.420018  0
H  H2  1  0.23624795  0.39882139  0.44143366  1  0  0.088165  0  0.939873  0  0  0.098924  0  1.001716  0  0  0.100714  0  0.999643  0  0.131385  0  0.128857  0.097557  0  1.003275  0
H  H3  1  0.23624496  0.89882055  0.05856543  1  0  0.088135  0  0.939914  0  0  0.098911  0  1.001738  0  0  0.1007  0  0.999666  0  0.131413  0  0.128874  0.097545  0  1.003298  0
H  H4  1  0.76375715  0.60118170  0.55856725  1  0  0.08822  0  0.939803  0  0  0.098955  0  1.001673  0  0  0.100745  0  0.999601  0  0.131436  0  0.128885  0.097588  0  1.003233  0
H  H5  1  0.76375167  0.10117420  0.94143412  1  0  0.088169  0  0.939877  0  0  0.098934  0  1.00171  0  0  0.100724  0  0.999636  0  0.131382  0  0.128852  0.097567  0  1.003271  0
H  H6  1  0.66034003  0.16006418  0.45499749  1  0  0.103492  0  0.964647  0  0  0.108041  0  1.039102  0  0  0.110732  0  1.035436  0  0.185167  0  0.124249  0.106004  0  1.041704  0
H  H7  1  0.66033659  0.66006215  0.04500160  1  0  0.103512  0  0.96461  0  0  0.108069  0  1.039055  0  0  0.110763  0  1.035383  0  0.185135  0  0.12427  0.106034  0  1.041658  0
H  H8  1  0.33966506  0.83993891  0.54500069  1  0  0.103514  0  0.964619  0  0  0.108066  0  1.039077  0  0  0.110758  0  1.035411  0  0.185131  0  0.124263  0.106031  0  1.041678  0
H  H9  1  0.33966227  0.33993498  0.95499749  1  0  0.103521  0  0.964613  0  0  0.108068  0  1.039074  0  0  0.110762  0  1.035403  0  0.18517  0  0.124257  0.106032  0  1.041676  0
H  H10  1  0.74507817  0.59609102  0.41157570  1  0  0.100818  0  0.941375  0  0  0.109187  0  1.01421  0  0  0.110854  0  1.012676  0  0.072423  0  0.110193  0.107945  0  1.015326  0
H  H11  1  0.74507498  0.09608947  0.08842293  1  0  0.100823  0  0.941343  0  0  0.109161  0  1.014215  0  0  0.110831  0  1.012678  0  0.072445  0  0.110169  0.107919  0  1.015333  0
H  H12  1  0.25492824  0.40391207  0.58842247  1  0  0.100821  0  0.941423  0  0  0.109182  0  1.014245  0  0  0.110849  0  1.012715  0  0.07247  0  0.110193  0.10794  0  1.015363  0
H  H13  1  0.25492388  0.90390766  0.91157662  1  0  0.100817  0  0.94138  0  0  0.109178  0  1.014198  0  0  0.110846  0  1.012661  0  0.072406  0  0.110196  0.107937  0  1.015312  0
H  H14  1  0.57395460  0.43295218  0.44720712  1  0  0.087498  0  0.934078  0  0  0.098808  0  1.004636  0  0  0.100037  0  1.003019  0  0.074179  0  0.106984  0.097834  0  1.005883  0
H  H15  1  0.57394938  0.93294896  0.05279425  1  0  0.087509  0  0.934066  0  0  0.098806  0  1.004632  0  0  0.100035  0  1.003011  0  0.07396  0  0.106989  0.097832  0  1.005879  0
H  H16  1  0.42605582  0.56705447  0.55279425  1  0  0.087562  0  0.933999  0  0  0.098847  0  1.004542  0  0  0.100094  0  1.002906  0  0.073936  0  0.107019  0.097874  0  1.00579  0
H  H17  1  0.42604639  0.06704698  0.94720484  1  0  0.087442  0  0.934065  0  0  0.09874  0  1.004641  0  0  0.099965  0  1.003022  0  0.07419  0  0.10696  0.097766  0  1.005889  0
H  H18  1  0.79525476  0.58421156  0.29586983  1  0  0.097041  0  0.99125  0  0  0.102454  0  1.06126  0  0  0.105793  0  1.059276  0  0.123339  0  0.097568  0.100044  0  1.062724  0
H  H19  1  0.79525729  0.08421121  0.20413154  1  0  0.097011  0  0.991237  0  0  0.102427  0  1.061243  0  0  0.105766  0  1.05926  0  0.123338  0  0.097559  0.100016  0  1.062707  0
H  H20  1  0.20474279  0.41578557  0.70413199  1  0  0.097042  0  0.991243  0  0  0.102445  0  1.06126  0  0  0.105783  0  1.059278  0  0.123305  0  0.097573  0.100034  0  1.062723  0
H  H21  1  0.20473637  0.91578949  0.79586846  1  0  0.097077  0  0.991208  0  0  0.102471  0  1.061246  0  0  0.105812  0  1.059259  0  0.123302  0  0.097558  0.100058  0  1.062712  0
H  H22  1  0.65242994  0.47619024  0.19668006  1  0  0.09027  0  0.944512  0  0  0.104628  0  0.99939  0  0  0.107154  0  0.998535  0  0.051981  0  0.100992  0.102781  0  1.000103  0
H  H23  1  0.65242827  0.97618941  0.30332039  1  0  0.090255  0  0.944514  0  0  0.104614  0  0.999397  0  0  0.107141  0  0.998542  0  0.051971  0  0.100984  0.102768  0  1.00011  0
H  H24  1  0.34757029  0.52381046  0.80331902  1  0  0.090253  0  0.944538  0  0  0.10464  0  0.999386  0  0  0.107166  0  0.998531  0  0.052028  0  0.101004  0.102794  0  1.000097  0
H  H25  1  0.34756230  0.02381011  0.69667915  1  0  0.090209  0  0.944527  0  0  0.10457  0  0.999414  0  0  0.107095  0  0.998561  0  0.051953  0  0.100978  0.102725  0  1.000124  0
H  H26  1  0.23673284  0.09716001  0.28979721  1  0  0.092459  0  0.967742  0  0  0.100939  0  1.032562  0  0  0.103453  0  1.031945  0  0.0773  0  0.098228  0.099137  0  1.033053  0
H  H27  1  0.23673248  0.59715917  0.21020324  1  0  0.092477  0  0.967709  0  0  0.100955  0  1.032532  0  0  0.103467  0  1.031919  0  0.077303  0  0.098238  0.099153  0  1.033022  0
H  H28  1  0.76327048  0.90284189  0.71020507  1  0  0.092466  0  0.967693  0  0  0.100925  0  1.032537  0  0  0.103435  0  1.031924  0  0.077399  0  0.098224  0.099124  0  1.033027  0
H  H29  1  0.76326855  0.40283677  0.78979721  1  0  0.092475  0  0.967689  0  0  0.100948  0  1.032513  0  0  0.103462  0  1.0319  0  0.077378  0  0.09824  0.099146  0  1.033002  0
H  H30  1  0.37187822  0.21126157  0.38996118  1  0  0.090907  0  0.982613  0  0  0.096932  0  1.055022  0  0  0.09914  0  1.054926  0  0.08565  0  0.091635  0.095263  0  1.055255  0
H  H31  1  0.37187878  0.71126311  0.11003928  1  0  0.090899  0  0.98263  0  0  0.09692  0  1.055044  0  0  0.099129  0  1.054949  0  0.085584  0  0.091639  0.095252  0  1.055276  0
H  H32  1  0.62812328  0.78873557  0.61004111  1  0  0.090889  0  0.982639  0  0  0.096919  0  1.055047  0  0  0.099116  0  1.054963  0  0.08562  0  0.091651  0.095248  0  1.05528  0
H  H33  1  0.62811825  0.28872926  0.88996026  1  0  0.090914  0  0.982656  0  0  0.096952  0  1.055058  0  0  0.09913  0  1.054992  0  0.085148  0  0.091669  0.095283  0  1.055291  0
H  H34  1  0.46066651  0.22098328  0.14133501  1  0  0.092996  0  0.930025  0  0  0.10657  0  0.996495  0  0  0.107385  0  0.996088  0  0.10542  0  0.112149  0.105896  0  0.996859  0
H  H35  1  0.46066878  0.72098244  0.35866636  1  0  0.092994  0  0.929979  0  0  0.106542  0  0.996479  0  0  0.107362  0  0.996068  0  0.10538  0  0.112132  0.105869  0  0.996844  0
H  H36  1  0.53933195  0.77901623  0.85866728  1  0  0.092957  0  0.930026  0  0  0.106519  0  0.996514  0  0  0.107338  0  0.996103  0  0.105352  0  0.112147  0.105847  0  0.996877  0
H  H37  1  0.53933276  0.27901826  0.64133272  1  0  0.092966  0  0.930023  0  0  0.106533  0  0.99651  0  0  0.10735  0  0.996101  0  0.105361  0  0.112145  0.10586  0  0.996873  0
H  H38  1  0.27166118  0.08150333  0.18106097  1  0  0.099338  0  0.905028  0  0  0.112485  0  0.967259  0  0  0.113748  0  0.966709  0  0.137547  0  0.118778  0.111548  0  0.967704  0
H  H39  1  0.27166082  0.58150249  0.31893948  1  0  0.099339  0  0.90503  0  0  0.112474  0  0.967266  0  0  0.113742  0  0.966712  0  0.137545  0  0.118774  0.111537  0  0.967713  0
H  H40  1  0.72833511  0.91849738  0.81893994  1  0  0.099334  0  0.905048  0  0  0.112467  0  0.967289  0  0  0.113732  0  0.966736  0  0.137561  0  0.118777  0.11153  0  0.967735  0
H  H41  1  0.72833763  0.41849703  0.68106143  1  0  0.09934  0  0.905028  0  0  0.112486  0  0.96726  0  0  0.113751  0  0.966708  0  0.137547  0  0.118787  0.11155  0  0.967705  0
H  H42  1  0.13514038  0.11645697  0.65324503  1  0  0.08466  0  0.946831  0  0  0.093137  0  1.011731  0  0  0.095074  0  1.009458  0  0.117527  0  0.128201  0.091631  0  1.013478  0
H  H43  1  0.13514003  0.61645613  0.84675360  1  0  0.084684  0  0.946824  0  0  0.093159  0  1.011728  0  0  0.095096  0  1.009454  0  0.117515  0  0.128218  0.091653  0  1.013475  0
H  H44  1  0.86486208  0.88354612  0.34675405  1  0  0.084678  0  0.946768  0  0  0.093158  0  1.011667  0  0  0.095094  0  1.009394  0  0.117519  0  0.128218  0.091652  0  1.013414  0
H  H45  1  0.86485974  0.38354338  0.15324503  1  0  0.084679  0  0.946837  0  0  0.093155  0  1.011741  0  0  0.095092  0  1.009468  0  0.11751  0  0.128213  0.091648  0  1.013488  0
H  H46  1  0.63975273  0.11695115  0.56714547  1  0  0.102733  0  0.980754  0  0  0.106729  0  1.057255  0  0  0.109644  0  1.053216  0  0.179921  0  0.120245  0.104538  0  1.06007  0
H  H47  1  0.63974929  0.61694912  0.93285362  1  0  0.102728  0  0.980724  0  0  0.106711  0  1.057253  0  0  0.109627  0  1.053214  0  0.17992  0  0.120215  0.104505  0  1.060085  0
H  H48  1  0.36025105  0.88305193  0.43285408  1  0  0.102738  0  0.980749  0  0  0.106729  0  1.057263  0  0  0.109645  0  1.053223  0  0.179899  0  0.120237  0.104524  0  1.060095  0
H  H49  1  0.36025094  0.38305158  0.06714592  1  0  0.102757  0  0.980731  0  0  0.106753  0  1.057236  0  0  0.109668  0  1.053201  0  0.179917  0  0.120234  0.104548  0  1.060068  0
C  C50  1  0.08669555  0.37260586  0.43883855  1  0  0.197988  0  3.720253  0  0  0.145831  0  4.012033  0  0  0.15733  0  4.024668  0  0.947179  0  0.1383  0.138447  0  4.003036  0
C  C51  1  0.08669297  0.87260264  0.06116100  1  0  0.198096  0  3.72015  0  0  0.145923  0  4.011941  0  0  0.157426  0  4.024567  0  0.947025  0  0.138303  0.138539  0  4.002944  0
C  C52  1  0.91330914  0.62739961  0.56116191  1  0  0.198071  0  3.72012  0  0  0.145932  0  4.011907  0  0  0.157431  0  4.024541  0  0.946973  0  0.138332  0.13855  0  4.002909  0
C  C53  1  0.91330412  0.12739330  0.93883900  1  0  0.198018  0  3.72025  0  0  0.145855  0  4.012027  0  0  0.157358  0  4.024654  0  0.947018  0  0.138324  0.138472  0  4.003029  0
C  C54  1  0.79606806  0.24775254  0.44636036  1  0  0.1601  0  3.654777  0  0  0.086852  0  3.914167  0  0  0.100494  0  3.926722  0  0.978106  0  0.153772  0.07836  0  3.905267  0
C  C55  1  0.79606679  0.74774931  0.05363919  1  0  0.160202  0  3.65479  0  0  0.086926  0  3.914193  0  0  0.100575  0  3.92674  0  0.978083  0  0.153764  0.078431  0  3.905294  0
C  C56  1  0.20393703  0.75225055  0.55363827  1  0  0.160163  0  3.654713  0  0  0.086884  0  3.914106  0  0  0.100523  0  3.926661  0  0.978171  0  0.15376  0.078391  0  3.905205  0
C  C57  1  0.20393075  0.25224782  0.94636081  1  0  0.160146  0  3.654722  0  0  0.086893  0  3.914119  0  0  0.10054  0  3.926667  0  0.978116  0  0.153808  0.0784  0  3.905219  0
C  C58  1  0.67894491  0.46652211  0.41068920  1  0  -0.064992  0  3.647737  0  0  -0.142028  0  3.893812  0  0  -0.137779  0  3.903551  0  0.332507  0  -0.047689  -0.144558  0  3.887157  0
C  C59  1  0.67893929  0.96652128  0.08931080  1  0  -0.064867  0  3.647591  0  0  -0.141886  0  3.893657  0  0  -0.137616  0  3.903363  0  0.332646  0  -0.047593  -0.144419  0  3.887006  0
C  C60  1  0.32106150  0.53348097  0.58931034  1  0  -0.064994  0  3.647702  0  0  -0.141972  0  3.893693  0  0  -0.137719  0  3.90339  0  0.332675  0  -0.047664  -0.144505  0  3.887043  0
C  C61  1  0.32105562  0.03347586  0.91068828  1  0  -0.064865  0  3.647621  0  0  -0.14185  0  3.89364  0  0  -0.137586  0  3.903363  0  0.332053  0  -0.047638  -0.144383  0  3.886989  0
C  C62  1  0.59203889  0.40539938  0.34958803  1  0  0.062917  0  3.755532  0  0  0.084032  0  3.9912  0  0  0.082176  0  4.017492  0  0.025842  0  -0.016642  0.085379  0  3.973213  0
C  C63  1  0.59203768  0.90539973  0.15041151  1  0  0.062819  0  3.755572  0  0  0.083914  0  3.991251  0  0  0.082061  0  4.017536  0  0.025818  0  -0.016685  0.085262  0  3.973263  0
C  C64  1  0.40796351  0.59460013  0.65041242  1  0  0.062773  0  3.755607  0  0  0.083832  0  3.991305  0  0  0.081973  0  4.017602  0  0.025843  0  -0.01669  0.085178  0  3.973317  0
C  C65  1  0.40795769  0.09459859  0.84958803  1  0  0.062882  0  3.755352  0  0  0.083959  0  3.991045  0  0  0.082106  0  4.017323  0  0.026255  0  -0.016657  0.085307  0  3.973057  0
C  C66  1  0.67078780  0.47905293  0.29490158  1  0  -0.106008  0  3.734381  0  0  -0.122291  0  3.973349  0  0  -0.1248  0  3.995162  0  -0.147138  0  -0.09259  -0.120484  0  3.958452  0
C  C67  1  0.67078613  0.97905210  0.20509888  1  0  -0.105908  0  3.734307  0  0  -0.122187  0  3.973286  0  0  -0.124697  0  3.9951  0  -0.147118  0  -0.092555  -0.12038  0  3.958388  0
C  C68  1  0.32921020  0.52094539  0.70509888  1  0  -0.105902  0  3.734321  0  0  -0.122161  0  3.973304  0  0  -0.124672  0  3.99512  0  -0.146542  0  -0.092559  -0.120353  0  3.958406  0
C  C69  1  0.32920924  0.02094623  0.79490066  1  0  -0.106041  0  3.734253  0  0  -0.122302  0  3.973243  0  0  -0.124813  0  3.995057  0  -0.146621  0  -0.092571  -0.120493  0  3.958345  0
C  C70  1  0.59258656  0.41600825  0.23904316  1  0  -0.109569  0  3.751394  0  0  -0.127009  0  3.994952  0  0  -0.129943  0  4.017575  0  -0.035642  0  -0.090158  -0.124908  0  3.97945  0
C  C71  1  0.59258712  0.91600979  0.26095684  1  0  -0.109492  0  3.751373  0  0  -0.126991  0  3.9949  0  0  -0.129924  0  4.017519  0  -0.035513  0  -0.090153  -0.124891  0  3.979403  0
C  C72  1  0.40741459  0.58399484  0.76095501  1  0  -0.109594  0  3.751561  0  0  -0.12708  0  3.995115  0  0  -0.130015  0  4.017738  0  -0.036257  0  -0.090207  -0.12498  0  3.979615  0
C  C73  1  0.40741094  0.08399210  0.73904270  1  0  -0.109431  0  3.751423  0  0  -0.12689  0  3.994969  0  0  -0.129824  0  4.017593  0  -0.036163  0  -0.09013  -0.124791  0  3.979469  0
C  C74  1  0.43763205  0.27724873  0.23682028  1  0  0.069689  0  3.764947  0  0  0.08577  0  4.011972  0  0  0.084825  0  4.036671  0  -0.022758  0  -0.013463  0.086516  0  3.995017  0
C  C75  1  0.43763124  0.77724670  0.26318109  1  0  0.069512  0  3.765198  0  0  0.085755  0  4.011986  0  0  0.084819  0  4.036675  0  -0.022887  0  -0.013438  0.086501  0  3.995032  0
C  C76  1  0.56236687  0.72275198  0.76317972  1  0  0.069631  0  3.764988  0  0  0.085774  0  4.011925  0  0  0.084834  0  4.036616  0  -0.022793  0  -0.013452  0.086522  0  3.99497  0
C  C77  1  0.56236545  0.22275162  0.73681937  1  0  0.069637  0  3.765038  0  0  0.085764  0  4.011995  0  0  0.084823  0  4.036689  0  -0.022752  0  -0.01342  0.08651  0  3.995039  0
C  C78  1  0.35855486  0.20448471  0.29144325  1  0  -0.100525  0  3.744926  0  0  -0.121596  0  3.994276  0  0  -0.123486  0  4.015496  0  -0.043099  0  -0.091799  -0.12017  0  3.979665  0
C  C79  1  0.35855628  0.70448506  0.20855675  1  0  -0.100508  0  3.745048  0  0  -0.121627  0  3.994357  0  0  -0.123519  0  4.015579  0  -0.043082  0  -0.091813  -0.120203  0  3.97975  0
C  C80  1  0.64144537  0.79551600  0.70855812  1  0  -0.100509  0  3.744925  0  0  -0.121583  0  3.994276  0  0  -0.123467  0  4.015484  0  -0.043223  0  -0.091806  -0.120156  0  3.979657  0
C  C81  1  0.64144040  0.29551327  0.79144325  1  0  -0.100594  0  3.744995  0  0  -0.121658  0  3.994336  0  0  -0.123549  0  4.015547  0  -0.043117  0  -0.091847  -0.120236  0  3.979732  0
C  C82  1  0.43438273  0.26848680  0.34742727  1  0  -0.128485  0  3.762927  0  0  -0.146998  0  4.009361  0  0  -0.150615  0  4.033034  0  -0.057649  0  -0.098592  -0.144449  0  3.993268  0
C  C83  1  0.43438461  0.76848834  0.15257365  1  0  -0.128447  0  3.762995  0  0  -0.146962  0  4.009441  0  0  -0.15058  0  4.033114  0  -0.057561  0  -0.098603  -0.144416  0  3.99335  0
C  C84  1  0.56561790  0.73151152  0.65257456  1  0  -0.128405  0  3.762959  0  0  -0.146914  0  4.009407  0  0  -0.150523  0  4.033087  0  -0.057565  0  -0.098578  -0.144372  0  3.993337  0
C  C85  1  0.56561471  0.23150998  0.84742635  1  0  -0.128451  0  3.762924  0  0  -0.146983  0  4.009395  0  0  -0.150573  0  4.033084  0  -0.057099  0  -0.098633  -0.144439  0  3.993314  0
C  C86  1  0.35366526  0.20829647  0.17653985  1  0  -0.055057  0  3.648651  0  0  -0.134953  0  3.899971  0  0  -0.131009  0  3.909949  0  0.236152  0  -0.040575  -0.137314  0  3.893069  0
C  C87  1  0.35366404  0.70829682  0.32346106  1  0  -0.055053  0  3.648702  0  0  -0.134932  0  3.899971  0  0  -0.130986  0  3.909942  0  0.236166  0  -0.040589  -0.137293  0  3.893069  0
C  C88  1  0.64633320  0.79170305  0.82346198  1  0  -0.055  0  3.648673  0  0  -0.134897  0  3.899971  0  0  -0.130946  0  3.909938  0  0.236185  0  -0.040599  -0.137259  0  3.893068  0
C  C89  1  0.64633356  0.29170389  0.67653848  1  0  -0.055029  0  3.64866  0  0  -0.134945  0  3.899993  0  0  -0.130994  0  3.909962  0  0.236176  0  -0.04062  -0.137306  0  3.893089  0
C  C90  1  0.99620665  0.36462390  0.14404750  1  0  0.190887  0  3.73942  0  0  0.13988  0  4.030898  0  0  0.151465  0  4.042417  0  0.985009  0  0.141956  0.132426  0  4.022762  0
C  C91  1  0.99620984  0.86462545  0.35595250  1  0  0.190888  0  3.739359  0  0  0.139875  0  4.030842  0  0  0.151464  0  4.042351  0  0.984985  0  0.141977  0.132422  0  4.022706  0
C  C92  1  0.00379135  0.63537442  0.85595204  1  0  0.190917  0  3.739431  0  0  0.139906  0  4.030914  0  0  0.151494  0  4.042427  0  0.984963  0  0.14197  0.132453  0  4.022778  0
C  C93  1  0.00379394  0.13537764  0.64404750  1  0  0.190917  0  3.739371  0  0  0.139904  0  4.030847  0  0  0.151491  0  4.04236  0  0.98525  0  0.141952  0.13245  0  4.022711  0
C  C94  1  0.75532665  0.13337352  0.59873122  1  0  0.170544  0  3.643317  0  0  0.091202  0  3.913847  0  0  0.105205  0  3.925653  0  0.998808  0  0.158033  0.082495  0  3.905458  0
C  C95  1  0.75532584  0.63337149  0.90126833  1  0  0.170526  0  3.643295  0  0  0.091185  0  3.913839  0  0  0.105188  0  3.925645  0  0.998929  0  0.158044  0.082492  0  3.905457  0
C  C96  1  0.24467713  0.86662957  0.40126878  1  0  0.170487  0  3.64327  0  0  0.091165  0  3.913831  0  0  0.105169  0  3.925634  0  0.998893  0  0.158025  0.082469  0  3.905451  0
C  C97  1  0.24467616  0.36663041  0.09873213  1  0  0.170422  0  3.643299  0  0  0.091064  0  3.913845  0  0  0.105056  0  3.925662  0  0.998816  0  0.157992  0.082371  0  3.905463  0
N  N98  1  0.96157239  0.22834364  0.45425074  1  0  -0.40446  0  3.209413  0  0  -0.33216  0  3.494445  0  0  -0.353942  0  3.51008  0  -1.205152  0  -0.350059  -0.31733  0  3.483169  0
N  N99  1  0.96156941  0.72834280  0.04574789  1  0  -0.404577  0  3.209462  0  0  -0.332281  0  3.494515  0  0  -0.354059  0  3.51014  0  -1.205111  0  -0.350076  -0.317451  0  3.483243  0
N  N100  1  0.03843356  0.77165826  0.54574880  1  0  -0.404561  0  3.20944  0  0  -0.332252  0  3.494467  0  0  -0.354032  0  3.510099  0  -1.205153  0  -0.350094  -0.317422  0  3.483192  0
N  N101  1  0.03842596  0.27165553  0.95425166  1  0  -0.404527  0  3.209391  0  0  -0.332232  0  3.494438  0  0  -0.354013  0  3.510068  0  -1.205011  0  -0.350097  -0.317402  0  3.483162  0
N  N102  1  0.00782511  0.47895767  0.42154373  1  0  -0.267051  0  2.839715  0  0  -0.270508  0  3.112222  0  0  -0.277894  0  3.126749  0  -0.666695  0  -0.223205  -0.265142  0  3.102257  0
N  N103  1  0.00781857  0.97895445  0.07845536  1  0  -0.26702  0  2.839674  0  0  -0.2705  0  3.112179  0  0  -0.27788  0  3.126707  0  -0.666512  0  -0.22319  -0.265133  0  3.102212  0
N  N104  1  0.99218308  0.52104661  0.57845627  1  0  -0.267142  0  2.839684  0  0  -0.27062  0  3.112177  0  0  -0.278008  0  3.126707  0  -0.666406  0  -0.223221  -0.265253  0  3.10221  0
N  N105  1  0.99217720  0.02104149  0.92154510  1  0  -0.26704  0  2.839723  0  0  -0.270502  0  3.112231  0  0  -0.277881  0  3.126755  0  -0.666653  0  -0.223192  -0.265136  0  3.102264  0
N  N106  1  0.82260050  0.39701613  0.42709888  1  0  0.056492  0  3.550909  0  0  0.175567  0  3.738673  0  0  0.164699  0  3.762713  0  -0.807858  0  -0.130107  0.181487  0  3.724494  0
N  N107  1  0.82259443  0.89701410  0.07290066  1  0  0.056248  0  3.551001  0  0  0.175396  0  3.738676  0  0  0.164482  0  3.762799  0  -0.807862  0  -0.130201  0.181318  0  3.724499  0
N  N108  1  0.17740591  0.60298696  0.57290112  1  0  0.056422  0  3.550863  0  0  0.175544  0  3.738551  0  0  0.164667  0  3.762612  0  -0.807935  0  -0.130151  0.181465  0  3.724372  0
N  N109  1  0.17740226  0.10298422  0.92709979  1  0  0.05637  0  3.550901  0  0  0.175452  0  3.738633  0  0  0.164553  0  3.762724  0  -0.80785  0  -0.130175  0.181374  0  3.724456  0
N  N110  1  0.23028153  0.28995221  0.15225668  1  0  0.046884  0  3.579932  0  0  0.165728  0  3.771209  0  0  0.155279  0  3.79468  0  -0.801188  0  -0.131704  0.171296  0  3.757624  0
N  N111  1  0.23028295  0.78995257  0.34774469  1  0  0.046867  0  3.579892  0  0  0.165621  0  3.771235  0  0  0.155121  0  3.794803  0  -0.801343  0  -0.131781  0.171189  0  3.757652  0
N  N112  1  0.76971739  0.71004849  0.84774423  1  0  0.046785  0  3.58003  0  0  0.165632  0  3.77128  0  0  0.15514  0  3.794832  0  -0.801337  0  -0.13177  0.171201  0  3.757697  0
N  N113  1  0.76971906  0.21004933  0.65225622  1  0  0.046804  0  3.57991  0  0  0.165646  0  3.771168  0  0  0.155158  0  3.794707  0  -0.801191  0  -0.131749  0.171214  0  3.757587  0
N  N114  1  0.07256866  0.28731935  0.18216077  1  0  -0.275044  0  2.864766  0  0  -0.276251  0  3.133297  0  0  -0.282542  0  3.143669  0  -0.684186  0  -0.224658  -0.27173  0  3.126297  0
N  N115  1  0.07257139  0.78731970  0.31783969  1  0  -0.274994  0  2.864717  0  0  -0.276174  0  3.133279  0  0  -0.282453  0  3.14365  0  -0.684142  0  -0.224623  -0.271652  0  3.126279  0
N  N116  1  0.92742980  0.71268016  0.81783878  1  0  -0.275035  0  2.864753  0  0  -0.276235  0  3.133287  0  0  -0.282518  0  3.143661  0  -0.684185  0  -0.224648  -0.271713  0  3.126286  0
N  N117  1  0.92743147  0.21268100  0.68216077  1  0  -0.274998  0  2.864733  0  0  -0.276195  0  3.133261  0  0  -0.282478  0  3.143634  0  -0.684192  0  -0.224627  -0.271673  0  3.12626  0
N  N118  1  0.09741738  0.41597133  0.09219731  1  0  -0.406042  0  3.216014  0  0  -0.335914  0  3.507316  0  0  -0.357953  0  3.522761  0  -1.233726  0  -0.352026  -0.320919  0  3.496194  0
N  N119  1  0.09741879  0.91597168  0.40780315  1  0  -0.406086  0  3.216072  0  0  -0.335962  0  3.507379  0  0  -0.357997  0  3.522814  0  -1.233682  0  -0.352037  -0.320967  0  3.49626  0
N  N120  1  0.90258286  0.58402937  0.90780269  1  0  -0.406102  0  3.216127  0  0  -0.335993  0  3.507451  0  0  -0.358028  0  3.522885  0  -1.233656  0  -0.35203  -0.320997  0  3.496328  0
N  N121  1  0.90258544  0.08403259  0.59219639  1  0  -0.406106  0  3.21605  0  0  -0.335985  0  3.507363  0  0  -0.358019  0  3.522795  0  -1.233978  0  -0.352021  -0.320989  0  3.496245  0
Cl  Cl122  1  0.64308313  0.83458506  0.47464855  1  0  -0.65829  0  0.720621  0  0  -0.601975  0  0.958465  0  0  -0.616188  0  0.938866  0  -0.741394  0  -0.372457  -0.591405  0  0.971861  0
Cl  Cl123  1  0.64308303  0.33458471  0.02535099  1  0  -0.658295  0  0.720604  0  0  -0.601987  0  0.958459  0  0  -0.6162  0  0.938852  0  -0.741394  0  -0.372463  -0.591417  0  0.971854  0
Cl  Cl124  1  0.35691887  0.16541684  0.52535099  1  0  -0.658279  0  0.720608  0  0  -0.60198  0  0.958472  0  0  -0.616191  0  0.938871  0  -0.741389  0  -0.372458  -0.591412  0  0.971869  0
Cl  Cl125  1  0.35691675  0.66541481  0.97464855  1  0  -0.658285  0  0.720611  0  0  -0.601972  0  0.958458  0  0  -0.616184  0  0.938855  0  -0.741381  0  -0.372456  -0.591402  0  0.971853  0
