# generated using pymatgen
data_Sn2H22(C5O2)3
_symmetry_space_group_name_H-M   'P 1'
_cell_length_a   9.27050756
_cell_length_b   12.89870853
_cell_length_c   18.09324616
_cell_angle_alpha   89.99850246
_cell_angle_beta   88.50303283
_cell_angle_gamma   89.99930726
_symmetry_Int_Tables_number   1
_chemical_formula_structural   Sn2H22(C5O2)3
_chemical_formula_sum   'Sn8 H88 C60 O24'
_cell_volume   2162.80809906
_cell_formula_units_Z   4
loop_
 _symmetry_equiv_pos_site_id
 _symmetry_equiv_pos_as_xyz
  1  'x, y, z'
loop_
 _atom_site_type_symbol
 _atom_site_label
 _atom_site_symmetry_multiplicity
 _atom_site_fract_x
 _atom_site_fract_y
 _atom_site_fract_z
 _atom_site_occupancy
 _atom_site_pbe_bader_charge
 _atom_site_pbe_bader_spin_density
 _atom_site_pbe_cm5_charge
 _atom_site_pbe_ddec_charge
 _atom_site_pbe_ddec_spin_density
 _atom_site_pbe_ddec_sum_bond_order
 _atom_site_pbe_magmom
Sn  Sn0  1  0.08223979  0.72269947  0.23026415  1  1.696395  0  0.529741  1.225084  0  3.402324  0
Sn  Sn1  1  0.41768886  0.22264347  0.26972800  1  1.696872  0  0.52981  1.225277  0  3.402564  0
Sn  Sn2  1  0.91768224  0.27735074  0.76974014  1  1.696515  0  0.52985  1.225434  0  3.402513  0
Sn  Sn3  1  0.58229097  0.77731215  0.73025327  1  1.696739  0  0.529694  1.224861  0  3.402152  0
Sn  Sn4  1  0.58127416  0.77128292  0.30814340  1  1.692505  0  0.53115  1.229342  0  3.396141  0
Sn  Sn5  1  0.91870736  0.27128622  0.19184018  1  1.691944  0  0.53127  1.229376  0  3.395755  0
Sn  Sn6  1  0.41871085  0.22871146  0.69184557  1  1.691947  0  0.531175  1.229248  0  3.395984  0
Sn  Sn7  1  0.08132691  0.72870894  0.80816231  1  1.692582  0  0.531284  1.229347  0  3.395835  0
H  H8  1  0.46984170  0.50928354  0.56257108  1  0.673769  0  0.309039  0.363457  0  0.96452  0
H  H9  1  0.03017969  0.00929215  0.93747271  1  0.673967  0  0.308903  0.363442  0  0.964515  0
H  H10  1  0.53016622  0.49071472  0.43744760  1  0.673884  0  0.308946  0.36354  0  0.964401  0
H  H11  1  0.96988934  0.99071851  0.06255997  1  0.673312  0  0.308876  0.363245  0  0.964582  0
H  H12  1  0.77127749  0.71320820  0.51952430  1  0.124433  0  0.113532  0.121644  0  1.013074  0
H  H13  1  0.72875334  0.21321936  0.98046126  1  0.124071  0  0.11355  0.121761  0  1.013172  0
H  H14  1  0.22875714  0.28679394  0.48046492  1  0.124183  0  0.113534  0.121724  0  1.013133  0
H  H15  1  0.27129001  0.78679440  0.01952459  1  0.124586  0  0.113543  0.121613  0  1.013124  0
H  H16  1  0.14317760  0.60102336  0.63138510  1  0.116836  0  0.113307  0.115805  0  1.023434  0
H  H17  1  0.35683564  0.10101488  0.86862949  1  0.117212  0  0.113297  0.115937  0  1.023266  0
H  H18  1  0.85682875  0.39896482  0.36861259  1  0.116739  0  0.11329  0.115888  0  1.023404  0
H  H19  1  0.64320332  0.89897097  0.13139840  1  0.116665  0  0.113288  0.115751  0  1.023107  0
H  H20  1  0.13437099  0.59507810  0.39311777  1  0.122213  0  0.112252  0.110469  0  1.038169  0
H  H21  1  0.36572580  0.09508890  0.10689647  1  0.122496  0  0.112264  0.110514  0  1.038414  0
H  H22  1  0.86568177  0.40491318  0.60687908  1  0.12234  0  0.112185  0.110483  0  1.03831  0
H  H23  1  0.63436601  0.90492796  0.89313165  1  0.122244  0  0.112213  0.110368  0  1.038504  0
H  H24  1  0.27409129  0.58808562  0.29265110  1  0.034247  0  0.086909  0.168979  0  1.061932  0
H  H25  1  0.22586867  0.08803656  0.20731887  1  0.033788  0  0.086857  0.168879  0  1.061783  0
H  H26  1  0.72587016  0.41197931  0.70733194  1  0.033803  0  0.086847  0.168949  0  1.061903  0
H  H27  1  0.77409595  0.91195859  0.79262712  1  0.03394  0  0.086914  0.169087  0  1.06168  0
H  H28  1  0.26260847  0.56627728  0.19546607  1  0.044007  0  0.089304  0.174728  0  1.035206  0
H  H29  1  0.23735033  0.06621264  0.30450953  1  0.03504  0  0.089177  0.174487  0  1.03523  0
H  H30  1  0.73735072  0.43379308  0.80452030  1  0.044065  0  0.089237  0.1747  0  1.035333  0
H  H31  1  0.76261519  0.93377089  0.69544309  1  0.043599  0  0.089292  0.174664  0  1.035231  0
H  H32  1  0.12375604  0.51929719  0.25750562  1  0.05627  0  0.088209  0.180345  0  1.058752  0
H  H33  1  0.37623207  0.01925386  0.24246953  1  0.058579  0  0.088176  0.180375  0  1.058581  0
H  H34  1  0.87623225  0.48074448  0.74248168  1  0.058622  0  0.088198  0.180403  0  1.058672  0
H  H35  1  0.62372074  0.98069091  0.75747432  1  0.056037  0  0.088249  0.180346  0  1.058731  0
H  H36  1  0.88443408  0.63171052  0.14365689  1  0.059646  0  0.086322  0.173041  0  1.04177  0
H  H37  1  0.61549120  0.13168959  0.35635052  1  0.05977  0  0.086303  0.17303  0  1.041787  0
H  H38  1  0.11549541  0.36831333  0.85635067  1  0.0597  0  0.086294  0.173027  0  1.041732  0
H  H39  1  0.38449249  0.86827766  0.64364731  1  0.059983  0  0.08629  0.173037  0  1.04197  0
H  H40  1  0.98256929  0.72844233  0.09171410  1  0.039246  0  0.086203  0.175435  0  1.037818  0
H  H41  1  0.51737311  0.22842831  0.40828536  1  0.038981  0  0.086181  0.175436  0  1.037719  0
H  H42  1  0.01738080  0.27157299  0.90828946  1  0.038926  0  0.086204  0.175417  0  1.037823  0
H  H43  1  0.48257183  0.77154437  0.59170939  1  0.039249  0  0.086252  0.175541  0  1.037818  0
H  H44  1  0.83832279  0.76562110  0.15348266  1  0.051011  0  0.08063  0.156144  0  1.086774  0
H  H45  1  0.66158759  0.26559807  0.34649932  1  0.052097  0  0.080803  0.156305  0  1.086715  0
H  H46  1  0.16159650  0.23440817  0.84650341  1  0.052192  0  0.080792  0.156274  0  1.086691  0
H  H47  1  0.33838104  0.73438701  0.65349694  1  0.051676  0  0.080714  0.156288  0  1.086804  0
H  H48  1  0.10733549  0.82920666  0.35834740  1  0.045335  0  0.083315  0.166784  0  1.055665  0
H  H49  1  0.39267578  0.32915916  0.14164661  1  0.04488  0  0.083406  0.166954  0  1.05572  0
H  H50  1  0.89265027  0.17084122  0.64165373  1  0.045247  0  0.083355  0.166861  0  1.055673  0
H  H51  1  0.60735029  0.67082980  0.85833991  1  0.045012  0  0.083393  0.166953  0  1.056052  0
H  H52  1  0.98913946  0.89804221  0.29911406  1  0.060677  0  0.084954  0.173892  0  1.064559  0
H  H53  1  0.51078538  0.39800580  0.20091310  1  0.061963  0  0.084836  0.173779  0  1.064908  0
H  H54  1  0.01082843  0.10200955  0.70090929  1  0.063941  0  0.084891  0.173855  0  1.06464  0
H  H55  1  0.48916280  0.60201262  0.79912087  1  0.063101  0  0.084962  0.174063  0  1.064959  0
H  H56  1  0.18047976  0.90375754  0.28286670  1  0.104526  0  0.087435  0.180498  0  1.067911  0
H  H57  1  0.31943371  0.40369529  0.21710414  1  0.104332  0  0.087469  0.180553  0  1.06785  0
H  H58  1  0.81947161  0.09628568  0.71712967  1  0.104812  0  0.087472  0.180502  0  1.067819  0
H  H59  1  0.68047129  0.59625413  0.78289141  1  0.104634  0  0.087443  0.180597  0  1.068108  0
H  H60  1  0.64131753  0.64940061  0.18934883  1  0.051508  0  0.084892  0.169705  0  1.053819  0
H  H61  1  0.85864395  0.14941079  0.31063462  1  0.051044  0  0.084955  0.169883  0  1.05405  0
H  H62  1  0.35867288  0.35059532  0.81064011  1  0.051273  0  0.084912  0.169823  0  1.053982  0
H  H63  1  0.14135781  0.85061072  0.68937305  1  0.051402  0  0.084956  0.169971  0  1.053952  0
H  H64  1  0.48201621  0.60295650  0.23628146  1  0.075685  0  0.084172  0.171391  0  1.072044  0
H  H65  1  0.01796952  0.10300588  0.26372992  1  0.075813  0  0.084217  0.171503  0  1.072466  0
H  H66  1  0.51798138  0.39700842  0.76372071  1  0.075624  0  0.084248  0.171502  0  1.07232  0
H  H67  1  0.98201262  0.89699005  0.73628506  1  0.075644  0  0.084211  0.171565  0  1.072306  0
H  H68  1  0.65636353  0.57584135  0.27237961  1  0.080474  0  0.087644  0.181903  0  1.05268  0
H  H69  1  0.84367621  0.07583052  0.22763096  1  0.080932  0  0.087615  0.181979  0  1.053139  0
H  H70  1  0.34366958  0.42416544  0.72762565  1  0.080467  0  0.087586  0.181934  0  1.052961  0
H  H71  1  0.15631333  0.92418015  0.77238949  1  0.080163  0  0.087651  0.18204  0  1.052892  0
H  H72  1  0.75478218  0.93553584  0.33472446  1  0.026326  0  0.088649  0.175276  0  1.029442  0
H  H73  1  0.74516243  0.43555379  0.16528488  1  0.026014  0  0.088782  0.175517  0  1.02948  0
H  H74  1  0.24517629  0.06445467  0.66528845  1  0.026335  0  0.088678  0.175313  0  1.029513  0
H  H75  1  0.25483631  0.56442897  0.83471507  1  0.026355  0  0.088793  0.175421  0  1.029474  0
H  H76  1  0.62406464  0.97058502  0.26775954  1  0.076845  0  0.090222  0.178965  0  1.049248  0
H  H77  1  0.87591172  0.47054417  0.23222812  1  0.077522  0  0.090281  0.179139  0  1.049221  0
H  H78  1  0.37591464  0.02943339  0.73224163  1  0.077167  0  0.090255  0.178966  0  1.049281  0
H  H79  1  0.12408515  0.52943548  0.76776134  1  0.077226  0  0.090273  0.179035  0  1.049199  0
H  H80  1  0.78013021  0.89850086  0.24021573  1  0.002533  0  0.085823  0.161417  0  1.071004  0
H  H81  1  0.71984946  0.39849297  0.25977902  1  -0.001124  0  0.085836  0.161546  0  1.070979  0
H  H82  1  0.21985977  0.10151368  0.75978870  1  0.002317  0  0.085817  0.161451  0  1.070926  0
H  H83  1  0.28016679  0.60148900  0.74021198  1  -0.001613  0  0.085853  0.161549  0  1.070774  0
H  H84  1  0.38039396  0.86897651  0.39566680  1  0.062039  0  0.087058  0.175066  0  1.027523  0
H  H85  1  0.11957267  0.36896006  0.10433680  1  0.062238  0  0.087017  0.174903  0  1.027335  0
H  H86  1  0.61958622  0.13103027  0.60434100  1  0.062031  0  0.087004  0.174855  0  1.02765  0
H  H87  1  0.88044994  0.63101727  0.89565802  1  0.062012  0  0.087023  0.175029  0  1.027511  0
H  H88  1  0.46361446  0.76604040  0.44581662  1  0.060932  0  0.084964  0.172947  0  1.042157  0
H  H89  1  0.03641473  0.26603293  0.05416202  1  0.060751  0  0.084959  0.172917  0  1.042173  0
H  H90  1  0.53640511  0.23395631  0.55417104  1  0.060563  0  0.08493  0.172886  0  1.042082  0
H  H91  1  0.96362732  0.73393354  0.94583214  1  0.060354  0  0.08503  0.173022  0  1.042079  0
H  H92  1  0.32509817  0.73780266  0.38211480  1  0.031122  0  0.080867  0.157594  0  1.087912  0
H  H93  1  0.17485453  0.23778207  0.11790273  1  0.031172  0  0.080711  0.157376  0  1.08809  0
H  H94  1  0.67487231  0.26220258  0.61789250  1  0.031365  0  0.080781  0.157432  0  1.088135  0
H  H95  1  0.82517093  0.76219526  0.88210590  1  0.031502  0  0.080843  0.157573  0  1.087961  0
C  C96  1  0.94403639  0.65765070  0.44866105  1  -0.000812  0  -0.016855  -0.05412  0  3.987785  0
C  C97  1  0.55598499  0.15763367  0.05133947  1  -0.000411  0  -0.016817  -0.054379  0  3.987577  0
C  C98  1  0.05596689  0.34236152  0.55133057  1  -0.00078  0  -0.016961  -0.054659  0  3.987986  0
C  C99  1  0.44408807  0.84237311  0.94866444  1  0.000241  0  -0.016861  -0.054352  0  3.987421  0
C  C100  1  0.87929858  0.68048552  0.51718648  1  -0.040959  0  -0.064646  -0.077413  0  3.91469  0
C  C101  1  0.62074942  0.18048200  0.98280713  1  -0.040703  0  -0.064813  -0.077636  0  3.914322  0
C  C102  1  0.12073934  0.31951894  0.48280107  1  -0.040153  0  -0.064733  -0.077447  0  3.91451  0
C  C103  1  0.37930210  0.81951936  0.01719580  1  -0.041206  0  -0.064714  -0.077355  0  3.913762  0
C  C104  1  0.94918394  0.66023518  0.58303382  1  -0.022518  0  -0.014483  -0.045301  0  3.966428  0
C  C105  1  0.55082524  0.16024689  0.91696173  1  -0.023644  0  -0.014486  -0.045398  0  3.9669  0
C  C106  1  0.05083226  0.33974757  0.41695883  1  -0.024027  0  -0.014606  -0.045511  0  3.966662  0
C  C107  1  0.44918724  0.83975215  0.08304863  1  -0.022828  0  -0.014462  -0.045369  0  3.966809  0
C  C108  1  0.08852657  0.61829643  0.58032412  1  -0.007709  0  -0.059935  -0.0787  0  3.883874  0
C  C109  1  0.41150622  0.11830109  0.91968321  1  -0.007708  0  -0.059994  -0.078992  0  3.883997  0
C  C110  1  0.91150588  0.38169950  0.41966623  1  -0.006826  0  -0.059844  -0.078788  0  3.883566  0
C  C111  1  0.58851920  0.88169252  0.08032708  1  -0.007301  0  -0.059893  -0.078662  0  3.883041  0
C  C112  1  0.15639905  0.59660976  0.51161137  1  -0.002554  0  -0.015526  -0.058621  0  3.974642  0
C  C113  1  0.34364304  0.09661442  0.98841367  1  -0.001705  0  -0.015181  -0.057999  0  3.973674  0
C  C114  1  0.84363055  0.40339547  0.48840386  1  -0.002637  0  -0.015446  -0.058348  0  3.973993  0
C  C115  1  0.65641896  0.90338616  0.01160026  1  -0.003091  0  -0.015451  -0.058544  0  3.974177  0
C  C116  1  0.08297670  0.61514832  0.44598810  1  -0.035874  0  -0.060392  -0.085405  0  3.910769  0
C  C117  1  0.41707258  0.11515216  0.05402529  1  -0.036376  0  -0.060539  -0.085486  0  3.911674  0
C  C118  1  0.91705972  0.38484606  0.55401438  1  -0.035886  0  -0.060373  -0.085283  0  3.911888  0
C  C119  1  0.58299591  0.88485463  0.94598805  1  -0.035756  0  -0.060396  -0.085056  0  3.91192  0
C  C120  1  0.85933431  0.67866403  0.38050033  1  1.575857  0  0.234041  0.588018  0  4.172994  0
C  C121  1  0.64070850  0.17863695  0.11950276  1  1.575606  0  0.234177  0.588404  0  4.172557  0
C  C122  1  0.14067709  0.32135982  0.61951004  1  1.576891  0  0.234038  0.588278  0  4.173271  0
C  C123  1  0.35935298  0.82134658  0.88049072  1  1.576448  0  0.233978  0.587831  0  4.172755  0
C  C124  1  0.86828441  0.68355853  0.65432283  1  1.575883  0  0.237317  0.594061  0  4.170179  0
C  C125  1  0.63170086  0.18359333  0.84567605  1  1.575986  0  0.237696  0.594833  0  4.170313  0
C  C126  1  0.13170179  0.31639476  0.34566227  1  1.576178  0  0.237608  0.594898  0  4.170727  0
C  C127  1  0.36826998  0.81641501  0.15431854  1  1.575473  0  0.237356  0.594404  0  4.170749  0
C  C128  1  0.30556285  0.55311362  0.50631565  1  1.521803  0  0.243084  0.584678  0  4.095557  0
C  C129  1  0.19444745  0.05311813  0.99373354  1  1.521856  0  0.242406  0.583576  0  4.097303  0
C  C130  1  0.69446241  0.44688386  0.49370072  1  1.521814  0  0.242634  0.583795  0  4.096837  0
C  C131  1  0.80559703  0.94687470  0.00628989  1  1.52259  0  0.242657  0.583858  0  4.09704  0
C  C132  1  0.20036996  0.58240301  0.24647568  1  -0.44514  0  -0.337351  -0.761092  0  3.754906  0
C  C133  1  0.29960283  0.08236455  0.25349935  1  -0.438005  0  -0.337103  -0.760817  0  3.754867  0
C  C134  1  0.79959460  0.41764486  0.75351176  1  -0.447005  0  -0.337146  -0.761129  0  3.755176  0
C  C135  1  0.70038871  0.91762285  0.74644869  1  -0.444167  0  -0.337344  -0.761089  0  3.754732  0
C  C136  1  0.92731959  0.71089021  0.14454401  1  -0.469288  0  -0.335609  -0.742232  0  3.738934  0
C  C137  1  0.57260771  0.21086451  0.35545772  1  -0.470105  0  -0.335724  -0.742393  0  3.738854  0
C  C138  1  0.07261105  0.28913829  0.85546077  1  -0.470174  0  -0.33574  -0.7424  0  3.73891  0
C  C139  1  0.42734717  0.78910816  0.64452867  1  -0.470493  0  -0.33573  -0.742449  0  3.73906  0
C  C140  1  0.09046482  0.85492064  0.30154426  1  -0.506744  0  -0.336457  -0.748058  0  3.72955  0
C  C141  1  0.40947846  0.35488134  0.19844775  1  -0.507567  0  -0.336537  -0.748291  0  3.729883  0
C  C142  1  0.90949383  0.14512724  0.69846201  1  -0.510265  0  -0.336524  -0.748261  0  3.729611  0
C  C143  1  0.59048873  0.64508591  0.80156179  1  -0.509096  0  -0.336611  -0.748501  0  3.730425  0
C  C144  1  0.59110786  0.63269038  0.24346826  1  -0.497068  0  -0.335299  -0.746801  0  3.737982  0
C  C145  1  0.90887884  0.13267969  0.25654151  1  -0.497015  0  -0.335417  -0.747168  0  3.738946  0
C  C146  1  0.40888967  0.36731485  0.75653611  1  -0.496595  0  -0.335387  -0.747066  0  3.73861  0
C  C147  1  0.09111838  0.86731935  0.74347448  1  -0.496429  0  -0.335386  -0.747335  0  3.738676  0
C  C148  1  0.69981846  0.91056048  0.28487323  1  -0.420528  0  -0.334232  -0.758256  0  3.761737  0
C  C149  1  0.80012885  0.41055980  0.21511970  1  -0.416884  0  -0.334487  -0.758813  0  3.761856  0
C  C150  1  0.30015110  0.08944165  0.71512856  1  -0.420345  0  -0.334324  -0.758329  0  3.761718  0
C  C151  1  0.19987332  0.58942605  0.78487304  1  -0.41667  0  -0.334465  -0.758596  0  3.761513  0
C  C152  1  0.41692716  0.78824182  0.39310253  1  -0.468371  0  -0.336209  -0.741352  0  3.741915  0
C  C153  1  0.08304107  0.28822665  0.10689295  1  -0.468383  0  -0.336  -0.740907  0  3.742003  0
C  C154  1  0.58305439  0.21176187  0.60689476  1  -0.468197  0  -0.336038  -0.740859  0  3.74214  0
C  C155  1  0.91698029  0.71174757  0.89310796  1  -0.468314  0  -0.336202  -0.741302  0  3.742005  0
O  O156  1  0.91019572  0.65522844  0.31722454  1  -1.214696  0  -0.285416  -0.552535  0  2.289309  0
O  O157  1  0.58984639  0.15518955  0.18276819  1  -1.215098  0  -0.285536  -0.552733  0  2.289191  0
O  O158  1  0.08980548  0.34480161  0.68276434  1  -1.21528  0  -0.285403  -0.552576  0  2.289964  0
O  O159  1  0.41023886  0.84479475  0.81722404  1  -1.214982  0  -0.285392  -0.552419  0  2.289341  0
O  O160  1  0.73462542  0.71956587  0.39278560  1  -1.182206  0  -0.278617  -0.531489  0  2.296724  0
O  O161  1  0.76539777  0.21955803  0.10721916  1  -1.182023  0  -0.278717  -0.531638  0  2.297266  0
O  O162  1  0.26537865  0.28044557  0.60721652  1  -1.182815  0  -0.278636  -0.53155  0  2.296821  0
O  O163  1  0.23466023  0.78042395  0.89278319  1  -1.183079  0  -0.278572  -0.531376  0  2.297022  0
O  O164  1  0.74074429  0.71987715  0.64609266  1  -1.184708  0  -0.278695  -0.530969  0  2.307019  0
O  O165  1  0.75918507  0.21996882  0.85389443  1  -1.184788  0  -0.279027  -0.531527  0  2.307572  0
O  O166  1  0.25917175  0.27998699  0.35389398  1  -1.184714  0  -0.278986  -0.531609  0  2.307494  0
O  O167  1  0.24077315  0.78009069  0.14608808  1  -1.184772  0  -0.278803  -0.531158  0  2.307396  0
O  O168  1  0.92472293  0.66555429  0.71567218  1  -1.213751  0  -0.285399  -0.558987  0  2.315947  0
O  O169  1  0.57526348  0.16552962  0.78432667  1  -1.213835  0  -0.285416  -0.55917  0  2.315851  0
O  O170  1  0.07527581  0.33448041  0.28432776  1  -1.214184  0  -0.285265  -0.559016  0  2.316553  0
O  O171  1  0.42469304  0.83443686  0.21567851  1  -1.213532  0  -0.285322  -0.559127  0  2.31599  0
O  O172  1  0.36726090  0.53741265  0.57077445  1  -1.18087  0  -0.317057  -0.460485  0  2.298062  0
O  O173  1  0.13278110  0.03743224  0.92926174  1  -1.180727  0  -0.316728  -0.460383  0  2.298396  0
O  O174  1  0.63276761  0.46258638  0.42924134  1  -1.18073  0  -0.316921  -0.460436  0  2.298403  0
O  O175  1  0.86728037  0.96258695  0.07077153  1  -1.180783  0  -0.317074  -0.460456  0  2.297439  0
O  O176  1  0.36662285  0.53397992  0.44562365  1  -1.168265  0  -0.278799  -0.494774  0  2.167962  0
O  O177  1  0.13343565  0.03401362  0.05441806  1  -1.168461  0  -0.278377  -0.493905  0  2.16952  0
O  O178  1  0.63340568  0.46599586  0.55439103  1  -1.16851  0  -0.278594  -0.494269  0  2.168346  0
O  O179  1  0.86663972  0.96597456  0.94561955  1  -1.168911  0  -0.278299  -0.49394  0  2.169657  0
