# generated using pymatgen
data_CoH20C32Br4(NO)8
_symmetry_space_group_name_H-M   'P 1'
_cell_length_a   8.60871084
_cell_length_b   8.74964010
_cell_length_c   11.15746789
_cell_angle_alpha   88.87050529
_cell_angle_beta   86.97568679
_cell_angle_gamma   83.60796150
_symmetry_Int_Tables_number   1
_chemical_formula_structural   CoH20C32Br4(NO)8
_chemical_formula_sum   'Co1 H20 C32 Br4 N8 O8'
_cell_volume   833.94646974
_cell_formula_units_Z   1
loop_
 _symmetry_equiv_pos_site_id
 _symmetry_equiv_pos_as_xyz
  1  'x, y, z'
loop_
 _atom_site_type_symbol
 _atom_site_label
 _atom_site_symmetry_multiplicity
 _atom_site_fract_x
 _atom_site_fract_y
 _atom_site_fract_z
 _atom_site_occupancy
 _atom_site_hle17_ddec_charge
 _atom_site_hle17_ddec_spin_density
 _atom_site_hle17_ddec_sum_bond_order
 _atom_site_hle17_magmom
 _atom_site_hse06_10hf_ddec_charge
 _atom_site_hse06_10hf_ddec_spin_density
 _atom_site_hse06_10hf_ddec_sum_bond_order
 _atom_site_hse06_10hf_magmom
 _atom_site_hse06_ddec_charge
 _atom_site_hse06_ddec_spin_density
 _atom_site_hse06_ddec_sum_bond_order
 _atom_site_hse06_magmom
 _atom_site_pbe_cm5_charge
 _atom_site_pbe_ddec_charge
 _atom_site_pbe_ddec_spin_density
 _atom_site_pbe_ddec_sum_bond_order
 _atom_site_pbe_magmom
Co  Co0  1  0.00000128  0.99999831  0.00000073  1  0.738838  -1.151279  2.314686  -1.048  0.732988  -1.043653  2.731366  -0.98  0.805508  -1.036149  2.654279  -0.98  0.6163  0.691545  -1.044644  2.778834  -0.972
H  H1  1  0.25209436  0.85713670  0.07755662  1  0.406961  0.000728  0.90901  0.001  0.37497  0.000301  0.975336  0.0  0.387393  0.000355  0.957414  0.0  0.280462  0.366372  0.000246  0.987655  0.0
H  H2  1  0.74790809  0.14286250  0.92244513  1  0.406961  0.000728  0.90901  0.001  0.37497  0.000301  0.975335  0.0  0.387393  0.000355  0.957415  0.0  0.280479  0.366373  0.000246  0.987654  0.0
H  H3  1  0.32916675  0.88877555  0.94822583  1  0.396104  1.9e-05  0.844212  0.0  0.386478  -0.000582  0.893165  -0.001  0.39453  -0.000358  0.884429  -0.001  0.312202  0.381077  -0.000813  0.898847  -0.001
H  H4  1  0.67083438  0.11122481  0.05177508  1  0.396115  1.9e-05  0.844189  0.0  0.386491  -0.000581  0.89314  -0.001  0.394542  -0.000358  0.884404  -0.001  0.312208  0.381087  -0.000813  0.898823  -0.001
H  H5  1  0.64083964  0.02420235  0.35025159  1  0.098324  -9e-06  0.951298  0.0  0.109541  -1e-06  1.010155  0.0  0.112794  -3e-06  1.008723  0.0  0.101753  0.107167  0.0  1.011468  0.0
H  H6  1  0.35915857  0.97579339  0.64975044  1  0.098387  -9e-06  0.951269  0.0  0.109602  -1e-06  1.010119  0.0  0.112856  -3e-06  1.008683  0.0  0.101762  0.107229  0.0  1.011434  0.0
H  H7  1  0.24339790  0.12862046  0.84435292  1  0.090961  1.5e-05  0.952927  -0.001  0.094428  0.00023  1.026547  0.0  0.098215  0.000147  1.021296  0.0  0.116727  0.091398  0.00027  1.030808  0.0
H  H8  1  0.75660583  0.87137761  0.15564788  1  0.090935  1.6e-05  0.952984  -0.001  0.094423  0.00023  1.02659  0.0  0.098209  0.000147  1.021339  0.0  0.11672  0.091389  0.00027  1.03085  0.0
H  H9  1  0.97040262  0.26413860  0.14857507  1  0.089456  3.3e-05  0.969691  -0.001  0.095015  0.000203  1.037042  0.0  0.097584  0.000126  1.033515  0.0  0.118694  0.092803  0.000245  1.040118  0.0
H  H10  1  0.02959953  0.73586291  0.85142577  1  0.089438  3.3e-05  0.969677  -0.001  0.094999  0.000203  1.037033  0.0  0.097568  0.000126  1.033505  0.0  0.11868  0.092788  0.000245  1.040111  0.0
H  H11  1  0.09366764  0.50681174  0.16154651  1  0.109723  0.00045  0.948381  0.001  0.115942  5.4e-05  1.013824  0.0  0.11937  5.9e-05  1.012856  0.0  0.102337  0.113373  3e-05  1.014866  0.0
H  H12  1  0.90633343  0.49318864  0.83845172  1  0.109721  0.00045  0.948381  0.001  0.115947  5.4e-05  1.013815  0.0  0.119373  5.9e-05  1.012845  0.0  0.102354  0.113379  3e-05  1.014859  0.0
H  H13  1  0.30199531  0.56278319  0.00516746  1  0.117638  -0.00024  0.952971  -0.001  0.121749  -8.8e-05  1.021846  0.0  0.125879  -7.4e-05  1.017114  0.0  0.112365  0.118572  -0.0001  1.025419  0.0
H  H14  1  0.69800448  0.43721832  0.99483172  1  0.117624  -0.00024  0.952995  -0.001  0.121756  -8.8e-05  1.02186  0.0  0.125887  -7.4e-05  1.017127  0.0  0.112352  0.11858  -0.0001  1.02543  0.0
H  H15  1  0.53994141  0.09203035  0.56132460  1  0.097032  1.2e-05  0.95702  0.0  0.106578  2e-06  1.023584  0.0  0.109472  1e-06  1.020733  0.0  0.105504  0.104447  3e-06  1.02566  0.0
H  H16  1  0.46005737  0.90797000  0.43867555  1  0.097029  1.1e-05  0.957046  0.0  0.106556  2e-06  1.02364  0.0  0.109461  1e-06  1.020775  0.0  0.105501  0.104426  3e-06  1.025715  0.0
H  H17  1  0.77532090  0.21565565  0.22909181  1  0.076994  5.9e-05  0.963733  0.0  0.085837  8.4e-05  1.028688  0.0  0.088421  8.3e-05  1.025812  0.0  0.110029  0.083831  8.7e-05  1.030854  0.0
H  H18  1  0.22467621  0.78433894  0.77090760  1  0.077059  5.9e-05  0.963683  0.0  0.085869  8.4e-05  1.028648  0.0  0.088463  8.3e-05  1.025763  0.0  0.110035  0.083865  8.7e-05  1.030817  0.0
H  H19  1  0.73118382  0.52388006  0.50862729  1  0.052694  1.3e-05  1.026023  0.0  0.052143  3e-06  1.112502  0.0  0.055726  3e-06  1.108352  0.0  0.087832  0.049482  4e-06  1.115562  0.0
H  H20  1  0.26881121  0.47612146  0.49136767  1  0.052687  1.3e-05  1.026057  0.0  0.052155  3e-06  1.112495  0.0  0.055732  3e-06  1.108348  0.0  0.087842  0.049498  4e-06  1.115556  0.0
C  C21  1  0.65573961  0.13489965  0.38860694  1  -0.127494  0.000273  3.754363  0.0  -0.13978  9e-06  4.012735  0.0  -0.14785  2.1e-05  4.035273  0.0  -0.091336  -0.134735  5e-06  3.997747  0.0
C  C22  1  0.34425714  0.86509838  0.61139424  1  -0.127615  0.000275  3.754219  0.0  -0.139897  1e-05  4.012577  0.0  -0.147969  2.1e-05  4.035119  0.0  -0.091385  -0.134853  5e-06  3.997593  0.0
C  C23  1  0.21677399  0.21381755  0.91427411  1  0.079536  0.019551  3.659561  0.013  0.035311  0.00687  3.923694  0.004  0.048683  0.004979  3.935249  0.003  0.039582  0.025791  0.007996  3.917789  0.005
C  C24  1  0.78322580  0.78618396  0.08572507  1  0.079596  0.019552  3.659604  0.013  0.03535  0.006879  3.923704  0.004  0.048724  0.004981  3.935256  0.003  0.03962  0.025835  0.007997  3.91779  0.005
C  C25  1  0.06186332  0.29112486  0.08371899  1  0.127554  0.019051  3.665108  0.013  0.09508  0.006832  3.919369  0.004  0.107109  0.004816  3.934577  0.003  0.044814  0.086789  0.008268  3.910303  0.005
C  C26  1  0.93814025  0.70887436  0.91628090  1  0.127547  0.019051  3.66512  0.013  0.095057  0.006833  3.91938  0.004  0.107085  0.004815  3.934589  0.003  0.044817  0.086762  0.008269  3.910317  0.005
C  C27  1  0.13135315  0.42636821  0.08989820  1  -0.104291  -0.005279  3.743409  -0.008  -0.114893  -0.00067  3.994631  -0.001  -0.123677  -0.000742  4.013908  -0.001  -0.082861  -0.109456  -0.000375  3.982523  -0.001
C  C28  1  0.86864794  0.57363215  0.91010092  1  -0.104268  -0.005278  3.74344  -0.008  -0.11487  -0.000671  3.99469  -0.001  -0.12365  -0.000742  4.013963  -0.001  -0.082877  -0.109434  -0.000375  3.982587  -0.001
C  C29  1  0.24758171  0.45650776  0.00518582  1  0.000111  0.019676  3.650132  0.013  -0.030719  0.006568  3.899787  0.004  -0.021324  0.004114  3.911079  0.002  -0.05618  -0.037612  0.008856  3.893319  0.005
C  C30  1  0.75242069  0.54349145  0.99481414  1  0.000122  0.019676  3.650163  0.013  -0.030759  0.006573  3.899869  0.004  -0.021364  0.004116  3.911161  0.002  -0.056169  -0.037654  0.008856  3.893405  0.005
C  C31  1  0.29190943  0.34766932  0.91524259  1  -0.062116  -0.004438  3.807904  -0.007  -0.041668  -0.000653  4.04538  -0.001  -0.051226  -0.000686  4.067532  -0.001  -0.00479  -0.035988  -0.000462  4.03162  -0.001
C  C32  1  0.70809182  0.65232989  0.08475744  1  -0.062132  -0.004438  3.807815  -0.007  -0.041672  -0.000657  4.045312  -0.001  -0.05123  -0.000687  4.067463  -0.001  -0.004807  -0.035993  -0.000462  4.031545  -0.001
C  C33  1  0.41242454  0.38248872  0.82627008  1  0.352576  0.003245  3.722407  0.003  0.317929  0.000447  4.004826  0.0  0.334767  0.000516  4.014382  0.0  0.220907  0.306835  0.000367  3.998383  0.0
C  C34  1  0.58757538  0.61751164  0.17372910  1  0.352658  0.003245  3.722256  0.003  0.318  0.000442  4.004702  0.0  0.334836  0.000516  4.014259  0.0  0.220968  0.306912  0.000367  3.998253  0.0
C  C35  1  0.56130629  0.36878681  0.66552561  1  0.372089  -0.000782  3.70731  -0.001  0.336925  -0.000141  3.988602  0.0  0.35536  -0.00014  3.996629  0.0  0.224148  0.324324  -0.000132  3.983485  0.0
C  C36  1  0.43869363  0.63121355  0.33447358  1  0.372155  -0.000782  3.707323  -0.001  0.337007  -0.000141  3.988586  0.0  0.355433  -0.000139  3.996626  0.0  0.224199  0.324412  -0.000132  3.983459  0.0
C  C37  1  0.62374979  0.31550191  0.54894509  1  -0.067551  0.000356  3.80214  0.0  -0.04572  2.4e-05  4.036459  0.0  -0.054671  4.1e-05  4.060898  0.0  -0.009134  -0.040061  1.9e-05  4.020163  0.0
C  C38  1  0.37624881  0.68449960  0.45105326  1  -0.067536  0.000358  3.802245  0.0  -0.045707  2.3e-05  4.036544  0.0  -0.054657  4e-05  4.060988  0.0  -0.009102  -0.040046  1.9e-05  4.020241  0.0
C  C39  1  0.59976178  0.17195007  0.50467905  1  -0.024824  -0.00021  3.702115  0.0  -0.058852  -1.9e-05  3.960224  0.0  -0.054584  -2.8e-05  3.978416  0.0  -0.06969  -0.061248  -7e-06  3.947798  0.0
C  C40  1  0.40023454  0.82805142  0.49532121  1  -0.024819  -0.00021  3.702209  0.0  -0.058849  -1.9e-05  3.960323  0.0  -0.054586  -2.7e-05  3.978511  0.0  -0.069687  -0.061244  -7e-06  3.947893  0.0
C  C41  1  0.73375163  0.24134946  0.32111258  1  0.136804  -0.000268  3.70414  0.0  0.106191  -2e-05  3.970285  0.0  0.113864  -2.5e-05  3.985983  0.0  0.04172  0.101256  -8e-06  3.95961  0.0
C  C42  1  0.26624416  0.75864629  0.67888599  1  0.136836  -0.000268  3.704007  0.0  0.106267  -2.1e-05  3.970117  0.0  0.113933  -2.6e-05  3.985823  0.0  0.041753  0.10133  -8e-06  3.959447  0.0
C  C43  1  0.70816418  0.41279126  0.47523629  1  0.101446  -0.000241  3.715435  0.0  0.067674  -2.8e-05  3.972481  0.0  0.074136  -3.3e-05  3.989772  0.0  0.040532  0.06365  -2.7e-05  3.960706  0.0
C  C44  1  0.29183090  0.58721025  0.52476046  1  0.10145  -0.000242  3.715519  0.0  0.067673  -2.8e-05  3.972572  0.0  0.074142  -3.3e-05  3.989868  0.0  0.040501  0.063645  -2.7e-05  3.960797  0.0
C  C45  1  0.10046808  0.94724267  0.24686254  1  0.645284  0.00358  3.897851  0.002  0.598654  0.002202  4.2072  0.001  0.636546  0.000877  4.19779  0.0  0.207874  0.572436  0.003224  4.213015  0.002
C  C46  1  0.89953524  0.05275885  0.75313824  1  0.645263  0.003579  3.898039  0.002  0.598681  0.002202  4.207314  0.001  0.636573  0.000877  4.197905  0.0  0.2079  0.572465  0.003223  4.213128  0.002
C  C47  1  0.05236764  0.97305449  0.37877806  1  -0.103923  0.003544  3.736682  0.002  -0.100916  0.001277  3.986426  0.001  -0.104809  0.000865  4.004349  0.001  -0.022677  -0.098128  0.001439  3.974121  0.001
C  C48  1  0.94763565  0.02694703  0.62122182  1  -0.103967  0.003544  3.736852  0.002  -0.100986  0.001278  3.986569  0.001  -0.104882  0.000865  4.004493  0.001  -0.022736  -0.098209  0.001439  3.974291  0.001
C  C49  1  0.08651118  0.10458744  0.43757937  1  0.025775  0.000426  3.693488  0.0  0.025638  8.9e-05  3.969613  0.0  0.028323  4.1e-05  3.99076  0.0  -0.027295  0.023655  9.9e-05  3.955503  0.0
C  C50  1  0.91349100  0.89541406  0.56242237  1  0.025761  0.000426  3.693519  0.0  0.025669  8.8e-05  3.969603  0.0  0.028355  4.1e-05  3.99075  0.0  -0.027276  0.023685  9.9e-05  3.955489  0.0
C  C51  1  0.03212870  0.13231379  0.55693333  1  0.027718  0.000605  3.687644  0.0  0.028321  0.000142  3.962732  0.0  0.031293  9.3e-05  3.983605  0.0  -0.025564  0.026131  0.000161  3.948824  0.0
C  C52  1  0.96787476  0.86768657  0.44306746  1  0.027697  0.000605  3.687618  0.0  0.028283  0.000143  3.9627  0.0  0.031254  9.3e-05  3.983572  0.0  -0.02558  0.026096  0.000161  3.948789  0.0
Br  Br53  1  0.21303532  0.24139125  0.35592250  1  0.004539  0.000631  1.480655  0.0  0.003505  0.000414  1.777284  0.0  0.001012  0.00021  1.770031  0.0  0.090466  0.005452  0.000579  1.782509  0.0
Br  Br54  1  0.78696480  0.75860794  0.64407938  1  0.004547  0.000631  1.480637  0.0  0.003502  0.000413  1.777242  0.0  0.001009  0.000211  1.76999  0.0  0.090465  0.005448  0.000579  1.782466  0.0
Br  Br55  1  0.06937730  0.31571345  0.63320792  1  0.009048  0.000606  1.467998  0.0  0.001399  0.000352  1.777266  0.0  -0.000603  0.000185  1.768995  0.0  0.091386  0.003139  0.000458  1.783005  0.0
Br  Br56  1  0.93062238  0.68428921  0.36679214  1  0.009075  0.000606  1.468006  0.0  0.001437  0.000353  1.77726  0.0  -0.000567  0.000185  1.768993  0.0  0.091399  0.00317  0.000458  1.782996  0.0
N  N57  1  0.10322713  0.18561100  0.99771712  1  -0.251824  0.01243  3.362512  0.006  -0.202343  0.009993  3.646806  0.007  -0.229847  0.009187  3.663257  0.006  -0.341622  -0.186512  0.00992  3.636948  0.007
N  N58  1  0.89677528  0.81438822  0.00228284  1  -0.251868  0.012431  3.362583  0.006  -0.202347  0.009993  3.646841  0.007  -0.229852  0.009188  3.663293  0.006  -0.341636  -0.186515  0.00992  3.636981  0.007
N  N59  1  0.49453193  0.50011477  0.82626580  1  -0.259833  -0.001887  2.920349  -0.003  -0.242232  -0.0004  3.206137  -0.001  -0.252501  -0.000386  3.219642  -0.001  -0.215816  -0.235415  -0.000381  3.197114  -0.001
N  N60  1  0.50546524  0.49988903  0.17373260  1  -0.259908  -0.001886  2.920278  -0.003  -0.242309  -0.000398  3.20609  -0.001  -0.252576  -0.000386  3.219594  -0.001  -0.215902  -0.235492  -0.000381  3.197062  -0.001
N  N61  1  0.59029301  0.49140865  0.72268528  1  -0.26439  0.000665  2.926366  0.001  -0.23963  6.1e-05  3.213206  0.0  -0.251017  0.000105  3.227051  0.0  -0.218383  -0.231864  5.9e-05  3.204068  0.0
N  N62  1  0.40970314  0.50859400  0.27731319  1  -0.264408  0.000666  2.926337  0.001  -0.239669  6.1e-05  3.213212  0.0  -0.251054  0.000103  3.22706  0.0  -0.218407  -0.231904  5.9e-05  3.204069  0.0
N  N63  1  0.76251302  0.37744490  0.36375676  1  -0.314637  0.000255  3.091663  0.0  -0.277776  1e-05  3.374033  0.0  -0.290689  2.2e-05  3.389945  0.0  -0.329628  -0.268785  6e-06  3.362853  0.0
N  N64  1  0.23748146  0.62255199  0.63624098  1  -0.314705  0.000256  3.091758  0.0  -0.27788  1.1e-05  3.374155  0.0  -0.290796  2.2e-05  3.390067  0.0  -0.329635  -0.268888  6e-06  3.36298  0.0
O  O65  1  0.44963402  0.29296210  0.72707829  1  -0.270997  -0.000101  2.306984  0.0  -0.199434  -4.8e-05  2.52926  0.0  -0.217373  -4e-05  2.529851  0.0  -0.10275  -0.18732  -4e-05  2.528726  0.0
O  O66  1  0.55036810  0.70703942  0.27292076  1  -0.271007  -0.000101  2.306893  0.0  -0.199463  -4.8e-05  2.529204  0.0  -0.217399  -4e-05  2.529798  0.0  -0.102759  -0.18737  -4e-05  2.52868  0.0
O  O67  1  0.99196295  0.99634223  0.17580412  1  -0.57204  0.02202  2.174498  0.018  -0.544389  0.00819  2.460434  0.007  -0.587096  0.009735  2.453157  0.009  -0.294408  -0.514864  0.006579  2.463959  0.005
O  O68  1  0.00803934  0.00365813  0.82419673  1  -0.57208  0.022021  2.174595  0.018  -0.544439  0.008191  2.460486  0.007  -0.587145  0.009736  2.453208  0.009  -0.294438  -0.514914  0.00658  2.464016  0.005
O  O69  1  0.23473504  0.88360889  0.21852629  1  -0.574968  0.001576  1.983493  0.001  -0.53291  0.000893  2.201628  0.001  -0.55783  0.000677  2.192504  0.0  -0.302134  -0.515623  0.001135  2.207555  0.001
O  O70  1  0.76526841  0.11639147  0.78147449  1  -0.574912  0.001576  1.983546  0.001  -0.532899  0.000893  2.201694  0.001  -0.55782  0.000677  2.19257  0.0  -0.302143  -0.515609  0.001135  2.207621  0.001
O  O71  1  0.24006786  0.84618846  0.98807580  1  -0.788869  -0.02073  1.885637  -0.035  -0.754482  -0.020777  2.071246  -0.033  -0.77808  -0.016669  2.041582  -0.027  -0.56318  -0.736072  -0.025389  2.090298  -0.04
O  O72  1  0.75993327  0.15381190  0.01192511  1  -0.788886  -0.02073  1.88561  -0.035  -0.754498  -0.020776  2.07122  -0.033  -0.778092  -0.016669  2.041557  -0.027  -0.563208  -0.736089  -0.025389  2.090271  -0.04
