# generated using pymatgen
data_CaPH7(C3O2)2
_symmetry_space_group_name_H-M   'P 1'
_cell_length_a   5.87519531
_cell_length_b   10.31215352
_cell_length_c   14.90370898
_cell_angle_alpha   89.99892446
_cell_angle_beta   95.83216282
_cell_angle_gamma   89.99949834
_symmetry_Int_Tables_number   1
_chemical_formula_structural   CaPH7(C3O2)2
_chemical_formula_sum   'Ca4 P4 H28 C24 O16'
_cell_volume   898.28100681
_cell_formula_units_Z   4
loop_
 _symmetry_equiv_pos_site_id
 _symmetry_equiv_pos_as_xyz
  1  'x, y, z'
loop_
 _atom_site_type_symbol
 _atom_site_label
 _atom_site_symmetry_multiplicity
 _atom_site_fract_x
 _atom_site_fract_y
 _atom_site_fract_z
 _atom_site_occupancy
 _atom_site_hle17_bader_spin_density
 _atom_site_hle17_ddec_charge
 _atom_site_hle17_ddec_spin_density
 _atom_site_hle17_ddec_sum_bond_order
 _atom_site_hle17_magmom
 _atom_site_hse06_10hf_bader_spin_density
 _atom_site_hse06_10hf_ddec_charge
 _atom_site_hse06_10hf_ddec_spin_density
 _atom_site_hse06_10hf_ddec_sum_bond_order
 _atom_site_hse06_10hf_magmom
 _atom_site_hse06_bader_spin_density
 _atom_site_hse06_ddec_charge
 _atom_site_hse06_ddec_spin_density
 _atom_site_hse06_ddec_sum_bond_order
 _atom_site_hse06_magmom
 _atom_site_pbe_bader_spin_density
 _atom_site_pbe_cm5_charge
 _atom_site_pbe_ddec_charge
 _atom_site_pbe_ddec_spin_density
 _atom_site_pbe_ddec_sum_bond_order
 _atom_site_pbe_magmom
Ca  Ca0  1  0.12329531  0.35431711  0.46056848  1  0  1.589367  0  1.067956  0  0  1.473763  0  1.394553  0  0  1.514089  0  1.354191  0  0  0.939487  1.443398  0  1.423262  0
Ca  Ca1  1  0.37673589  0.85431280  0.53943565  1  0  1.589335  0  1.06796  0  0  1.473844  0  1.394389  0  0  1.514165  0  1.35402  0  0  0.939467  1.443479  0  1.423099  0
Ca  Ca2  1  0.87673564  0.64567712  0.53943333  1  0  1.589335  0  1.067948  0  0  1.473776  0  1.394464  0  0  1.514109  0  1.354093  0  0  0.939468  1.44341  0  1.423174  0
Ca  Ca3  1  0.62329874  0.14567270  0.46056963  1  0  1.589324  0  1.067972  0  0  1.473702  0  1.394621  0  0  1.514028  0  1.354246  0  0  0.939432  1.443319  0  1.423359  0
P  P4  1  0.58172982  0.45767102  0.36432988  1  0  1.490072  0  4.938648  0  0  1.327187  0  5.444194  0  0  1.378847  0  5.40354  0  0  0.35296  1.291024  0  5.471384  0
P  P5  1  0.91829981  0.95766292  0.63568292  1  0  1.489999  0  4.938336  0  0  1.327057  0  5.444061  0  0  1.378721  0  5.40342  0  0  0.353037  1.290898  0  5.471243  0
P  P6  1  0.41828814  0.54231933  0.63568096  1  0  1.489609  0  4.938069  0  0  1.3267  0  5.443679  0  0  1.378367  0  5.403033  0  0  0.35284  1.290533  0  5.470875  0
P  P7  1  0.08174488  0.04232646  0.36431996  1  0  1.489747  0  4.93767  0  0  1.326999  0  5.442917  0  0  1.37867  0  5.402264  0  0  0.352934  1.290824  0  5.470126  0
H  H8  1  0.38694658  0.32577501  0.19960751  1  0  0.09058  0  0.967711  0  0  0.098471  0  1.036005  0  0  0.100352  0  1.036972  0  0  0.103022  0.097111  0  1.035408  0
H  H9  1  0.11303517  0.82576110  0.80041370  1  0  0.090445  0  0.967996  0  0  0.098353  0  1.036271  0  0  0.100247  0  1.037194  0  0  0.103032  0.096993  0  1.035675  0
H  H10  1  0.61304812  0.67422891  0.80038856  1  0  0.09056  0  0.96775  0  0  0.098487  0  1.036004  0  0  0.100368  0  1.036972  0  0  0.103015  0.097127  0  1.035407  0
H  H11  1  0.88695177  0.17424476  0.19961638  1  0  0.090539  0  0.967755  0  0  0.098453  0  1.036025  0  0  0.100332  0  1.036995  0  0  0.10303  0.097093  0  1.035427  0
H  H12  1  0.99553430  0.54452675  0.28842005  1  0  0.089556  0  0.975336  0  0  0.099228  0  1.039443  0  0  0.102699  0  1.037054  0  0  0.109043  0.096637  0  1.04135  0
H  H13  1  0.50447654  0.04452293  0.71156343  1  0  0.089508  0  0.975241  0  0  0.099148  0  1.039411  0  0  0.102622  0  1.037015  0  0  0.109027  0.096553  0  1.04132  0
H  H14  1  0.00447232  0.45546165  0.71157569  1  0  0.089551  0  0.975192  0  0  0.099185  0  1.039382  0  0  0.102658  0  1.036989  0  0  0.109024  0.096588  0  1.041299  0
H  H15  1  0.49556174  0.95548196  0.28842181  1  0  0.089432  0  0.975353  0  0  0.099091  0  1.039491  0  0  0.102563  0  1.037104  0  0  0.10899  0.096503  0  1.041388  0
H  H16  1  0.50903757  0.31741385  0.04506586  1  0  0.084482  0  0.955555  0  0  0.096692  0  1.012101  0  0  0.099245  0  1.011818  0  0  0.098449  0.094858  0  1.012393  0
H  H17  1  0.99087308  0.81739090  0.95494335  1  0  0.084507  0  0.95566  0  0  0.096707  0  1.0122  0  0  0.099271  0  1.011904  0  0  0.098489  0.094875  0  1.012483  0
H  H18  1  0.49093499  0.68261238  0.95493091  1  0  0.084428  0  0.955434  0  0  0.096629  0  1.012009  0  0  0.09919  0  1.011719  0  0  0.098415  0.094798  0  1.0123  0
H  H19  1  0.00903250  0.18262756  0.04507096  1  0  0.08444  0  0.955462  0  0  0.096643  0  1.012051  0  0  0.099199  0  1.011769  0  0  0.098434  0.094803  0  1.012342  0
H  H20  1  0.12188289  0.52986971  0.13625245  1  0  0.087052  0  0.952731  0  0  0.099169  0  1.009564  0  0  0.101896  0  1.008706  0  0  0.100521  0.097187  0  1.010312  0
H  H21  1  0.37805453  0.02986567  0.86372171  1  0  0.087028  0  0.952644  0  0  0.099094  0  1.009537  0  0  0.101835  0  1.008683  0  0  0.100445  0.097107  0  1.010293  0
H  H22  1  0.87810291  0.47014003  0.86373867  1  0  0.087058  0  0.952925  0  0  0.09914  0  1.009774  0  0  0.101862  0  1.008919  0  0  0.100532  0.097157  0  1.010523  0
H  H23  1  0.62189589  0.97016250  0.13625227  1  0  0.087106  0  0.952924  0  0  0.099223  0  1.009723  0  0  0.101952  0  1.008864  0  0  0.100533  0.097241  0  1.010469  0
H  H24  1  0.87417689  0.41938236  0.01242983  1  0  0.078274  0  0.97414  0  0  0.090208  0  1.035528  0  0  0.092744  0  1.034149  0  0  0.098058  0.088365  0  1.0366  0
H  H25  1  0.62571852  0.91936234  0.98755879  1  0  0.078472  0  0.973918  0  0  0.090284  0  1.035434  0  0  0.09278  0  1.0341  0  0  0.098124  0.088441  0  1.036508  0
H  H26  1  0.12578472  0.58064193  0.98755723  1  0  0.078252  0  0.974144  0  0  0.090191  0  1.03555  0  0  0.092691  0  1.034211  0  0  0.098049  0.088348  0  1.036623  0
H  H27  1  0.37417723  0.08065613  0.01243778  1  0  0.078358  0  0.974123  0  0  0.090284  0  1.035522  0  0  0.092759  0  1.034208  0  0  0.098115  0.088458  0  1.036578  0
H  H28  1  0.93942940  0.20794883  0.60873298  1  0  0.435218  0  0.867759  0  0  0.405443  0  0.928469  0  0  0.416753  0  0.912011  0  0  0.309696  0.397396  0  0.940178  0
H  H29  1  0.56059527  0.70795208  0.39126888  1  0  0.435328  0  0.867643  0  0  0.405528  0  0.928377  0  0  0.416834  0  0.911924  0  0  0.309766  0.397486  0  0.940076  0
H  H30  1  0.06059486  0.79204928  0.39127065  1  0  0.435164  0  0.867894  0  0  0.405396  0  0.928597  0  0  0.416705  0  0.91214  0  0  0.309682  0.397347  0  0.940309  0
H  H31  1  0.43942538  0.29203632  0.60873196  1  0  0.435215  0  0.867806  0  0  0.405434  0  0.928516  0  0  0.416744  0  0.912058  0  0  0.309671  0.397393  0  0.940212  0
H  H32  1  0.77358365  0.33766040  0.59905475  1  0  0.456102  0  0.842386  0  0  0.424336  0  0.906036  0  0  0.435341  0  0.889984  0  0  0.314821  0.416554  0  0.917387  0
H  H33  1  0.72643696  0.83766546  0.40094595  1  0  0.45616  0  0.842322  0  0  0.424312  0  0.906078  0  0  0.435311  0  0.890039  0  0  0.314809  0.41653  0  0.917426  0
H  H34  1  0.22643558  0.66233188  0.40095008  1  0  0.456091  0  0.842407  0  0  0.424277  0  0.90612  0  0  0.435277  0  0.890081  0  0  0.314796  0.416495  0  0.917469  0
H  H35  1  0.27358525  0.16232585  0.59905292  1  0  0.456157  0  0.842308  0  0  0.424324  0  0.906033  0  0  0.435327  0  0.889988  0  0  0.314857  0.416541  0  0.917384  0
C  C36  1  0.68065528  0.43762601  0.25426392  1  0  -0.248362  0  3.779791  0  0  -0.205923  0  4.019408  0  0  -0.215527  0  4.040897  0  0  -0.019567  -0.199542  0  4.005153  0
C  C37  1  0.81936049  0.93762512  0.74574135  1  0  -0.248314  0  3.779811  0  0  -0.205964  0  4.019555  0  0  -0.215565  0  4.041033  0  0  -0.019561  -0.199585  0  4.005317  0
C  C38  1  0.31933096  0.56236725  0.74573324  1  0  -0.248351  0  3.780118  0  0  -0.205927  0  4.019765  0  0  -0.215529  0  4.041245  0  0  -0.019557  -0.199545  0  4.005522  0
C  C39  1  0.18065531  0.06237589  0.25426338  1  0  -0.248413  0  3.78018  0  0  -0.206039  0  4.019876  0  0  -0.215642  0  4.041355  0  0  -0.01961  -0.199662  0  4.005643  0
C  C40  1  0.54572107  0.37262146  0.18527097  1  0  -0.04474  0  3.753711  0  0  -0.066846  0  3.997582  0  0  -0.066664  0  4.019619  0  0  -0.079538  -0.066886  0  3.982741  0
C  C41  1  0.95426053  0.87260445  0.81474157  1  0  -0.044633  0  3.753852  0  0  -0.066713  0  3.99772  0  0  -0.066526  0  4.01977  0  0  -0.079619  -0.066756  0  3.982881  0
C  C42  1  0.45425784  0.62738440  0.81471927  1  0  -0.044652  0  3.753533  0  0  -0.066768  0  3.997407  0  0  -0.066584  0  4.019448  0  0  -0.079427  -0.066812  0  3.982572  0
C  C43  1  0.04572577  0.12739365  0.18527977  1  0  -0.044567  0  3.75355  0  0  -0.066666  0  3.997399  0  0  -0.06648  0  4.019435  0  0  -0.079425  -0.066705  0  3.982552  0
C  C44  1  0.88773431  0.49446837  0.23546142  1  0  -0.051219  0  3.758743  0  0  -0.071841  0  3.997869  0  0  -0.072032  0  4.01929  0  0  -0.078019  -0.071552  0  3.983398  0
C  C45  1  0.61227718  0.99446707  0.76452217  1  0  -0.050902  0  3.758658  0  0  -0.071462  0  3.99773  0  0  -0.071648  0  4.019155  0  0  -0.077841  -0.071173  0  3.983262  0
C  C46  1  0.11226014  0.50552876  0.76453128  1  0  -0.050994  0  3.758436  0  0  -0.071585  0  3.997517  0  0  -0.071772  0  4.018929  0  0  -0.077918  -0.071298  0  3.983052  0
C  C47  1  0.38773911  0.00554364  0.23546579  1  0  -0.050866  0  3.758377  0  0  -0.071464  0  3.997479  0  0  -0.07165  0  4.018898  0  0  -0.077838  -0.071184  0  3.983028  0
C  C48  1  0.61496537  0.36753720  0.09849212  1  0  -0.077089  0  3.774107  0  0  -0.086958  0  4.020032  0  0  -0.090547  0  4.042637  0  0  -0.091528  -0.084491  0  4.004609  0
C  C49  1  0.88499028  0.86751334  0.90151437  1  0  -0.077005  0  3.774532  0  0  -0.086874  0  4.020455  0  0  -0.090473  0  4.043045  0  0  -0.09136  -0.084403  0  4.005028  0
C  C50  1  0.38499507  0.63247448  0.90150229  1  0  -0.076927  0  3.773685  0  0  -0.086815  0  4.019683  0  0  -0.090414  0  4.042282  0  0  -0.091321  -0.08435  0  4.004265  0
C  C51  1  0.11499196  0.13248864  0.09849812  1  0  -0.076847  0  3.773928  0  0  -0.086742  0  4.019881  0  0  -0.090333  0  4.042469  0  0  -0.091289  -0.084265  0  4.004451  0
C  C52  1  0.95814434  0.48745143  0.14894104  1  0  -0.075653  0  3.778442  0  0  -0.08726  0  4.027487  0  0  -0.090386  0  4.049771  0  0  -0.091648  -0.085114  0  4.012164  0
C  C53  1  0.54182951  0.98744038  0.85103956  1  0  -0.07583  0  3.778172  0  0  -0.087372  0  4.027138  0  0  -0.090521  0  4.049437  0  0  -0.091635  -0.085221  0  4.011808  0
C  C54  1  0.04183819  0.51255152  0.85105200  1  0  -0.075769  0  3.77874  0  0  -0.087341  0  4.027757  0  0  -0.090463  0  4.05003  0  0  -0.09169  -0.085192  0  4.012432  0
C  C55  1  0.45815712  0.01257226  0.14893950  1  0  -0.075854  0  3.778774  0  0  -0.087461  0  4.027778  0  0  -0.090588  0  4.050043  0  0  -0.091621  -0.085315  0  4.012461  0
C  C56  1  0.82048107  0.42516213  0.08015674  1  0  -0.074128  0  3.791096  0  0  -0.08848  0  4.038591  0  0  -0.089528  0  4.06043  0  0  -0.091621  -0.087566  0  4.023559  0
C  C57  1  0.67947791  0.92513398  0.91983901  1  0  -0.074358  0  3.791037  0  0  -0.088614  0  4.038523  0  0  -0.089627  0  4.06038  0  0  -0.091816  -0.087703  0  4.023493  0
C  C58  1  0.17948241  0.57485051  0.91983238  1  0  -0.074104  0  3.791286  0  0  -0.088468  0  4.03879  0  0  -0.089485  0  4.06065  0  0  -0.091727  -0.087557  0  4.023762  0
C  C59  1  0.32050520  0.07487091  0.08016210  1  0  -0.074271  0  3.791579  0  0  -0.08862  0  4.039087  0  0  -0.089613  0  4.060941  0  0  -0.091889  -0.087722  0  4.024051  0
O  O60  1  0.79816761  0.48333831  0.43037131  1  0  -1.004373  0  1.962242  0  0  -0.916088  0  2.243179  0  0  -0.945648  0  2.222194  0  0  -0.486027  -0.894608  0  2.257118  0
O  O61  1  0.70186760  0.98332341  0.56963056  1  0  -1.004427  0  1.962159  0  0  -0.916121  0  2.243148  0  0  -0.945686  0  2.222163  0  0  -0.486092  -0.894626  0  2.257062  0
O  O62  1  0.20184023  0.51665203  0.56961775  1  0  -1.004388  0  1.962122  0  0  -0.916026  0  2.243004  0  0  -0.945651  0  2.222138  0  0  -0.486022  -0.89448  0  2.256805  0
O  O63  1  0.29820021  0.01664948  0.43038506  1  0  -1.004327  0  1.961845  0  0  -0.916112  0  2.242885  0  0  -0.945692  0  2.221908  0  0  -0.485993  -0.894572  0  2.256709  0
O  O64  1  0.45937425  0.33173027  0.38959814  1  0  -0.990822  0  1.914037  0  0  -0.902892  0  2.188605  0  0  -0.932956  0  2.168937  0  0  -0.481487  -0.880887  0  2.201475  0
O  O65  1  0.04067315  0.83172672  0.61041212  1  0  -0.990893  0  1.914096  0  0  -0.902989  0  2.188692  0  0  -0.933055  0  2.169022  0  0  -0.481565  -0.880989  0  2.201563  0
O  O66  1  0.54068065  0.66826783  0.61040436  1  0  -0.990837  0  1.913788  0  0  -0.902956  0  2.188394  0  0  -0.93302  0  2.168726  0  0  -0.481554  -0.880954  0  2.201262  0
O  O67  1  0.95936064  0.16827914  0.38960521  1  0  -0.990876  0  1.913686  0  0  -0.90295  0  2.188238  0  0  -0.933022  0  2.168569  0  0  -0.481578  -0.880942  0  2.201107  0
O  O68  1  0.41567583  0.57306254  0.35935188  1  0  -0.877865  0  1.924348  0  0  -0.793647  0  2.156516  0  0  -0.819957  0  2.135327  0  0  -0.359661  -0.774818  0  2.170799  0
O  O69  1  0.08434827  0.07305926  0.64065106  1  0  -0.877811  0  1.924068  0  0  -0.793558  0  2.156233  0  0  -0.819891  0  2.135058  0  0  -0.359675  -0.774724  0  2.170514  0
O  O70  1  0.58434858  0.42690744  0.64065377  1  0  -0.87762  0  1.923908  0  0  -0.793418  0  2.156055  0  0  -0.819736  0  2.134869  0  0  -0.359594  -0.77459  0  2.170335  0
O  O71  1  0.91566612  0.92691751  0.35935766  1  0  -0.877716  0  1.923865  0  0  -0.793501  0  2.155987  0  0  -0.819818  0  2.134801  0  0  -0.35963  -0.774668  0  2.17027  0
O  O72  1  0.86733763  0.27553876  0.56629833  1  0  -0.956473  0  1.870327  0  0  -0.894592  0  2.074888  0  0  -0.918723  0  2.042814  0  0  -0.647029  -0.877117  0  2.097134  0
O  O73  1  0.63268921  0.77553566  0.43370269  1  0  -0.956609  0  1.870155  0  0  -0.894617  0  2.074864  0  0  -0.918751  0  2.042795  0  0  -0.64706  -0.877144  0  2.097108  0
O  O74  1  0.13269181  0.72445546  0.43370612  1  0  -0.95642  0  1.870338  0  0  -0.89453  0  2.074944  0  0  -0.91866  0  2.042874  0  0  -0.647  -0.877058  0  2.097192  0
O  O75  1  0.36733310  0.22444887  0.56629753  1  0  -0.956547  0  1.870316  0  0  -0.894561  0  2.075003  0  0  -0.918692  0  2.042926  0  0  -0.647038  -0.877091  0  2.097246  0
