# generated using pymatgen
data_CuP2H12C13(NO3)2
_symmetry_space_group_name_H-M   'P 1'
_cell_length_a   4.87015712
_cell_length_b   11.25400299
_cell_length_c   14.42544917
_cell_angle_alpha   80.55942230
_cell_angle_beta   80.27926091
_cell_angle_gamma   77.52587418
_symmetry_Int_Tables_number   1
_chemical_formula_structural   CuP2H12C13(NO3)2
_chemical_formula_sum   'Cu2 P4 H24 C26 N4 O12'
_cell_volume   754.18019725
_cell_formula_units_Z   2
loop_
 _symmetry_equiv_pos_site_id
 _symmetry_equiv_pos_as_xyz
  1  'x, y, z'
loop_
 _atom_site_type_symbol
 _atom_site_label
 _atom_site_symmetry_multiplicity
 _atom_site_fract_x
 _atom_site_fract_y
 _atom_site_fract_z
 _atom_site_occupancy
 _atom_site_hle17_ddec_charge
 _atom_site_hle17_ddec_spin_density
 _atom_site_hle17_ddec_sum_bond_order
 _atom_site_hle17_magmom
 _atom_site_hse06_10hf_ddec_charge
 _atom_site_hse06_10hf_ddec_spin_density
 _atom_site_hse06_10hf_ddec_sum_bond_order
 _atom_site_hse06_10hf_magmom
 _atom_site_hse06_ddec_charge
 _atom_site_hse06_ddec_spin_density
 _atom_site_hse06_ddec_sum_bond_order
 _atom_site_hse06_magmom
 _atom_site_pbe_cm5_charge
 _atom_site_pbe_ddec_charge
 _atom_site_pbe_ddec_spin_density
 _atom_site_pbe_ddec_sum_bond_order
 _atom_site_pbe_magmom
Cu  Cu0  1  0.72482422  0.56557168  0.44854055  1  0.945219  0.71695  1.827007  0.542  0.930333  0.797676  2.216833  0.654  1.010039  0.857298  2.154133  0.734  0.778331  0.880092  0.754245  2.262012  0.599
Cu  Cu1  1  0.26105288  0.06530408  0.94864334  1  0.945284  0.716657  1.82535  0.541  0.929734  0.797582  2.216361  0.653  1.010197  0.857518  2.152559  0.734  0.777637  0.879107  0.753846  2.261912  0.598
P  P2  1  0.10818853  0.56918718  0.60001182  1  1.539366  0.000727  4.758018  -0.001  1.399186  0.002997  5.26423  0.001  1.452454  0.001882  5.223473  0.001  0.345599  1.362181  0.003975  5.290932  0.001
P  P3  1  0.72266409  0.06930895  0.10009655  1  1.537201  0.000758  4.760432  -0.001  1.396941  0.002997  5.266725  0.001  1.45019  0.00189  5.226097  0.001  0.344834  1.359937  0.003987  5.293411  0.001
P  P4  1  0.83517979  0.81106684  0.49583405  1  1.556611  0.000911  4.76836  -0.001  1.409632  0.003523  5.274294  0.001  1.46252  0.002379  5.234769  0.001  0.349829  1.372516  0.004499  5.300662  0.001
P  P5  1  0.85872962  0.31099605  0.99556757  1  1.559382  0.000662  4.765663  -0.002  1.412608  0.003407  5.27153  0.001  1.46549  0.002297  5.23204  0.001  0.352254  1.375459  0.004364  5.297869  0.001
H  H6  1  0.21447961  0.48348462  0.73859446  1  0.416579  3e-06  0.814947  0.0  0.404773  5.9e-05  0.861795  0.0  0.412861  3.4e-05  0.852573  0.0  0.341373  0.399045  8.3e-05  0.868402  0.0
H  H7  1  0.56219961  0.98387183  0.23863446  1  0.416064  2e-06  0.817604  0.0  0.404106  6.2e-05  0.864775  0.0  0.412233  3.6e-05  0.85545  0.0  0.340853  0.398347  8.9e-05  0.871453  0.0
H  H8  1  0.36164591  0.88492889  0.49818097  1  0.450808  7e-05  0.847857  0.0  0.414285  9.3e-05  0.920326  0.0  0.426286  5e-05  0.903239  0.0  0.298284  0.405791  0.000142  0.932358  0.0
H  H9  1  0.25696551  0.38468873  0.99777168  1  0.452332  6.3e-05  0.845705  0.0  0.415945  9.1e-05  0.917832  0.0  0.427935  4.9e-05  0.900782  0.0  0.30007  0.407451  0.000134  0.929844  0.0
H  H10  1  0.92410572  0.76230534  0.65863524  1  0.172655  -0.00037  0.982091  0.0  0.180438  -0.000156  1.042413  0.0  0.183333  -0.000156  1.043801  0.0  0.104692  0.178627  -0.000136  1.04132  0.0
H  H11  1  0.65535161  0.26258696  0.15843058  1  0.173152  -0.00037  0.982522  0.0  0.180736  -0.000155  1.042917  0.0  0.183675  -0.000156  1.044238  0.0  0.104434  0.178888  -0.000135  1.041869  0.0
H  H12  1  0.65145071  0.69008765  0.63438942  1  0.201086  2.5e-05  0.967232  0.0  0.20978  1.5e-05  1.021644  0.0  0.21437  4e-06  1.019615  0.0  0.115865  0.206561  3.4e-05  1.023048  0.0
H  H13  1  0.02438188  0.19036157  0.13425531  1  0.202091  2.2e-05  0.967023  0.0  0.210699  1.3e-05  1.021238  0.0  0.21528  4e-06  1.01924  0.0  0.116069  0.20747  3.2e-05  1.022701  0.0
H  H14  1  0.45533253  0.79527345  0.32144056  1  0.096952  0.001384  0.934176  0.003  0.10468  0.001113  0.994578  0.002  0.107174  0.000755  0.991246  0.002  0.126577  0.102613  0.00143  0.997234  0.003
H  H15  1  0.42742657  0.29498391  0.82127532  1  0.09611  0.001382  0.935991  0.003  0.104601  0.001113  0.995566  0.002  0.107105  0.000755  0.992217  0.002  0.126422  0.102491  0.001431  0.998296  0.003
H  H16  1  0.13720200  0.82912022  0.19432776  1  0.125753  0.000466  0.954571  0.001  0.134484  0.000458  1.011831  0.001  0.137996  0.000325  1.010109  0.0  0.114266  0.131749  0.000572  1.013479  0.001
H  H17  1  0.83864355  0.32891214  0.69410658  1  0.127046  0.000463  0.954299  0.001  0.135521  0.000459  1.011753  0.001  0.139046  0.000326  1.009983  0.0  0.114322  0.132785  0.000572  1.013391  0.001
H  H18  1  0.99917417  0.64657271  0.14820268  1  0.104229  0.000308  0.924149  0.001  0.119246  2e-05  0.976442  0.0  0.121552  -1.9e-05  0.975831  0.0  0.114419  0.117502  6.7e-05  0.977158  0.0
H  H19  1  0.20535178  0.14642149  0.64805122  1  0.102049  0.000306  0.924978  0.001  0.117025  1.9e-05  0.977568  0.0  0.119339  -2e-05  0.976942  0.0  0.113137  0.115229  6.5e-05  0.978323  0.0
H  H20  1  0.49896890  0.08826863  0.40205848  1  0.115068  0.000249  0.942782  0.0  0.125769  -1e-05  1.000289  0.0  0.129303  -4e-05  0.996976  0.0  0.114247  0.122967  3.1e-05  1.003071  0.0
H  H21  1  0.01109895  0.58822897  0.90251058  1  0.115442  0.000269  0.943164  0.0  0.125687  7e-06  1.000991  0.0  0.129173  -2.9e-05  0.997778  0.0  0.114149  0.122898  5.3e-05  1.003723  0.0
H  H22  1  0.82021425  0.09270741  0.51560836  1  0.121304  0.000607  0.953139  0.001  0.128709  0.000567  1.013852  0.001  0.132247  0.000396  1.013036  0.0  0.110601  0.126058  0.000709  1.014641  0.001
H  H23  1  0.57174391  0.59245110  0.01591673  1  0.12063  0.000496  0.9529  0.001  0.128034  0.000465  1.013799  0.001  0.131525  0.000324  1.013045  0.0  0.110367  0.125417  0.000586  1.014544  0.001
H  H24  1  0.92701652  0.29828780  0.53644809  1  0.087295  0.001326  0.957113  0.003  0.094592  0.001067  1.022781  0.002  0.096278  0.000717  1.020962  0.002  0.119318  0.093275  0.001378  1.024073  0.002
H  H25  1  0.23842703  0.79805515  0.03681114  1  0.088326  0.001286  0.958755  0.003  0.096498  0.001032  1.023361  0.002  0.098117  0.000696  1.021612  0.001  0.120794  0.095258  0.001329  1.024574  0.002
H  H26  1  0.19488212  0.21254993  0.27209087  1  0.104043  0.000347  0.939203  0.0  0.117993  0.000256  0.993572  0.0  0.120257  0.000159  0.993411  0.0  0.110102  0.116176  0.000347  0.993973  0.0
H  H27  1  0.32079275  0.71263368  0.77243726  1  0.103094  0.000348  0.938503  0.0  0.117505  0.000255  0.992475  0.0  0.119757  0.000159  0.99234  0.0  0.110524  0.115676  0.000346  0.992869  0.0
H  H28  1  0.02916939  0.41191782  0.17779791  1  0.115547  0.000378  0.955661  0.0  0.127328  0.000272  1.012641  0.0  0.130263  0.000176  1.011956  0.0  0.108263  0.125073  0.000363  1.013328  0.0
H  H29  1  0.38095329  0.91188936  0.67783457  1  0.116043  0.000374  0.95352  0.0  0.127165  0.000272  1.011439  0.0  0.130045  0.000177  1.010846  0.0  0.108812  0.12495  0.000362  1.012049  0.0
C  C30  1  0.86149075  0.71309240  0.60852254  1  -0.813214  -0.001494  3.646664  -0.001  -0.803928  -0.000988  3.877897  0.0  -0.822667  -0.001071  3.876169  0.0  -0.19396  -0.791078  -0.000865  3.87879  0.0
C  C31  1  0.81729674  0.21328277  0.10837022  1  -0.815755  -0.001463  3.645607  -0.001  -0.806067  -0.000967  3.876606  0.0  -0.824871  -0.001055  3.874986  0.0  -0.193872  -0.793184  -0.000843  3.877452  0.0
C  C32  1  0.38990227  0.71956890  0.29840149  1  0.184208  -0.013231  3.633019  -0.009  0.153986  -0.004176  3.892031  -0.003  0.167421  -0.005783  3.90503  -0.004  0.07346  0.14488  -0.003083  3.883978  -0.002
C  C33  1  0.59157779  0.21932076  0.79827333  1  0.183926  -0.013349  3.634006  -0.009  0.153325  -0.004217  3.892855  -0.003  0.166775  -0.005819  3.905837  -0.004  0.074758  0.144201  -0.003142  3.884831  -0.002
C  C34  1  0.21493781  0.73631141  0.22716911  1  -0.10224  0.009703  3.682552  0.011  -0.116928  0.004463  3.93679  0.006  -0.123871  0.003815  3.954877  0.005  -0.074032  -0.112635  0.005059  3.925339  0.006
C  C35  1  0.82087673  0.23612004  0.72697663  1  -0.102996  0.009744  3.682126  0.011  -0.117508  0.004462  3.936322  0.006  -0.124417  0.003821  3.954352  0.005  -0.073306  -0.113226  0.005052  3.924848  0.006
C  C36  1  0.13602819  0.63579779  0.20288232  1  -0.037609  -0.013487  3.661413  -0.008  -0.062931  -0.005769  3.91223  -0.003  -0.059317  -0.006121  3.928771  -0.003  -0.058121  -0.065625  -0.005671  3.901685  -0.003
C  C37  1  0.02461160  0.13564448  0.70273771  1  -0.033908  -0.013537  3.661118  -0.008  -0.059663  -0.005743  3.911239  -0.003  -0.056073  -0.006109  3.927825  -0.003  -0.056863  -0.062297  -0.00564  3.900657  -0.003
C  C38  1  0.22976471  0.51747612  0.25076941  1  0.024327  0.004276  3.794332  0.006  0.035156  0.001677  4.038698  0.003  0.032628  0.001275  4.060458  0.002  0.000497  0.036517  0.002094  4.024715  0.003
C  C39  1  0.00159462  0.01733852  0.75076699  1  0.021173  0.004319  3.793508  0.006  0.033356  0.001696  4.035859  0.003  0.030842  0.001287  4.057636  0.002  -0.001104  0.034698  0.002117  4.021865  0.003
C  C40  1  0.40458747  0.50992886  0.32122738  1  0.124232  -0.003751  3.792354  -0.002  0.115054  -0.000957  4.043165  0.0  0.120563  -0.002091  4.064254  -0.001  0.115564  0.111234  -0.000131  4.029655  0.001
C  C41  1  0.76391039  0.00974163  0.82126640  1  0.123348  -0.003792  3.791823  -0.002  0.114135  -0.000952  4.041723  0.0  0.119556  -0.002088  4.062952  -0.001  0.115994  0.110342  -0.000127  4.028182  0.001
C  C42  1  0.50820102  0.39452519  0.37324917  1  0.133175  -0.003035  3.788165  -0.002  0.126812  -0.000333  4.029504  0.0  0.132478  -0.001396  4.051808  -0.001  0.116725  0.12297  0.000432  4.01472  0.001
C  C43  1  0.72389397  0.89432848  0.87338404  1  0.131953  -0.00305  3.787405  -0.002  0.1261  -0.000362  4.028115  0.0  0.131724  -0.001411  4.050646  -0.001  0.117398  0.122289  0.000396  4.013204  0.001
C  C44  1  0.43357306  0.28617699  0.35630542  1  0.023553  0.004257  3.788847  0.005  0.040151  0.002078  4.018939  0.003  0.036527  0.0017  4.043457  0.002  0.001083  0.042456  0.002422  4.002543  0.003
C  C45  1  0.92400830  0.78607671  0.85655211  1  0.025999  0.004278  3.787679  0.005  0.041925  0.002094  4.018369  0.003  0.038334  0.001702  4.042878  0.002  0.00091  0.044206  0.002453  4.001965  0.003
C  C46  1  0.54774960  0.17563254  0.41042473  1  -0.028007  -0.012583  3.64399  -0.008  -0.054199  -0.005236  3.891013  -0.003  -0.049415  -0.005604  3.90607  -0.003  -0.054507  -0.057767  -0.005112  3.881584  -0.003
C  C47  1  0.86638908  0.67553712  0.91074103  1  -0.032121  -0.012584  3.645489  -0.008  -0.057665  -0.005263  3.892637  -0.003  -0.052864  -0.005604  3.907752  -0.003  -0.055318  -0.061229  -0.005145  3.883139  -0.003
C  C48  1  0.72516750  0.17801527  0.47546990  1  -0.115884  0.008461  3.703814  0.01  -0.128701  0.003892  3.956747  0.005  -0.136929  0.003357  3.976802  0.004  -0.079023  -0.123446  0.004368  3.943748  0.006
C  C49  1  0.62156652  0.67783910  0.97580308  1  -0.112603  0.008614  3.702408  0.01  -0.125336  0.003999  3.95534  0.005  -0.133532  0.003409  3.975458  0.004  -0.078494  -0.120095  0.004528  3.942294  0.006
C  C50  1  0.78704982  0.29055231  0.48732730  1  0.149489  -0.012043  3.678625  -0.008  0.118681  -0.003647  3.937242  -0.003  0.130224  -0.005156  3.954014  -0.004  0.061838  0.111118  -0.002619  3.926088  -0.002
C  C51  1  0.43516113  0.79032223  0.98764310  1  0.14592  -0.011947  3.677197  -0.008  0.114465  -0.003611  3.936365  -0.003  0.126065  -0.005138  3.953213  -0.004  0.059163  0.106846  -0.002559  3.925212  -0.002
C  C52  1  0.25324080  0.29597325  0.28522985  1  -0.096887  0.001078  3.726984  0.001  -0.118589  0.000612  3.981746  0.001  -0.121709  0.000527  4.005106  0.001  -0.081084  -0.116516  0.000726  3.966258  0.001
C  C53  1  0.16560007  0.79598874  0.78544705  1  -0.095846  0.00109  3.726945  0.001  -0.117577  0.000595  3.981555  0.001  -0.120653  0.000515  4.004886  0.001  -0.08135  -0.115519  0.0007  3.966057  0.001
C  C54  1  0.15754895  0.40656900  0.23395227  1  -0.090658  0.000904  3.69583  0.001  -0.11467  0.00051  3.952827  0.001  -0.117641  0.000397  3.974588  0.0  -0.079074  -0.112693  0.000648  3.938502  0.001
C  C55  1  0.20181410  0.90653793  0.73402628  1  -0.089989  0.00089  3.694244  0.001  -0.114103  0.000528  3.951203  0.001  -0.117024  0.000412  3.972891  0.0  -0.079045  -0.11213  0.000669  3.936914  0.001
N  N56  1  0.48369933  0.60913604  0.34332984  1  -0.326577  0.077553  3.328489  0.102  -0.291018  0.055046  3.633404  0.077  -0.320745  0.043962  3.652724  0.067  -0.33661  -0.272896  0.062098  3.622133  0.083
N  N57  1  0.56351421  0.10889284  0.84331486  1  -0.324492  0.077661  3.328178  0.102  -0.28952  0.055158  3.633812  0.078  -0.319335  0.044063  3.653233  0.067  -0.337859  -0.271383  0.062192  3.622534  0.083
N  N58  1  0.67941263  0.39574921  0.43787865  1  -0.322715  0.073288  3.347099  0.096  -0.283938  0.052137  3.645547  0.073  -0.312885  0.041802  3.665118  0.063  -0.340619  -0.266253  0.058701  3.633852  0.078
N  N59  1  0.48695392  0.89549336  0.93805197  1  -0.320105  0.073439  3.343519  0.096  -0.281821  0.052179  3.642555  0.073  -0.310968  0.041821  3.66229  0.063  -0.339293  -0.263973  0.058759  3.630742  0.078
O  O60  1  0.01935910  0.49752342  0.53246634  1  -0.813631  0.065301  2.001022  0.09  -0.771268  0.040261  2.304374  0.059  -0.809544  0.029858  2.286862  0.047  -0.386032  -0.744483  0.047669  2.315861  0.066
O  O61  1  0.95085106  0.99725107  0.03286490  1  -0.813544  0.06485  2.002009  0.089  -0.770743  0.040155  2.304919  0.059  -0.809202  0.029829  2.287689  0.047  -0.386006  -0.743895  0.047448  2.316276  0.066
O  O62  1  0.41143137  0.58640313  0.58283055  1  -0.87293  0.003988  1.978811  0.008  -0.814863  0.00135  2.253763  0.004  -0.84386  -9.4e-05  2.231749  0.002  -0.3859  -0.793773  0.003046  2.268036  0.006
O  O63  1  0.41956398  0.08655461  0.08276580  1  -0.871835  0.003802  1.981164  0.008  -0.81327  0.001277  2.255596  0.004  -0.842249  -0.000127  2.233527  0.002  -0.384169  -0.792217  0.002914  2.26994  0.006
O  O64  1  0.05014109  0.49308339  0.70588709  1  -0.717066  0.002172  1.928499  0.003  -0.657621  0.001788  2.137545  0.003  -0.67536  0.0012  2.114985  0.002  -0.393243  -0.644846  0.002315  2.152745  0.003
O  O65  1  0.74980539  0.99375432  0.20622418  1  -0.716585  0.002187  1.929486  0.003  -0.657301  0.0018  2.138629  0.003  -0.675021  0.001209  2.116123  0.002  -0.39404  -0.64451  0.002331  2.153783  0.003
O  O66  1  0.81243651  0.73034645  0.42223928  1  -0.834955  0.074185  2.035684  0.103  -0.792664  0.043695  2.344419  0.065  -0.833328  0.032069  2.328218  0.051  -0.388375  -0.76429  0.051985  2.355185  0.073
O  O67  1  0.03448477  0.22983097  0.92209844  1  -0.836402  0.074284  2.03427  0.103  -0.793492  0.043804  2.342094  0.065  -0.834276  0.032148  2.325938  0.052  -0.389097  -0.76505  0.052111  2.35286  0.073
O  O68  1  0.07336906  0.88215336  0.47070065  1  -0.841134  0.009677  1.86308  0.013  -0.774889  0.004491  2.105476  0.007  -0.80219  0.002569  2.085803  0.004  -0.379266  -0.754539  0.006689  2.117983  0.009
O  O69  1  0.57506744  0.38252803  0.97036930  1  -0.84138  0.010691  1.863914  0.015  -0.775537  0.004959  2.106073  0.007  -0.802998  0.002813  2.086465  0.005  -0.379173  -0.754952  0.007441  2.118453  0.01
O  O70  1  0.54377194  0.90673542  0.51303801  1  -0.777803  0.001279  1.986919  0.002  -0.704583  0.00098  2.21169  0.002  -0.727042  0.00057  2.185771  0.001  -0.390831  -0.688309  0.001395  2.229224  0.002
O  O71  1  0.03813661  0.40648407  0.01251888  1  -0.779194  0.001274  1.985516  0.002  -0.706783  0.000963  2.211132  0.002  -0.729191  0.000557  2.185152  0.001  -0.394165  -0.690537  0.001379  2.228711  0.002
