# generated using pymatgen
data_DyH21C36(NO4)2
_symmetry_space_group_name_H-M   'P 1'
_cell_length_a   10.77709590
_cell_length_b   12.09746548
_cell_length_c   12.33646520
_cell_angle_alpha   94.38277342
_cell_angle_beta   106.55058842
_cell_angle_gamma   100.75506069
_symmetry_Int_Tables_number   1
_chemical_formula_structural   DyH21C36(NO4)2
_chemical_formula_sum   'Dy2 H42 C72 N4 O16'
_cell_volume   1500.24739286
_cell_formula_units_Z   2
loop_
 _symmetry_equiv_pos_site_id
 _symmetry_equiv_pos_as_xyz
  1  'x, y, z'
loop_
 _atom_site_type_symbol
 _atom_site_label
 _atom_site_symmetry_multiplicity
 _atom_site_fract_x
 _atom_site_fract_y
 _atom_site_fract_z
 _atom_site_occupancy
 _atom_site_pbe_bader_charge
 _atom_site_pbe_bader_spin_density
 _atom_site_pbe_cm5_charge
 _atom_site_pbe_ddec_charge
 _atom_site_pbe_ddec_spin_density
 _atom_site_pbe_ddec_sum_bond_order
 _atom_site_pbe_magmom
Dy  Dy0  1  0.08882626  0.30893562  0.49980984  1  2.130338  0  1.55102  1.908922  0  2.321492  0
Dy  Dy1  1  0.91117378  0.69106427  0.50018955  1  2.130343  0  1.551029  1.908956  0  2.321431  0
H  H2  1  0.27498132  0.57318856  0.52023723  1  0.115069  0  0.125233  0.09415  0  0.998792  0
H  H3  1  0.72502045  0.42681048  0.47976090  1  0.115049  0  0.125225  0.094138  0  0.998791  0
H  H4  1  0.50995620  0.68626909  0.59030884  1  0.104446  0  0.110352  0.119448  0  1.004628  0
H  H5  1  0.49004503  0.31373165  0.40969172  1  0.104451  0  0.110366  0.119457  0  1.004631  0
H  H6  1  0.68777634  0.59781690  0.70026602  1  0.135633  0  0.114567  0.123661  0  1.007189  0
H  H7  1  0.31222705  0.40218467  0.29973272  1  0.135689  0  0.114564  0.123576  0  1.007229  0
H  H8  1  0.10715913  0.06412463  0.61126399  1  0.154228  0  0.126379  0.100928  0  1.002551  0
H  H9  1  0.89284277  0.93587865  0.38873692  1  0.154167  0  0.126391  0.101008  0  1.002443  0
H  H10  1  0.26740197  0.95926861  0.72422283  1  0.142359  0  0.110524  0.121711  0  1.018688  0
H  H11  1  0.73259971  0.04073382  0.27577715  1  0.142337  0  0.110535  0.121734  0  1.018689  0
H  H12  1  0.50655755  0.05442775  0.80232034  1  0.115342  0  0.11566  0.122566  0  0.977889  0
H  H13  1  0.49344412  0.94557468  0.19768127  1  0.1152  0  0.115666  0.122496  0  0.977904  0
H  H14  1  0.68638439  0.22883111  0.82329383  1  0.075265  0  0.107389  0.1108  0  0.991832  0
H  H15  1  0.31361684  0.77116963  0.17670592  1  0.075275  0  0.107404  0.110816  0  0.991798  0
H  H16  1  0.75116454  0.42761050  0.78915869  1  0.138045  0  0.102057  0.105565  0  1.041396  0
H  H17  1  0.24883604  0.57238768  0.21083827  1  0.138017  0  0.102045  0.105492  0  1.041407  0
H  H18  1  0.27462033  0.20780895  0.19178572  1  0.075242  0  0.106717  0.110969  0  1.01272  0
H  H19  1  0.72537919  0.79219264  0.80821610  1  0.075275  0  0.106677  0.110942  0  1.012655  0
H  H20  1  0.88339666  0.02764942  0.17226881  1  0.095482  0  0.106677  0.113603  0  1.025785  0
H  H21  1  0.11660019  0.97235304  0.82772997  1  0.09556  0  0.10669  0.113629  0  1.025803  0
H  H22  1  0.74787800  0.89211111  0.99864997  1  0.085721  0  0.101732  0.103424  0  1.032097  0
H  H23  1  0.25212249  0.10789048  0.00135290  1  0.085831  0  0.101744  0.103435  0  1.032117  0
H  H24  1  0.02682753  0.30487132  0.77577268  1  0.088559  0  0.107361  0.114515  0  1.025609  0
H  H25  1  0.97317436  0.69513196  0.22422743  1  0.08854  0  0.107347  0.11452  0  1.02557  0
H  H26  1  0.98430082  0.64874896  0.83696037  1  0.119389  0  0.107336  0.112478  0  1.017179  0
H  H27  1  0.01569462  0.35125180  0.16303551  1  0.11939  0  0.107347  0.112553  0  1.017174  0
H  H28  1  0.97560176  0.72528934  0.02701893  1  0.085399  0  0.098936  0.101221  0  1.023049  0
H  H29  1  0.02439389  0.27471227  0.97298030  1  0.08547  0  0.098946  0.101252  0  1.022995  0
H  H30  1  0.60066371  0.17560216  0.39494164  1  0.079995  0  0.103799  0.104372  0  1.045699  0
H  H31  1  0.39933708  0.82439688  0.60506111  1  0.079951  0  0.103816  0.104428  0  1.045647  0
H  H32  1  0.83928218  0.04690559  0.67865659  1  0.11832  0  0.102386  0.107996  0  1.020984  0
H  H33  1  0.16071742  0.95309260  0.32134338  1  0.118313  0  0.10241  0.108005  0  1.020948  0
H  H34  1  0.64010906  0.90620197  0.68302558  1  0.051316  0  0.100713  0.102994  0  1.035159  0
H  H35  1  0.35989002  0.09379792  0.31697519  1  0.051318  0  0.100715  0.102996  0  1.035193  0
H  H36  1  0.41966251  0.19749776  0.99996184  1  0.058299  0  0.100264  0.098082  0  1.037935  0
H  H37  1  0.58034148  0.80249871  0.00003909  1  0.058372  0  0.100265  0.098077  0  1.037962  0
H  H38  1  0.71546855  0.49110892  0.18625865  1  0.132763  0  0.108772  0.118474  0  1.028145  0
H  H39  1  0.28452867  0.50888758  0.81374383  1  0.132763  0  0.108754  0.118473  0  1.028055  0
H  H40  1  0.70255711  0.68105630  0.12793349  1  0.084622  0  0.104405  0.108578  0  1.003204  0
H  H41  1  0.29744548  0.31893848  0.87206696  1  0.084611  0  0.104426  0.108637  0  1.003197  0
H  H42  1  0.77775357  0.27691489  0.32391351  1  0.661861  0  0.315241  0.376671  0  0.954971  0
H  H43  1  0.22224687  0.72307904  0.67608553  1  0.661893  0  0.31525  0.37666  0  0.954874  0
C  C44  1  0.35510243  0.53588777  0.56778360  1  0.500237  0  0.065006  0.125753  0  3.944457  0
C  C45  1  0.64489955  0.46411211  0.43221627  1  0.500315  0  0.064961  0.125671  0  3.944442  0
C  C46  1  0.48634638  0.59970739  0.60885094  1  -0.00296  0  -0.082223  -0.125844  0  3.957801  0
C  C47  1  0.51365410  0.40029419  0.39115193  1  -0.003038  0  -0.082196  -0.125812  0  3.957726  0
C  C48  1  0.58498221  0.55042482  0.67031614  1  -0.045444  0  -0.055573  -0.059827  0  3.891402  0
C  C49  1  0.41502097  0.44957591  0.32968167  1  -0.045444  0  -0.05561  -0.059762  0  3.891413  0
C  C50  1  0.55185435  0.43728473  0.69149795  1  -0.030869  0  0.000818  0.046071  0  3.996879  0
C  C51  1  0.44814763  0.56271515  0.30850030  1  -0.030907  0  0.000849  0.046145  0  3.996905  0
C  C52  1  0.41698378  0.37860110  0.64557076  1  0.463452  0  0.122473  0.130733  0  3.978957  0
C  C53  1  0.58301649  0.62139964  0.35443037  1  0.463465  0  0.122463  0.13066  0  3.978817  0
C  C54  1  0.37915583  0.26315958  0.66586692  1  0.481911  0  0.12161  0.134078  0  3.976803  0
C  C55  1  0.62084369  0.73684202  0.33413328  1  0.481896  0  0.121632  0.134136  0  3.976899  0
C  C56  1  0.21238371  0.10388398  0.64540627  1  0.478799  0  0.065662  0.131239  0  3.92399  0
C  C57  1  0.78761774  0.89611761  0.35459522  1  0.478617  0  0.065619  0.131123  0  3.923952  0
C  C58  1  0.30236925  0.04567594  0.71004621  1  -0.092949  0  -0.081204  -0.126929  0  3.966289  0
C  C59  1  0.69763242  0.95432650  0.28995621  1  -0.092714  0  -0.081242  -0.126973  0  3.966233  0
C  C60  1  0.43495489  0.09860906  0.75278084  1  0.006036  0  -0.056041  -0.061111  0  3.907723  0
C  C61  1  0.56504559  0.90139253  0.24722122  1  0.005817  0  -0.056003  -0.060971  0  3.907525  0
C  C62  1  0.47723987  0.21021668  0.73131228  1  -0.009522  0  0.001109  0.042278  0  4.004432  0
C  C63  1  0.52276114  0.78978321  0.26868897  1  -0.009148  0  0.001082  0.042181  0  4.004615  0
C  C64  1  0.61244301  0.27139967  0.77441301  1  -0.013651  0  -0.081501  -0.113784  0  3.985639  0
C  C65  1  0.38755801  0.72860022  0.22558500  1  -0.013639  0  -0.081511  -0.113773  0  3.985509  0
C  C66  1  0.64832954  0.38090298  0.75562718  1  -0.098445  0  -0.083533  -0.113312  0  3.963245  0
C  C67  1  0.35167297  0.61909520  0.24437108  1  -0.098373  0  -0.083523  -0.113246  0  3.96311  0
C  C68  1  0.09449471  0.17756567  0.31019508  1  1.519305  0  0.185362  0.558011  0  4.244225  0
C  C69  1  0.90550385  0.82243592  0.68980568  1  1.51931  0  0.185351  0.558006  0  4.244226  0
C  C70  1  0.07967204  0.12162400  0.19362361  1  -0.005982  0  -0.016197  -0.028006  0  3.982589  0
C  C71  1  0.92032889  0.87837928  0.80637706  1  -0.005343  0  -0.016246  -0.028104  0  3.982692  0
C  C72  1  0.18436640  0.14579581  0.14452364  1  -0.019611  0  -0.083739  -0.101822  0  3.989362  0
C  C73  1  0.81563528  0.85420662  0.85547554  1  -0.020224  0  -0.083691  -0.101729  0  3.989255  0
C  C74  1  0.96302335  0.04489855  0.13370294  1  -0.044939  0  -0.074912  -0.131344  0  3.907477  0
C  C75  1  0.03697653  0.95510815  0.86629935  1  -0.045338  0  -0.074819  -0.131257  0  3.907536  0
C  C76  1  0.94656187  0.98850805  0.02424436  1  -0.021363  0  -0.005959  0.071741  0  4.015929  0
C  C77  1  0.05343445  0.01149610  0.97575603  1  -0.079389  0  -0.006009  0.071769  0  4.015904  0
C  C78  1  0.82846858  0.90896810  0.96128563  1  -0.052323  0  -0.085759  -0.126889  0  3.980838  0
C  C79  1  0.17153094  0.09103349  0.03871538  1  -0.051501  0  -0.085781  -0.126898  0  3.980866  0
C  C80  1  0.00820407  0.49636313  0.67768560  1  1.613726  0  0.245742  0.679556  0  4.127986  0
C  C81  1  0.99179457  0.50363506  0.32231331  1  1.613619  0  0.245776  0.679649  0  4.12805  0
C  C82  1  0.00634327  0.47956752  0.79600780  1  -0.035536  0  -0.014631  -0.044665  0  3.978157  0
C  C83  1  0.99365573  0.52043578  0.20399158  1  -0.035504  0  -0.014551  -0.044509  0  3.978082  0
C  C84  1  0.01850789  0.37314555  0.83454270  1  -0.07706  0  -0.086483  -0.10491  0  3.978741  0
C  C85  1  0.98149423  0.62685858  0.16545672  1  -0.077017  0  -0.086483  -0.104916  0  3.978702  0
C  C86  1  0.99375445  0.56765572  0.86772542  1  -0.078801  0  -0.075844  -0.13466  0  3.926218  0
C  C87  1  0.00624239  0.43234673  0.13227174  1  -0.078747  0  -0.075901  -0.134844  0  3.926267  0
C  C88  1  0.99448784  0.55398638  0.98070723  1  0.018251  0  -0.004676  0.07304  0  4.004633  0
C  C89  1  0.00550849  0.44601778  0.01928912  1  -0.031299  0  -0.004687  0.072997  0  4.004502  0
C  C90  1  0.98359152  0.64342099  0.05678434  1  -0.022882  0  -0.086944  -0.122977  0  3.972286  0
C  C91  1  0.01640458  0.35658231  0.94321351  1  -0.022761  0  -0.086973  -0.122987  0  3.972085  0
C  C92  1  0.85222342  0.19573194  0.52930800  1  1.528363  0  0.202556  0.588797  0  4.178977  0
C  C93  1  0.14777759  0.80426794  0.47069245  1  1.528638  0  0.202552  0.588831  0  4.17895  0
C  C94  1  0.73036223  0.12035032  0.53699436  1  -0.069351  0  -0.018012  -0.033224  0  3.99101  0
C  C95  1  0.26963856  0.87964872  0.46300596  1  -0.06963  0  -0.018026  -0.033233  0  3.991007  0
C  C96  1  0.60819872  0.11915407  0.46005062  1  0.014501  0  -0.076199  -0.133859  0  3.930145  0
C  C97  1  0.39180110  0.88084497  0.53995108  1  0.014484  0  -0.076196  -0.133888  0  3.930242  0
C  C98  1  0.49387557  0.03962984  0.45942170  1  -0.008089  0  -0.003937  0.074473  0  3.995054  0
C  C99  1  0.50612254  0.96037006  0.54057882  1  -0.067712  0  -0.003919  0.074482  0  3.995142  0
C  C100  1  0.74181340  0.04355112  0.61898602  1  -0.086012  0  -0.085238  -0.094296  0  3.966205  0
C  C101  1  0.25818545  0.95644792  0.38101463  1  -0.085464  0  -0.08526  -0.094268  0  3.966117  0
C  C102  1  0.63200916  0.96568803  0.62070178  1  0.037091  0  -0.084011  -0.117154  0  3.961429  0
C  C103  1  0.36798992  0.03431186  0.37929980  1  0.036571  0  -0.084045  -0.117218  0  3.961412  0
C  C104  1  0.63160072  0.26423350  0.18321095  1  1.542608  0  0.225347  0.571447  0  4.151198  0
C  C105  1  0.36839681  0.73576045  0.81678980  1  1.542429  0  0.225415  0.571525  0  4.150912  0
C  C106  1  0.57303019  0.33803491  0.10083984  1  0.032826  0  -0.021744  -0.045366  0  4.011511  0
C  C107  1  0.42696659  0.66195989  0.89916241  1  -0.041788  0  -0.021848  -0.045499  0  4.01145  0
C  C108  1  0.45517622  0.28913695  0.01091654  1  -0.029555  0  -0.089317  -0.105521  0  4.015493  0
C  C109  1  0.54482391  0.71085954  0.98908342  1  -0.029488  0  -0.089297  -0.105461  0  4.015327  0
C  C110  1  0.62540447  0.45381772  0.11655812  1  -0.12985  0  -0.075135  -0.128314  0  3.905819  0
C  C111  1  0.37459402  0.54617622  0.88344449  1  -0.055067  0  -0.075071  -0.128223  0  3.905542  0
C  C112  1  0.56058657  0.52474740  0.04466763  1  0.064947  0  -0.002439  0.078319  0  3.982115  0
C  C113  1  0.43941192  0.47524654  0.95533579  1  0.013531  0  -0.002375  0.078243  0  3.982065  0
C  C114  1  0.61081245  0.64401527  0.05961626  1  -0.096746  0  -0.086074  -0.123383  0  3.980593  0
C  C115  1  0.38918529  0.35597953  0.94038623  1  -0.096576  0  -0.086128  -0.123414  0  3.980706  0
N  N116  1  0.24884116  0.20954225  0.62369456  1  -1.242579  0  -0.389874  -0.387296  0  3.503753  0
N  N117  1  0.75115880  0.79046104  0.37630669  1  -1.242609  0  -0.389831  -0.387267  0  3.503757  0
N  N118  1  0.32105814  0.42813569  0.58425920  1  -1.237873  0  -0.383982  -0.373938  0  3.500937  0
N  N119  1  0.67894481  0.57186418  0.41574010  1  -1.237898  0  -0.383982  -0.373895  0  3.50078  0
O  O120  1  0.06963179  0.43622685  0.63231502  1  -1.206891  0  -0.417958  -0.678509  0  2.382335  0
O  O121  1  0.93037072  0.56377133  0.36768647  1  -1.20686  0  -0.417986  -0.678571  0  2.382475  0
O  O122  1  0.96520037  0.18575872  0.59200133  1  -1.174895  0  -0.377842  -0.620623  0  2.261575  0
O  O123  1  0.03480117  0.81423946  0.40799993  1  -1.174856  0  -0.377842  -0.620633  0  2.261641  0
O  O124  1  0.84577546  0.26914593  0.45877067  1  -1.195809  0  -0.364848  -0.629666  0  2.290701  0
O  O125  1  0.15422340  0.73085311  0.54122917  1  -1.195844  0  -0.364842  -0.629731  0  2.290658  0
O  O126  1  0.99837144  0.15302411  0.35243175  1  -1.18377  0  -0.397406  -0.631389  0  2.206663  0
O  O127  1  0.00162444  0.84697835  0.64756841  1  -1.183761  0  -0.397356  -0.631352  0  2.206695  0
O  O128  1  0.20051112  0.25011829  0.36554212  1  -1.182837  0  -0.371787  -0.623929  0  2.228733  0
O  O129  1  0.79948893  0.74988159  0.63445808  1  -1.182831  0  -0.371805  -0.623952  0  2.228666  0
O  O130  1  0.94825362  0.56902042  0.62948000  1  -1.206239  0  -0.415628  -0.668763  0  2.320489  0
O  O131  1  0.05174718  0.43097862  0.37051790  1  -1.206158  0  -0.415649  -0.668838  0  2.320509  0
O  O132  1  0.57324476  0.16740592  0.18763189  1  -1.159545  0  -0.30045  -0.509628  0  2.113351  0
O  O133  1  0.42675365  0.83259143  0.81236691  1  -1.159399  0  -0.300454  -0.509653  0  2.113115  0
O  O134  1  0.75095696  0.31579965  0.25409608  1  -1.178763  0  -0.326129  -0.485779  0  2.35924  0
O  O135  1  0.24904541  0.68419428  0.74590183  1  -1.178783  0  -0.326153  -0.485769  0  2.359179  0
