# generated using pymatgen
data_CoNiH8(C8N3)2
_symmetry_space_group_name_H-M   'P 1'
_cell_length_a   6.41836370
_cell_length_b   10.17438136
_cell_length_c   11.10436964
_cell_angle_alpha   90.32798511
_cell_angle_beta   91.17589695
_cell_angle_gamma   71.64244925
_symmetry_Int_Tables_number   1
_chemical_formula_structural   CoNiH8(C8N3)2
_chemical_formula_sum   'Co2 Ni2 H16 C32 N12'
_cell_volume   688.09913859
_cell_formula_units_Z   2
loop_
 _symmetry_equiv_pos_site_id
 _symmetry_equiv_pos_as_xyz
  1  'x, y, z'
loop_
 _atom_site_type_symbol
 _atom_site_label
 _atom_site_symmetry_multiplicity
 _atom_site_fract_x
 _atom_site_fract_y
 _atom_site_fract_z
 _atom_site_occupancy
 _atom_site_hle17_ddec_charge
 _atom_site_hle17_ddec_spin_density
 _atom_site_hle17_ddec_sum_bond_order
 _atom_site_hle17_magmom
 _atom_site_hse06_10hf_ddec_charge
 _atom_site_hse06_10hf_ddec_spin_density
 _atom_site_hse06_10hf_ddec_sum_bond_order
 _atom_site_hse06_10hf_magmom
 _atom_site_hse06_ddec_charge
 _atom_site_hse06_ddec_spin_density
 _atom_site_hse06_ddec_sum_bond_order
 _atom_site_hse06_magmom
 _atom_site_pbe_cm5_charge
 _atom_site_pbe_ddec_charge
 _atom_site_pbe_ddec_spin_density
 _atom_site_pbe_ddec_sum_bond_order
 _atom_site_pbe_magmom
Co  Co0  1  0.37703914  0.24627878  0.74988873  1  0.718187  -1.232834  2.734288  -1.01  0.70366  -1.069014  3.173065  -0.936  0.75216  -1.070351  3.112162  -0.949  0.763014  0.679649  -1.04856  3.206858  -0.908
Co  Co1  1  0.62296813  0.75371841  0.25011440  1  0.718226  1.232799  2.734222  1.01  0.703718  1.069002  3.173009  0.936  0.752238  1.070326  3.112068  0.949  0.76303  0.679693  1.048523  3.206808  0.908
Ni  Ni2  1  0.00000182  0.00000621  0.00000721  1  0.132634  8e-06  3.334374  0.0  0.135685  8e-06  3.804869  0.0  0.147128  4e-06  3.752465  0.0  0.398076  0.136348  1.2e-05  3.837652  0.0
Ni  Ni3  1  0.00001466  0.99999278  0.50000001  1  0.132649  4e-06  3.33785  0.0  0.135288  2e-06  3.809303  0.0  0.146637  2e-06  3.756968  0.0  0.399028  0.137213  6e-06  3.838874  0.0
H  H4  1  0.93219363  0.29227996  0.61100132  1  0.084889  9.6e-05  1.004554  0.0  0.094603  0.000182  1.064427  0.0  0.094704  0.00015  1.064651  0.0  0.120168  0.094315  0.000184  1.064621  0.0
H  H5  1  0.77613490  0.29205819  0.88874816  1  0.084213  0.000106  1.004697  0.0  0.09409  0.000175  1.06457  0.0  0.094222  0.000147  1.064734  0.0  0.119822  0.093752  0.000184  1.06503  0.0
H  H6  1  0.06781099  0.70770688  0.38900091  1  0.085071  -9.6e-05  1.004552  0.0  0.094725  -0.000182  1.064488  0.0  0.09483  -0.00015  1.064717  0.0  0.120168  0.094423  -0.000184  1.064677  0.0
H  H7  1  0.22386868  0.70795558  0.11125226  1  0.084245  -0.000107  1.004586  0.0  0.094117  -0.000175  1.06447  0.0  0.094241  -0.000147  1.064628  0.0  0.119766  0.093788  -0.000184  1.064923  0.0
H  H8  1  0.63823257  0.50096540  0.54487447  1  0.107197  0.000158  0.950354  0.0  0.116619  1e-05  1.011785  0.0  0.119554  1.4e-05  1.010832  0.0  0.108447  0.114376  -4e-06  1.01282  0.0
H  H9  1  0.86155412  0.50062289  0.95508168  1  0.106846  0.00015  0.950426  0.0  0.115534  4e-06  1.012715  0.0  0.118516  1.1e-05  1.011706  0.0  0.108053  0.113362  -4e-06  1.013637  0.0
H  H10  1  0.36177105  0.49902040  0.45512866  1  0.107219  -0.000158  0.950251  0.0  0.116547  -9e-06  1.011782  0.0  0.119487  -1.5e-05  1.010821  0.0  0.108433  0.114315  4e-06  1.012795  0.0
H  H11  1  0.13842873  0.49939812  0.04491964  1  0.106859  -0.000149  0.95053  0.0  0.115533  -4e-06  1.012821  0.0  0.118515  -1.1e-05  1.011814  0.0  0.108044  0.113359  4e-06  1.013746  0.0
H  H12  1  0.66703394  0.73652140  0.58813649  1  0.12055  -0.00034  0.932339  -0.001  0.132178  -7e-06  0.987119  0.0  0.134516  -3.6e-05  0.986036  0.0  0.11677  0.130221  2.1e-05  0.988266  0.0
H  H13  1  0.59717160  0.73626563  0.91199669  1  0.12058  -0.000319  0.93238  -0.001  0.132346  -3e-06  0.98671  0.0  0.134611  -3.3e-05  0.985748  0.0  0.116631  0.130229  2.2e-05  0.988297  0.0
H  H14  1  0.33296116  0.26346544  0.41186033  1  0.120602  0.000339  0.932272  0.001  0.132247  7e-06  0.98703  0.0  0.134587  3.6e-05  0.985945  0.0  0.116774  0.130284  -2.1e-05  0.988173  0.0
H  H15  1  0.40280008  0.26374917  0.08799742  1  0.120558  0.000318  0.932356  0.001  0.132374  3e-06  0.986643  0.0  0.134642  3.3e-05  0.985677  0.0  0.116688  0.130257  -2.2e-05  0.98823  0.0
H  H16  1  0.89344155  0.87608566  0.69476426  1  0.10886  6.1e-05  0.951442  0.0  0.115847  -4.6e-05  1.018778  0.0  0.119191  -3.7e-05  1.015956  0.0  0.107602  0.113001  -6.5e-05  1.021441  0.0
H  H17  1  0.23168006  0.87596326  0.80528828  1  0.109781  8.9e-05  0.950303  0.0  0.116616  -2.6e-05  1.017727  0.0  0.119998  -2.1e-05  1.014888  0.0  0.107661  0.113611  -6.5e-05  1.020685  0.0
H  H18  1  0.10652501  0.12391464  0.30523255  1  0.108811  -6.1e-05  0.951568  0.0  0.115732  4.6e-05  1.018975  0.0  0.119075  3.7e-05  1.01615  0.0  0.107539  0.112875  6.5e-05  1.021649  0.0
H  H19  1  0.76829010  0.12403290  0.19470763  1  0.109801  -8.9e-05  0.950053  0.0  0.11656  2.6e-05  1.017589  0.0  0.119942  2.1e-05  1.014751  0.0  0.107623  0.113551  6.5e-05  1.020549  0.0
C  C20  1  0.11487201  0.13495770  0.94793904  1  0.050996  -0.011896  3.455823  -0.016  0.031526  -0.012381  3.798735  -0.017  0.036344  -0.010669  3.802384  -0.015  0.017107  0.026293  -0.01391  3.795929  -0.019
C  C21  1  0.75042635  0.13502785  0.55174556  1  0.050028  -0.011935  3.456151  -0.016  0.030083  -0.012433  3.800409  -0.017  0.035032  -0.010695  3.804012  -0.015  0.016034  0.024652  -0.013914  3.796619  -0.019
C  C22  1  0.88513952  0.86505917  0.05206590  1  0.050863  0.011921  3.455487  0.016  0.031389  0.012394  3.798419  0.017  0.036234  0.010687  3.802042  0.015  0.016974  0.026148  0.013927  3.795614  0.019
C  C23  1  0.24959748  0.86496728  0.44825578  1  0.049803  0.011956  3.456311  0.016  0.029858  0.012436  3.800562  0.017  0.034812  0.010708  3.804163  0.015  0.015885  0.024423  0.013921  3.796771  0.019
C  C24  1  0.16989467  0.06481505  0.60611301  1  0.066111  0.015318  3.424213  0.018  0.046337  0.005797  3.756401  0.007  0.056204  0.005305  3.758883  0.006  0.029622  0.037959  0.005911  3.754264  0.007
C  C25  1  0.76555099  0.06466657  0.89368388  1  0.06601  0.015321  3.423869  0.018  0.046082  0.005784  3.756139  0.007  0.056044  0.005275  3.758418  0.006  0.029685  0.037242  0.005924  3.755604  0.007
C  C26  1  0.83013254  0.93517386  0.39389644  1  0.066032  -0.015305  3.424296  -0.018  0.046274  -0.005802  3.756464  -0.007  0.056143  -0.005286  3.758946  -0.006  0.029601  0.037894  -0.005909  3.754323  -0.007
C  C27  1  0.23445821  0.93534305  0.10632916  1  0.065903  -0.015317  3.42369  -0.018  0.045966  -0.005786  3.755978  -0.007  0.055929  -0.005276  3.758254  -0.006  0.029632  0.037088  -0.005923  3.755507  -0.007
C  C28  1  0.94625926  0.39347462  0.63037585  1  0.13804  0.011307  3.652053  0.013  0.105942  0.003741  3.908407  0.004  0.118733  0.00285  3.923489  0.003  0.056425  0.097108  0.004307  3.899199  0.005
C  C29  1  0.66084834  0.39326695  0.86947405  1  0.140245  0.01057  3.650103  0.013  0.107556  0.003426  3.907168  0.004  0.120164  0.002661  3.922378  0.003  0.056901  0.09804  0.004309  3.898524  0.005
C  C30  1  0.05375580  0.60651947  0.36962729  1  0.137978  -0.011286  3.651823  -0.013  0.105909  -0.003742  3.908105  -0.004  0.118691  -0.00285  3.923197  -0.003  0.056522  0.097096  -0.004308  3.898887  -0.005
C  C31  1  0.33916205  0.60674579  0.13052818  1  0.140339  -0.010552  3.650255  -0.013  0.107671  -0.00343  3.907311  -0.004  0.120298  -0.002656  3.922515  -0.003  0.057071  0.098146  -0.004308  3.898664  -0.005
C  C32  1  0.77907522  0.51346520  0.59396450  1  -0.103897  -0.004573  3.71977  -0.006  -0.123705  -0.000605  3.98691  -0.001  -0.130901  -0.000865  4.005703  -0.001  -0.081163  -0.119237  -0.00039  3.975345  -0.001
C  C33  1  0.70811044  0.51321056  0.90604726  1  -0.103011  -0.00435  3.717884  -0.006  -0.121908  -0.000588  3.984795  -0.001  -0.129151  -0.000834  4.003743  -0.001  -0.080277  -0.117221  -0.000388  3.973238  -0.001
C  C34  1  0.22092367  0.48652371  0.40603683  1  -0.103803  0.004544  3.719678  0.006  -0.123505  0.000604  3.986725  0.001  -0.130701  0.000867  4.005511  0.001  -0.081092  -0.119033  0.000391  3.975157  0.001
C  C35  1  0.29188424  0.48680217  0.09395136  1  -0.103025  0.004326  3.718  0.006  -0.12192  0.000591  3.9849  0.001  -0.129166  0.000831  4.003846  0.001  -0.080286  -0.117228  0.000387  3.973338  0.001
C  C36  1  0.79467276  0.64332222  0.61879592  1  -0.040307  0.012078  3.659955  0.014  -0.066195  0.003817  3.909846  0.004  -0.059872  0.002581  3.923777  0.003  -0.059374  -0.071029  0.004951  3.901588  0.005
C  C37  1  0.56275971  0.64310013  0.88130270  1  -0.040377  0.011426  3.661288  0.013  -0.065985  0.003568  3.91026  0.004  -0.059851  0.002438  3.924392  0.003  -0.059249  -0.071238  0.00495  3.902391  0.005
C  C38  1  0.20531873  0.35666876  0.38120180  1  -0.040525  -0.012045  3.659885  -0.014  -0.066424  -0.003818  3.909756  -0.004  -0.060102  -0.002581  3.923689  -0.003  -0.059496  -0.071252  -0.004952  3.901496  -0.005
C  C39  1  0.43722599  0.35691156  0.11869141  1  -0.0404  -0.011398  3.661525  -0.013  -0.066033  -0.003568  3.910517  -0.004  -0.059897  -0.002434  3.924647  -0.003  -0.059312  -0.071285  -0.004948  3.90265  -0.005
C  C40  1  0.98110107  0.65191355  0.68403877  1  0.030556  -0.001971  3.794252  -0.003  0.049769  -0.000177  4.019675  -0.001  0.045725  -0.000333  4.043958  -0.001  0.003251  0.052452  -4.6e-05  4.003955  -0.001
C  C41  1  0.36774649  0.65178509  0.81601541  1  0.029346  -0.001907  3.795736  -0.003  0.04845  -0.000183  4.021396  -0.001  0.04441  -0.000318  4.04564  -0.001  0.002218  0.051035  -4.3e-05  4.005452  -0.001
C  C42  1  0.01890126  0.34807121  0.31595715  1  0.030498  0.001959  3.794016  0.003  0.04969  0.000177  4.019494  0.001  0.045644  0.000333  4.04378  0.001  0.003268  0.052378  4.6e-05  4.003765  0.001
C  C43  1  0.63223705  0.34823386  0.18397600  1  0.029391  0.001897  3.795712  0.003  0.048412  0.000182  4.021445  0.001  0.044365  0.000314  4.045685  0.001  0.002209  0.051006  4.2e-05  4.00551  0.001
C  C44  1  0.14210566  0.52581544  0.71707960  1  0.116338  0.005857  3.765212  0.007  0.111023  0.002282  4.002824  0.003  0.117863  0.001655  4.021677  0.002  0.11335  0.105917  0.00287  3.990899  0.003
C  C45  1  0.33272257  0.52577717  0.78287290  1  0.118617  0.006177  3.76703  0.007  0.113079  0.00249  4.004782  0.003  0.120038  0.001771  4.023596  0.002  0.114324  0.108597  0.002863  3.992486  0.003
C  C46  1  0.85788565  0.47417865  0.28291272  1  0.116295  -0.005853  3.764924  -0.007  0.110985  -0.002283  4.002562  -0.003  0.117824  -0.001656  4.02141  -0.002  0.113312  0.105884  -0.002872  3.990642  -0.003
C  C47  1  0.66726973  0.47422107  0.21711762  1  0.118643  -0.006169  3.767586  -0.007  0.113169  -0.002492  4.005311  -0.003  0.120146  -0.001763  4.0241  -0.002  0.114325  0.108661  -0.002861  3.993063  -0.003
C  C48  1  0.01817609  0.77853131  0.71863531  1  -0.09222  -0.000313  3.720511  0.0  -0.118211  -7e-05  3.983566  0.0  -0.121195  -6.6e-05  4.005152  0.0  -0.076054  -0.11689  -9.9e-05  3.970357  0.0
C  C49  1  0.20423098  0.77846779  0.78141094  1  -0.094879  -0.000737  3.720603  -0.001  -0.121305  -0.000173  3.984572  0.0  -0.124255  -0.000142  4.006013  0.0  -0.076968  -0.119506  -0.0001  3.971149  0.0
C  C50  1  0.98181599  0.22146174  0.28136421  1  -0.091977  0.000315  3.720859  0.0  -0.117912  7e-05  3.983886  0.0  -0.120891  6.5e-05  4.005469  0.0  -0.075945  -0.116572  9.9e-05  3.970676  0.0
C  C51  1  0.79576006  0.22154287  0.21858768  1  -0.09501  0.000734  3.720226  0.001  -0.12133  0.000175  3.984213  0.0  -0.124283  0.000143  4.005662  0.0  -0.076928  -0.119529  0.000101  3.97078  0.0
N  N52  1  0.18517427  0.21996885  0.91021135  1  -0.398369  -0.021117  2.942752  -0.028  -0.371358  -0.020857  3.233106  -0.026  -0.388489  -0.016287  3.246127  -0.02  -0.346495  -0.358203  -0.02546  3.222729  -0.032
N  N53  1  0.59521863  0.22007967  0.58934485  1  -0.397991  -0.020937  2.939691  -0.028  -0.371176  -0.020823  3.230311  -0.026  -0.388342  -0.016241  3.243338  -0.02  -0.345638  -0.357463  -0.025363  3.219471  -0.032
N  N54  1  0.81482622  0.78002938  0.08979087  1  -0.39826  0.021095  2.942176  0.028  -0.371255  0.020847  3.232519  0.026  -0.388395  0.016272  3.245539  0.02  -0.346327  -0.358102  0.025449  3.222143  0.032
N  N55  1  0.40480968  0.77991235  0.41065109  1  -0.397922  0.020924  2.939791  0.028  -0.371086  0.020826  3.23034  0.026  -0.388256  0.016233  3.243365  0.02  -0.345578  -0.35737  0.025363  3.219498  0.032
N  N56  1  0.26695590  0.11785967  0.67022469  1  -0.348209  -0.003921  3.24637  -0.007  -0.313858  -0.000273  3.553535  0.0  -0.336112  -0.000211  3.565231  0.0  -0.371535  -0.300456  -0.001017  3.545346  -0.001
N  N57  1  0.61550646  0.11774211  0.82952083  1  -0.349029  -0.004186  3.246315  -0.007  -0.314491  -0.000408  3.55345  0.0  -0.336667  -0.000283  3.564996  0.0  -0.371844  -0.300621  -0.001015  3.545239  -0.001
N  N58  1  0.73306667  0.88213234  0.32978565  1  -0.348193  0.003911  3.246225  0.007  -0.313829  0.000276  3.553347  0.0  -0.33609  0.000196  3.565041  0.0  -0.371546  -0.300419  0.001018  3.545147  0.001
N  N59  1  0.38450468  0.88226337  0.17048861  1  -0.348943  0.004183  3.245996  0.007  -0.3144  0.00041  3.553121  0.0  -0.336579  0.000283  3.564659  0.0  -0.371829  -0.300512  0.001015  3.544899  0.001
N  N60  1  0.12760605  0.39786447  0.68941660  1  -0.26507  0.007746  3.343377  0.01  -0.228471  0.003407  3.632232  0.005  -0.254238  0.002726  3.649322  0.005  -0.318473  -0.212634  0.003348  3.620685  0.005
N  N61  1  0.47511206  0.39775618  0.81042618  1  -0.266578  0.007939  3.34532  0.01  -0.230057  0.003477  3.634926  0.005  -0.255748  0.002788  3.651963  0.005  -0.318514  -0.213986  0.003343  3.623431  0.005
N  N62  1  0.87239854  0.60213480  0.31058383  1  -0.265145  -0.007764  3.342911  -0.01  -0.228589  -0.003408  3.631819  -0.005  -0.254361  -0.002726  3.648908  -0.005  -0.318538  -0.212748  -0.003348  3.620261  -0.005
N  N63  1  0.52489597  0.60223895  0.18956885  1  -0.266676  -0.007949  3.34593  -0.01  -0.230188  -0.003476  3.63552  -0.005  -0.255897  -0.002793  3.652558  -0.005  -0.318594  -0.214107  -0.003342  3.624032  -0.005
