# generated using pymatgen
data_Ag2H8C8S(NO)4
_symmetry_space_group_name_H-M   'P 1'
_cell_length_a   7.18679958
_cell_length_b   7.18685858
_cell_length_c   12.82489795
_cell_angle_alpha   78.46016168
_cell_angle_beta   78.46194068
_cell_angle_gamma   62.07572836
_symmetry_Int_Tables_number   1
_chemical_formula_structural   Ag2H8C8S(NO)4
_chemical_formula_sum   'Ag4 H16 C16 S2 N8 O8'
_cell_volume   569.11264852
_cell_formula_units_Z   2
loop_
 _symmetry_equiv_pos_site_id
 _symmetry_equiv_pos_as_xyz
  1  'x, y, z'
loop_
 _atom_site_type_symbol
 _atom_site_label
 _atom_site_symmetry_multiplicity
 _atom_site_fract_x
 _atom_site_fract_y
 _atom_site_fract_z
 _atom_site_occupancy
 _atom_site_pbe_bader_spin_density
 _atom_site_pbe_cm5_charge
 _atom_site_pbe_ddec_charge
 _atom_site_pbe_ddec_spin_density
 _atom_site_pbe_ddec_sum_bond_order
 _atom_site_pbe_magmom
Ag  Ag0  1  0.91470956  0.22907926  0.96552597  1  0  0.476992  0.369263  0  1.983673  0
Ag  Ag1  1  0.77090080  0.08533564  0.53444455  1  0  0.477027  0.369201  0  1.983848  0
Ag  Ag2  1  0.08530544  0.77092125  0.03446872  1  0  0.477013  0.369246  0  1.983799  0
Ag  Ag3  1  0.22906453  0.91468127  0.46555346  1  0  0.477042  0.36926  0  1.983849  0
H  H4  1  0.13788838  0.32532759  0.11864384  1  0  0.121007  0.109086  0  1.034301  0
H  H5  1  0.67458383  0.86219281  0.38133496  1  0  0.121017  0.109229  0  1.034063  0
H  H6  1  0.86214188  0.67463742  0.88136223  1  0  0.121035  0.109167  0  1.034345  0
H  H7  1  0.32539492  0.13780849  0.61866717  1  0  0.120979  0.109226  0  1.03405  0
H  H8  1  0.49813601  0.32001137  0.11809739  1  0  0.12403  0.113966  0  1.004841  0
H  H9  1  0.67993635  0.50192654  0.38187476  1  0  0.124056  0.113977  0  1.004949  0
H  H10  1  0.50189512  0.67995245  0.88189545  1  0  0.123987  0.113971  0  1.004654  0
H  H11  1  0.32006781  0.49805730  0.61813281  1  0  0.124054  0.114003  0  1.004828  0
H  H12  1  0.67478005  0.16377772  0.80634371  1  0  0.119041  0.102645  0  1.048448  0
H  H13  1  0.83622662  0.32525319  0.69362078  1  0  0.119045  0.102626  0  1.048352  0
H  H14  1  0.32522338  0.83622955  0.19363508  1  0  0.119056  0.102627  0  1.04837  0
H  H15  1  0.16379147  0.67475382  0.30638855  1  0  0.118997  0.102484  0  1.048473  0
H  H16  1  0.31312714  0.18218606  0.80602518  1  0  0.123751  0.116429  0  1.010456  0
H  H17  1  0.81781800  0.68689379  0.69393874  1  0  0.123796  0.116448  0  1.010425  0
H  H18  1  0.68687055  0.81781376  0.19397989  1  0  0.123768  0.116461  0  1.010294  0
H  H19  1  0.18220511  0.31310857  0.30605262  1  0  0.123768  0.116375  0  1.010224  0
C  C20  1  0.25573611  0.30058026  0.04762050  1  0  0.041334  0.019673  0  3.929551  0
C  C21  1  0.69935510  0.74432922  0.45235456  1  0  0.041207  0.019287  0  3.929806  0
C  C22  1  0.74429175  0.69938823  0.95238155  1  0  0.041223  0.019406  0  3.930004  0
C  C23  1  0.30064013  0.25567401  0.54764885  1  0  0.041214  0.019256  0  3.93027  0
C  C24  1  0.45269070  0.29435538  0.04785843  1  0  0.047486  0.033786  0  3.910965  0
C  C25  1  0.70560072  0.54737923  0.45211208  1  0  0.047535  0.033955  0  3.91109  0
C  C26  1  0.54735062  0.70562443  0.95214506  1  0  0.047569  0.033889  0  3.910715  0
C  C27  1  0.29441168  0.45259766  0.54788756  1  0  0.047544  0.033887  0  3.911267  0
C  C28  1  0.55113891  0.21189337  0.87427372  1  0  0.054496  0.052083  0  3.866676  0
C  C29  1  0.78809802  0.44890499  0.62569300  1  0  0.054578  0.052176  0  3.86658  0
C  C30  1  0.44888656  0.78810101  0.12572288  1  0  0.054479  0.052281  0  3.866769  0
C  C31  1  0.21189806  0.55109494  0.37431611  1  0  0.054475  0.052254  0  3.86715  0
C  C32  1  0.35430673  0.21952493  0.87390369  1  0  0.058967  0.070625  0  3.85135  0
C  C33  1  0.78044887  0.64574651  0.62607222  1  0  0.05887  0.070567  0  3.851564  0
C  C34  1  0.64568669  0.78046238  0.12609369  1  0  0.058839  0.070358  0  3.851877  0
C  C35  1  0.21954218  0.35429599  0.37393550  1  0  0.058939  0.070631  0  3.851261  0
S  S36  1  0.87110003  0.12889546  0.25000053  1  0  0.520251  1.393349  0  6.452005  0
S  S37  1  0.12885942  0.87114489  0.74999183  1  0  0.520097  1.393282  0  6.452193  0
N  N38  1  0.20835105  0.25989417  0.96086485  1  0  -0.32233  -0.141321  0  3.538574  0
N  N39  1  0.74007355  0.79168136  0.53911138  1  0  -0.322312  -0.141163  0  3.538991  0
N  N40  1  0.79166373  0.74008370  0.03913914  1  0  -0.322268  -0.14111  0  3.538469  0
N  N41  1  0.25994311  0.20829907  0.46089684  1  0  -0.322326  -0.141191  0  3.53848  0
N  N42  1  0.60064610  0.24820406  0.96153517  1  0  -0.325954  -0.159369  0  3.574573  0
N  N43  1  0.75178689  0.39938662  0.53843562  1  0  -0.326006  -0.159487  0  3.574603  0
N  N44  1  0.39935639  0.75179089  0.03845976  1  0  -0.325921  -0.159448  0  3.574115  0
N  N45  1  0.24822389  0.60060381  0.46156752  1  0  -0.325974  -0.159452  0  3.574305  0
O  O46  1  0.81296128  0.30460042  0.15954976  1  0  -0.389517  -0.680987  0  2.262515  0
O  O47  1  0.69532804  0.18708744  0.34042034  1  0  -0.3895  -0.680992  0  2.262374  0
O  O48  1  0.18699155  0.69542439  0.84044715  1  0  -0.389454  -0.681053  0  2.262334  0
O  O49  1  0.30460290  0.81293042  0.65957164  1  0  -0.389425  -0.68091  0  2.262564  0
O  O50  1  0.90524857  0.92662671  0.21517049  1  0  -0.389391  -0.702465  0  2.262263  0
O  O51  1  0.07331865  0.09479478  0.28487420  1  0  -0.389388  -0.702516  0  2.262232  0
O  O52  1  0.09477392  0.07338607  0.78482457  1  0  -0.389404  -0.70251  0  2.262365  0
O  O53  1  0.92661106  0.90527767  0.71514132  1  0  -0.389391  -0.702459  0  2.26244  0
