# generated using pymatgen
data_MnH8C10(N4O)2
_symmetry_space_group_name_H-M   'P 1'
_cell_length_a   7.20171752
_cell_length_b   7.48419818
_cell_length_c   12.77461240
_cell_angle_alpha   93.44813341
_cell_angle_beta   95.23993237
_cell_angle_gamma   100.36224618
_symmetry_Int_Tables_number   1
_chemical_formula_structural   MnH8C10(N4O)2
_chemical_formula_sum   'Mn2 H16 C20 N16 O4'
_cell_volume   672.41565916
_cell_formula_units_Z   2
loop_
 _symmetry_equiv_pos_site_id
 _symmetry_equiv_pos_as_xyz
  1  'x, y, z'
loop_
 _atom_site_type_symbol
 _atom_site_label
 _atom_site_symmetry_multiplicity
 _atom_site_fract_x
 _atom_site_fract_y
 _atom_site_fract_z
 _atom_site_occupancy
 _atom_site_pbe_cm5_charge
 _atom_site_pbe_ddec_charge
 _atom_site_pbe_ddec_spin_density
 _atom_site_pbe_ddec_sum_bond_order
 _atom_site_pbe_magmom
Mn  Mn0  1  0.50000172  0.99999469  0.49999989  1  0.680851  1.023117  -4.485329  2.675421  -4.295
Mn  Mn1  1  0.00000636  0.50000105  0.00000174  1  0.771674  0.884554  -1.309776  3.559679  -1.265
H  H2  1  0.48693107  0.74403903  0.70334871  1  0.14056  0.135093  -4.6e-05  1.003056  0.0
H  H3  1  0.25740449  0.52138284  0.79816914  1  0.143292  0.139315  0.000548  0.994396  0.0
H  H4  1  0.51306297  0.25596462  0.29664685  1  0.140545  0.135115  -4.6e-05  1.002978  0.0
H  H5  1  0.74259318  0.47861802  0.20182805  1  0.143278  0.139337  0.000547  0.994407  0.0
H  H6  1  0.22592653  0.24500469  0.67446253  1  0.101768  0.14587  0.00014  1.014881  0.0
H  H7  1  0.75205947  0.78655912  0.83735882  1  0.102322  0.145619  2.2e-05  1.021932  0.0
H  H8  1  0.77406308  0.75499759  0.32553589  1  0.101735  0.145851  0.00014  1.014867  0.0
H  H9  1  0.24793990  0.21343620  0.16264293  1  0.102325  0.14561  2.2e-05  1.021837  0.0
H  H10  1  0.03287845  0.22624314  0.75589693  1  0.106091  0.157122  -0.000358  1.003011  0.0
H  H11  1  0.76677646  0.97151769  0.75289724  1  0.10567  0.156842  0.001063  1.009386  0.001
H  H12  1  0.96711506  0.77375772  0.24410320  1  0.106034  0.157091  -0.000358  1.002948  0.0
H  H13  1  0.23321984  0.02848312  0.24710458  1  0.105671  0.156831  0.001062  1.009427  0.001
H  H14  1  0.99368095  0.13167398  0.62340853  1  0.107216  0.16606  -0.000103  0.994576  -0.001
H  H15  1  0.87376746  0.00903945  0.88487811  1  0.107854  0.165028  0.001438  0.981068  0.001
H  H16  1  0.00631090  0.86832550  0.37659302  1  0.107253  0.166112  -0.000104  0.994509  -0.001
H  H17  1  0.12623024  0.99095451  0.11512350  1  0.107874  0.165026  0.001439  0.981042  0.001
C  C18  1  0.35386359  0.77213634  0.72734266  1  0.04177  -0.075055  -0.012892  3.928766  -0.013
C  C19  1  0.23170395  0.65368803  0.77714804  1  0.045656  -0.068209  0.025561  3.932434  0.015
C  C20  1  0.64613267  0.22786455  0.27265290  1  0.041777  -0.075033  -0.012891  3.9289  -0.013
C  C21  1  0.76829400  0.34631417  0.22285078  1  0.04569  -0.06825  0.025563  3.932529  0.015
C  C22  1  0.14286571  0.98237832  0.72754542  1  0.123636  0.122427  -0.01345  3.865552  -0.014
C  C23  1  0.02075115  0.86353720  0.78121294  1  0.12623  0.1292  0.025981  3.859342  0.016
C  C24  1  0.85712947  0.01762389  0.27245484  1  0.123704  0.122578  -0.013453  3.865479  -0.014
C  C25  1  0.97924736  0.13646772  0.21878603  1  0.12616  0.129089  0.02598  3.859457  0.016
C  C26  1  0.09707407  0.15762154  0.69418402  1  -0.236034  -0.440483  -0.000447  3.924243  0.0
C  C27  1  0.84201620  0.90964991  0.81549581  1  -0.235476  -0.442203  0.000158  3.922171  -0.001
C  C28  1  0.90291971  0.84238070  0.30581461  1  -0.235996  -0.440522  -0.000447  3.92417  0.0
C  C29  1  0.15798597  0.09035217  0.18450869  1  -0.235498  -0.442183  0.000158  3.922144  -0.001
C  C30  1  0.76464371  0.69958855  0.55967630  1  0.31548  0.453115  -0.024467  4.239625  -0.024
C  C31  1  0.29264163  0.26045850  0.94793961  1  0.314401  0.436469  0.000305  4.22592  0.0
C  C32  1  0.23536536  0.30040676  0.44031966  1  0.315599  0.453267  -0.024462  4.239598  -0.024
C  C33  1  0.70736719  0.73954220  0.05206203  1  0.314435  0.436463  0.000306  4.225925  0.0
C  C34  1  0.77242238  0.39481130  0.54446941  1  0.322547  0.470515  -0.030708  4.23697  -0.03
C  C35  1  0.60532430  0.25316502  0.95605082  1  0.312035  0.44631  0.011167  4.208404  0.008
C  C36  1  0.22757948  0.60518265  0.45553084  1  0.322666  0.47059  -0.030719  4.236751  -0.03
C  C37  1  0.39468175  0.74683568  0.04395226  1  0.312131  0.446508  0.01117  4.208127  0.008
N  N38  1  0.31248067  0.93740272  0.70351518  1  -0.103317  0.279515  0.034916  3.924823  0.027
N  N39  1  0.06572511  0.69776860  0.80419964  1  -0.106445  0.264664  -0.001576  3.906959  -0.003
N  N40  1  0.68751479  0.06260086  0.29648436  1  -0.103282  0.279434  0.034915  3.925009  0.027
N  N41  1  0.93427676  0.30223215  0.19580245  1  -0.106443  0.264729  -0.001577  3.907014  -0.003
N  N42  1  0.70117359  0.83390809  0.55390618  1  -0.370831  -0.552817  -0.034633  3.156518  -0.012
N  N43  1  0.15930864  0.33085139  0.95388303  1  -0.39875  -0.516775  0.00365  3.383178  0.008
N  N44  1  0.29883604  0.16608993  0.44609070  1  -0.370995  -0.553006  -0.034638  3.156479  -0.012
N  N45  1  0.84070074  0.66915201  0.04612032  1  -0.398844  -0.516838  0.00365  3.38311  0.008
N  N46  1  0.84845301  0.56255825  0.57155435  1  -0.303245  -0.380596  -0.015833  3.554904  -0.013
N  N47  1  0.42902929  0.17142499  0.93690834  1  -0.310061  -0.392079  -0.015119  3.508123  -0.017
N  N48  1  0.15155382  0.43743301  0.42843977  1  -0.303251  -0.380563  -0.015834  3.554851  -0.013
N  N49  1  0.57098092  0.82857570  0.06309337  1  -0.310052  -0.392117  -0.015118  3.508081  -0.017
N  N50  1  0.71716862  0.23771622  0.52220633  1  -0.379827  -0.557991  -0.032736  3.165101  -0.007
N  N51  1  0.76774526  0.31846651  0.97311631  1  -0.398987  -0.509198  0.001139  3.388828  0.001
N  N52  1  0.28283133  0.76228177  0.47779947  1  -0.379931  -0.558109  -0.032732  3.165033  -0.007
N  N53  1  0.23225968  0.68153557  0.02688676  1  -0.399035  -0.509303  0.00114  3.388775  0.001
O  O54  1  0.43560594  0.05091440  0.65854339  1  -0.205884  -0.439208  0.002293  2.109528  0.013
O  O55  1  0.94560486  0.57723559  0.84795458  1  -0.193922  -0.392365  -0.028455  2.126698  -0.025
O  O56  1  0.56438922  0.94908785  0.34145374  1  -0.205889  -0.439179  0.002294  2.109588  0.013
O  O57  1  0.05439897  0.42276786  0.15204850  1  -0.193932  -0.392384  -0.028456  2.126662  -0.025
