# generated using pymatgen
data_CdH20C20N4(ClO5)2
_symmetry_space_group_name_H-M   'P 1'
_cell_length_a   7.62159873
_cell_length_b   8.64489415
_cell_length_c   10.10932587
_cell_angle_alpha   107.72092964
_cell_angle_beta   92.77806234
_cell_angle_gamma   106.51557842
_symmetry_Int_Tables_number   1
_chemical_formula_structural   CdH20C20N4(ClO5)2
_chemical_formula_sum   'Cd1 H20 C20 N4 Cl2 O10'
_cell_volume   601.61757118
_cell_formula_units_Z   1
loop_
 _symmetry_equiv_pos_site_id
 _symmetry_equiv_pos_as_xyz
  1  'x, y, z'
loop_
 _atom_site_type_symbol
 _atom_site_label
 _atom_site_symmetry_multiplicity
 _atom_site_fract_x
 _atom_site_fract_y
 _atom_site_fract_z
 _atom_site_occupancy
 _atom_site_hle17_bader_spin_density
 _atom_site_hle17_ddec_charge
 _atom_site_hle17_ddec_spin_density
 _atom_site_hle17_ddec_sum_bond_order
 _atom_site_hle17_magmom
 _atom_site_hse06_10hf_bader_spin_density
 _atom_site_hse06_10hf_ddec_charge
 _atom_site_hse06_10hf_ddec_spin_density
 _atom_site_hse06_10hf_ddec_sum_bond_order
 _atom_site_hse06_10hf_magmom
 _atom_site_hse06_bader_spin_density
 _atom_site_hse06_ddec_charge
 _atom_site_hse06_ddec_spin_density
 _atom_site_hse06_ddec_sum_bond_order
 _atom_site_hse06_magmom
 _atom_site_pbe_bader_spin_density
 _atom_site_pbe_cm5_charge
 _atom_site_pbe_ddec_charge
 _atom_site_pbe_ddec_spin_density
 _atom_site_pbe_ddec_sum_bond_order
 _atom_site_pbe_magmom
Cd  Cd0  1  0.99999762  0.99999839  0.99999954  1  0  1.177167  0  1.677792  0  0  0.994445  0  2.12871  0  0  1.044883  0  2.077671  0  0  0.78905  0.958145  0  2.164393  0
H  H1  1  0.90009662  0.94982797  0.68470140  1  0  0.081935  0  0.956377  0  0  0.089269  0  1.02211  0  0  0.091451  0  1.020304  0  0  0.115969  0.087654  0  1.023472  0
H  H2  1  0.09989536  0.05016934  0.31529659  1  0  0.081923  0  0.95638  0  0  0.089269  0  1.022093  0  0  0.091453  0  1.020285  0  0  0.115963  0.087651  0  1.023458  0
H  H3  1  0.68802883  0.75527227  0.46886991  1  0  0.118435  0  0.975224  0  0  0.12832  0  1.03468  0  0  0.131584  0  1.033371  0  0  0.108314  0.125985  0  1.035963  0
H  H4  1  0.31196210  0.24472251  0.53113035  1  0  0.118364  0  0.975258  0  0  0.128283  0  1.034681  0  0  0.131547  0  1.033368  0  0  0.108307  0.125951  0  1.03596  0
H  H5  1  0.48277776  0.40994965  0.70138192  1  0  0.1096  0  0.983037  0  0  0.115141  0  1.050873  0  0  0.118177  0  1.049933  0  0  0.106191  0.112903  0  1.051694  0
H  H6  1  0.51721380  0.59005030  0.29862066  1  0  0.109569  0  0.983019  0  0  0.115095  0  1.050881  0  0  0.118149  0  1.049912  0  0  0.106196  0.112859  0  1.0517  0
H  H7  1  0.69843499  0.62160163  0.90710216  1  0  0.091048  0  0.932544  0  0  0.099292  0  0.995984  0  0  0.101472  0  0.993985  0  0  0.118488  0.097647  0  0.997568  0
H  H8  1  0.30156393  0.37839671  0.09289743  1  0  0.091057  0  0.932532  0  0  0.099302  0  0.995972  0  0  0.101484  0  0.993972  0  0  0.118477  0.097657  0  0.997557  0
H  H9  1  0.28861829  0.86444408  0.02916950  1  0  0.421192  0  0.854553  0  0  0.390897  0  0.930319  0  0  0.399906  0  0.917142  0  0  0.295212  0.384422  0  0.939815  0
H  H10  1  0.71138219  0.13555808  0.97082718  1  0  0.4212  0  0.854557  0  0  0.390903  0  0.930314  0  0  0.399913  0  0.917137  0  0  0.295209  0.384428  0  0.939809  0
H  H11  1  0.13635550  0.77792663  0.11261982  1  0  0.378885  0  0.949092  0  0  0.332419  0  1.037949  0  0  0.344562  0  1.021104  0  0  0.272961  0.323969  0  1.049575  0
H  H12  1  0.86364927  0.22207666  0.88738034  1  0  0.378903  0  0.949091  0  0  0.332435  0  1.037947  0  0  0.344577  0  1.021102  0  0  0.272969  0.323981  0  1.049579  0
H  H13  1  0.87606228  0.49658071  0.10739172  1  0  0.087856  0  0.926921  0  0  0.100072  0  0.98252  0  0  0.102561  0  0.980447  0  0  0.118049  0.098348  0  0.983617  0
H  H14  1  0.12395131  0.50342481  0.89260649  1  0  0.087824  0  0.92683  0  0  0.100091  0  0.982396  0  0  0.102582  0  0.980318  0  0  0.118053  0.098368  0  0.98349  0
H  H15  1  0.80528137  0.34681871  0.27808946  1  0  0.11275  0  0.956388  0  0  0.122699  0  1.017936  0  0  0.125755  0  1.016947  0  0  0.106885  0.120519  0  1.018713  0
H  H16  1  0.19472644  0.65318184  0.72190522  1  0  0.112682  0  0.956344  0  0  0.122659  0  1.017857  0  0  0.12572  0  1.016852  0  0  0.106892  0.120485  0  1.018635  0
H  H17  1  0.24512334  0.76568270  0.57570415  1  0  0.108163  0  0.970446  0  0  0.115048  0  1.03678  0  0  0.118164  0  1.035668  0  0  0.103714  0.112846  0  1.037657  0
H  H18  1  0.75487749  0.23432076  0.42429782  1  0  0.108148  0  0.970522  0  0  0.115034  0  1.036847  0  0  0.118151  0  1.035739  0  0  0.103711  0.11284  0  1.037708  0
H  H19  1  0.30129298  0.89259301  0.38959437  1  0  0.082732  0  0.944959  0  0  0.090845  0  1.009853  0  0  0.09318  0  1.007963  0  0  0.11253  0.089048  0  1.011481  0
H  H20  1  0.69871321  0.10741413  0.61040881  1  0  0.082633  0  0.945062  0  0  0.090779  0  1.009933  0  0  0.093112  0  1.008042  0  0  0.11251  0.08898  0  1.011565  0
C  C21  1  0.80298488  0.82918311  0.68352258  1  0  0.12959  0  3.718326  0  0  0.099003  0  3.970211  0  0  0.105862  0  3.98919  0  0  0.043849  0.094559  0  3.957264  0
C  C22  1  0.19700832  0.17081417  0.31647843  1  0  0.129567  0  3.718323  0  0  0.098976  0  3.970207  0  0  0.105829  0  3.989187  0  0  0.043834  0.094535  0  3.957255  0
C  C23  1  0.68409010  0.71791817  0.56246277  1  0  -0.148078  0  3.682095  0  0  -0.166792  0  3.927445  0  0  -0.174074  0  3.948408  0  0  -0.079409  -0.162198  0  3.913572  0
C  C24  1  0.31590007  0.28207792  0.43753580  1  0  -0.147895  0  3.682075  0  0  -0.166632  0  3.9274  0  0  -0.173908  0  3.948361  0  0  -0.079326  -0.162038  0  3.913523  0
C  C25  1  0.56317259  0.56197527  0.56373650  1  0  0.092433  0  3.73993  0  0  0.10452  0  3.9696  0  0  0.108245  0  3.990891  0  0  0.014208  0.102231  0  3.954841  0
C  C26  1  0.43681980  0.43802334  0.43626480  1  0  0.092383  0  3.739884  0  0  0.104478  0  3.969552  0  0  0.108198  0  3.990853  0  0  0.014274  0.102184  0  3.9548  0
C  C27  1  0.56956516  0.52819683  0.69101773  1  0  -0.143995  0  3.680552  0  0  -0.162002  0  3.928445  0  0  -0.169396  0  3.950183  0  0  -0.076787  -0.157013  0  3.913763  0
C  C28  1  0.43042758  0.47179917  0.30898194  1  0  -0.14391  0  3.680479  0  0  -0.161893  0  3.928356  0  0  -0.169293  0  3.950089  0  0  -0.076813  -0.156904  0  3.913673  0
C  C29  1  0.69252686  0.64626383  0.80776860  1  0  0.144635  0  3.691098  0  0  0.111309  0  3.945013  0  0  0.118518  0  3.96397  0  0  0.049963  0.10651  0  3.932147  0
C  C30  1  0.30746973  0.35373202  0.19223223  1  0  0.144511  0  3.691115  0  0  0.111186  0  3.945025  0  0  0.118392  0  3.963987  0  0  0.049944  0.106386  0  3.932163  0
C  C31  1  0.95491852  0.55303034  0.21282283  1  0  0.135212  0  3.702043  0  0  0.105132  0  3.954826  0  0  0.111217  0  3.972108  0  0  0.048714  0.101378  0  3.942432  0
C  C32  1  0.04509067  0.44697407  0.78717585  1  0  0.13533  0  3.701772  0  0  0.105185  0  3.954581  0  0  0.111269  0  3.971864  0  0  0.048755  0.101433  0  3.942185  0
C  C33  1  0.91504521  0.46919284  0.31063873  1  0  -0.15005  0  3.685915  0  0  -0.170026  0  3.93771  0  0  -0.177121  0  3.959507  0  0  -0.081571  -0.165382  0  3.922759  0
C  C34  1  0.08495961  0.53081044  0.68935944  1  0  -0.150027  0  3.685726  0  0  -0.170003  0  3.937615  0  0  -0.177093  0  3.959414  0  0  -0.08157  -0.165371  0  3.922671  0
C  C35  1  0.01804766  0.54218777  0.44604143  1  0  0.082343  0  3.760371  0  0  0.093715  0  3.992677  0  0  0.096869  0  4.015679  0  0  0.007882  0.091786  0  3.976702  0
C  C36  1  0.98195581  0.45781557  0.55395867  1  0  0.08235  0  3.760286  0  0  0.093588  0  3.992726  0  0  0.096741  0  4.015729  0  0  0.007841  0.091662  0  3.976751  0
C  C37  1  0.15822492  0.69905039  0.47403479  1  0  -0.156601  0  3.704097  0  0  -0.174637  0  3.953951  0  0  -0.181995  0  3.976081  0  0  -0.084942  -0.16969  0  3.938713  0
C  C38  1  0.84177643  0.30095435  0.52596654  1  0  -0.156651  0  3.704068  0  0  -0.174644  0  3.953929  0  0  -0.182003  0  3.976058  0  0  -0.084926  -0.169698  0  3.938697  0
C  C39  1  0.18991375  0.77300662  0.36960954  1  0  0.125347  0  3.71789  0  0  0.093662  0  3.974025  0  0  0.099564  0  3.992124  0  0  0.042797  0.089935  0  3.961572  0
C  C40  1  0.81009068  0.22699929  0.63039224  1  0  0.125518  0  3.717916  0  0  0.093791  0  3.974015  0  0  0.099699  0  3.992114  0  0  0.042876  0.090061  0  3.961569  0
N  N41  1  0.80802305  0.79484032  0.80459637  1  0  -0.349433  0  3.281452  0  0  -0.267415  0  3.544387  0  0  -0.288497  0  3.564605  0  0  -0.333673  -0.252886  0  3.530403  0
N  N42  1  0.19197411  0.20515679  0.19540183  1  0  -0.349393  0  3.281393  0  0  -0.267376  0  3.544318  0  0  -0.28846  0  3.564541  0  0  -0.333681  -0.252849  0  3.530335  0
N  N43  1  0.09068902  0.70207638  0.24048041  1  0  -0.307163  0  3.197736  0  0  -0.24095  0  3.444214  0  0  -0.255772  0  3.46087  0  0  -0.307666  -0.230735  0  3.432481  0
N  N44  1  0.90931719  0.29793076  0.75952178  1  0  -0.307256  0  3.197671  0  0  -0.240994  0  3.444142  0  0  -0.255819  0  3.4608  0  0  -0.307744  -0.230779  0  3.432407  0
Cl  Cl45  1  0.37588702  0.11941346  0.81392007  1  0  1.38483  0  6.196819  0  0  1.321239  0  6.763127  0  0  1.373779  0  6.7396  0  0  0.729612  1.285097  0  6.77793  0
Cl  Cl46  1  0.62411478  0.88058217  0.18607999  1  0  1.384769  0  6.196712  0  0  1.321186  0  6.763007  0  0  1.373725  0  6.739485  0  0  0.729621  1.285061  0  6.777789  0
O  O47  1  0.15537167  0.81655891  0.02581720  1  0  -0.837152  0  1.931774  0  0  -0.774676  0  2.160586  0  0  -0.797679  0  2.128473  0  0  -0.587566  -0.758319  0  2.182567  0
O  O48  1  0.84462956  0.18344192  0.97418116  1  0  -0.8372  0  1.931806  0  0  -0.774735  0  2.160644  0  0  -0.797738  0  2.128529  0  0  -0.587584  -0.758366  0  2.182603  0
O  O49  1  0.18734361  0.11759056  0.84492017  1  0  -0.594963  0  1.934123  0  0  -0.554444  0  2.207653  0  0  -0.572709  0  2.190999  0  0  -0.326451  -0.541382  0  2.218663  0
O  O50  1  0.81265999  0.88240630  0.15507930  1  0  -0.594971  0  1.93406  0  0  -0.554444  0  2.207571  0  0  -0.572711  0  2.190916  0  0  -0.326477  -0.541386  0  2.218574  0
O  O51  1  0.41923754  0.97798612  0.84372859  1  0  -0.539457  0  1.825312  0  0  -0.508199  0  2.05985  0  0  -0.523621  0  2.046472  0  0  -0.310896  -0.497501  0  2.068962  0
O  O52  1  0.58076438  0.02201341  0.15627443  1  0  -0.539448  0  1.825391  0  0  -0.508221  0  2.059951  0  0  -0.523632  0  2.046562  0  0  -0.310888  -0.497529  0  2.069057  0
O  O53  1  0.50753334  0.28189961  0.90078320  1  0  -0.51811  0  1.836666  0  0  -0.489441  0  2.070217  0  0  -0.505365  0  2.058037  0  0  -0.300835  -0.478347  0  2.078202  0
O  O54  1  0.49246690  0.71809868  0.09921545  1  0  -0.5181  0  1.836625  0  0  -0.489407  0  2.070151  0  0  -0.505334  0  2.05797  0  0  -0.300829  -0.478322  0  2.078134  0
O  O55  1  0.37803457  0.09885298  0.66551556  1  0  -0.530541  0  1.868539  0  0  -0.501183  0  2.109837  0  0  -0.517049  0  2.097084  0  0  -0.300092  -0.490416  0  2.118556  0
O  O56  1  0.62196930  0.90114128  0.33448525  1  0  -0.53049  0  1.868421  0  0  -0.501152  0  2.109749  0  0  -0.517021  0  2.097  0  0  -0.300095  -0.490392  0  2.118465  0
