# generated using pymatgen
data_InH11C18O7
_symmetry_space_group_name_H-M   'P 1'
_cell_length_a   7.34145398
_cell_length_b   32.26324111
_cell_length_c   32.26321287
_cell_angle_alpha   120.00002746
_cell_angle_beta   90.00023356
_cell_angle_gamma   89.99988395
_symmetry_Int_Tables_number   1
_chemical_formula_structural   InH11C18O7
_chemical_formula_sum   'In6 H66 C108 O42'
_cell_volume   6618.02188940
_cell_formula_units_Z   6
loop_
 _symmetry_equiv_pos_site_id
 _symmetry_equiv_pos_as_xyz
  1  'x, y, z'
loop_
 _atom_site_type_symbol
 _atom_site_label
 _atom_site_symmetry_multiplicity
 _atom_site_fract_x
 _atom_site_fract_y
 _atom_site_fract_z
 _atom_site_occupancy
 _atom_site_pbe_bader_charge
 _atom_site_pbe_bader_spin_density
 _atom_site_pbe_cm5_charge
 _atom_site_pbe_ddec_charge
 _atom_site_pbe_ddec_spin_density
 _atom_site_pbe_ddec_sum_bond_order
 _atom_site_pbe_magmom
In  In0  1  0.00000049  0.49999993  0.00000004  1  1.976625  0  0.783921  1.584578  0  2.813458  0
In  In1  1  0.99999900  0.50000000  0.50000004  1  1.975104  0  0.783877  1.58451  0  2.813605  0
In  In2  1  0.00000041  0.00000002  0.50000020  1  1.976796  0  0.783842  1.584606  0  2.813519  0
In  In3  1  0.49999954  0.50000011  0.00000009  1  1.976733  0  0.783888  1.584771  0  2.813481  0
In  In4  1  0.49999995  0.50000013  0.50000030  1  1.974972  0  0.783833  1.584692  0  2.813524  0
In  In5  1  0.49999946  0.00000020  0.50000026  1  1.976639  0  0.783865  1.584519  0  2.813502  0
H  H6  1  0.74999880  0.43748438  0.99999633  1  0.637  0  0.33617  0.42826  0  0.850092  0
H  H7  1  0.74999975  0.56251391  0.56251386  1  0.620916  0  0.336149  0.428283  0  0.850085  0
H  H8  1  0.74999940  0.99999609  0.43748425  1  0.636997  0  0.336164  0.428254  0  0.850099  0
H  H9  1  0.24999974  0.56251575  0.00000378  1  0.636995  0  0.336167  0.428257  0  0.850095  0
H  H10  1  0.25000014  0.43748592  0.43748593  1  0.620909  0  0.33615  0.428282  0  0.850086  0
H  H11  1  0.25000049  0.00000386  0.56251604  1  0.636992  0  0.336164  0.428261  0  0.85009  0
H  H12  1  0.04260307  0.62424699  0.13514131  1  0.089068  0  0.108812  0.113264  0  0.99497  0
H  H13  1  0.04260574  0.51089388  0.37575297  1  0.088333  0  0.108803  0.113245  0  0.994995  0
H  H14  1  0.04260517  0.86485779  0.48910560  1  0.088789  0  0.108825  0.113287  0  0.99495  0
H  H15  1  0.54260706  0.37575253  0.86485799  1  0.091597  0  0.108817  0.113287  0  0.994907  0
H  H16  1  0.54260439  0.48910487  0.62424771  1  0.088752  0  0.108819  0.113282  0  0.994951  0
H  H17  1  0.54260359  0.13514137  0.51089405  1  0.090263  0  0.108818  0.113261  0  0.994987  0
H  H18  1  0.45739460  0.37575281  0.51089447  1  0.087209  0  0.10881  0.113279  0  0.994953  0
H  H19  1  0.45739455  0.48910561  0.86485739  1  0.088896  0  0.108811  0.113276  0  0.994955  0
H  H20  1  0.45739805  0.13514185  0.62424749  1  0.089099  0  0.108822  0.113287  0  0.994941  0
H  H21  1  0.95739643  0.62424812  0.48910627  1  0.087849  0  0.108819  0.113269  0  0.994989  0
H  H22  1  0.95739511  0.51089395  0.13514162  1  0.090263  0  0.108813  0.113274  0  0.994941  0
H  H23  1  0.95739433  0.86485779  0.37575268  1  0.087963  0  0.10882  0.113296  0  0.994902  0
H  H24  1  0.95739683  0.37575271  0.86485800  1  0.089079  0  0.108816  0.113262  0  0.994953  0
H  H25  1  0.95739552  0.48910620  0.62424780  1  0.087106  0  0.108812  0.113282  0  0.994955  0
H  H26  1  0.95739472  0.13514235  0.51089450  1  0.088791  0  0.108802  0.113229  0  0.994971  0
H  H27  1  0.45739284  0.62424663  0.13514186  1  0.091581  0  0.108811  0.113284  0  0.994909  0
H  H28  1  0.45739414  0.51089509  0.37575258  1  0.087506  0  0.108819  0.11327  0  0.994903  0
H  H29  1  0.45739630  0.86485815  0.48910544  1  0.090291  0  0.108822  0.113285  0  0.994962  0
H  H30  1  0.54260530  0.62424670  0.48910502  1  0.087228  0  0.108806  0.113272  0  0.994935  0
H  H31  1  0.54260534  0.51089519  0.13514267  1  0.088906  0  0.108809  0.113261  0  0.99495  0
H  H32  1  0.54260456  0.86485797  0.37575230  1  0.08908  0  0.108814  0.11326  0  0.994966  0
H  H33  1  0.04260347  0.37575237  0.51089348  1  0.087837  0  0.108818  0.113254  0  0.995004  0
H  H34  1  0.04260342  0.48910583  0.86485884  1  0.090262  0  0.108819  0.113283  0  0.994993  0
H  H35  1  0.04260692  0.13514185  0.62424730  1  0.087955  0  0.10881  0.113277  0  0.994912  0
H  H36  1  0.04242518  0.67998424  0.22451796  1  0.11447  0  0.106737  0.12506  0  1.027647  0
H  H37  1  0.04242801  0.54453336  0.32001519  1  0.122764  0  0.106724  0.12505  0  1.027643  0
H  H38  1  0.04242547  0.77548093  0.45546624  1  0.126277  0  0.106718  0.125044  0  1.027652  0
H  H39  1  0.54242534  0.32001479  0.77548120  1  0.114251  0  0.106728  0.125062  0  1.027637  0
H  H40  1  0.54242388  0.45546593  0.67998496  1  0.120811  0  0.106724  0.125056  0  1.027633  0
H  H41  1  0.54242778  0.22451805  0.54453359  1  0.126381  0  0.106719  0.125036  0  1.02767  0
H  H42  1  0.45757359  0.32001622  0.54453477  1  0.12165  0  0.106729  0.125069  0  1.027607  0
H  H43  1  0.45757506  0.45546575  0.77548032  1  0.12481  0  0.106728  0.125038  0  1.027661  0
H  H44  1  0.45757659  0.22451862  0.67998458  1  0.114092  0  0.106735  0.125068  0  1.027648  0
H  H45  1  0.95757295  0.67998516  0.45546677  1  0.121308  0  0.106725  0.125032  0  1.02766  0
H  H46  1  0.95757148  0.54453363  0.22451887  1  0.126852  0  0.106712  0.125034  0  1.027653  0
H  H47  1  0.95757403  0.77548090  0.32001510  1  0.114244  0  0.106726  0.12506  0  1.027633  0
H  H48  1  0.95757607  0.32001546  0.77548134  1  0.114469  0  0.106732  0.125069  0  1.027628  0
H  H49  1  0.95757189  0.45546660  0.67998510  1  0.122687  0  0.106729  0.125042  0  1.027639  0
H  H50  1  0.95757443  0.22451920  0.54453386  1  0.126266  0  0.106717  0.125044  0  1.02765  0
H  H51  1  0.45757455  0.67998468  0.22451896  1  0.11426  0  0.106733  0.125062  0  1.027622  0
H  H52  1  0.45757465  0.54453420  0.32001515  1  0.120803  0  0.106728  0.125061  0  1.027624  0
H  H53  1  0.45757212  0.77548129  0.45546608  1  0.126361  0  0.106725  0.125046  0  1.027638  0
H  H54  1  0.54242631  0.67998423  0.45546565  1  0.121655  0  0.10673  0.125049  0  1.027641  0
H  H55  1  0.54242347  0.54453394  0.22451899  1  0.12478  0  0.106738  0.125053  0  1.027682  0
H  H56  1  0.54242602  0.77548121  0.32001522  1  0.114066  0  0.106724  0.125059  0  1.027624  0
H  H57  1  0.04242558  0.32001547  0.54453347  1  0.121336  0  0.106733  0.125077  0  1.027619  0
H  H58  1  0.04242705  0.45546548  0.77548164  1  0.12692  0  0.10673  0.125052  0  1.027658  0
H  H59  1  0.04242722  0.22451906  0.67998518  1  0.114229  0  0.106715  0.125054  0  1.02765  0
H  H60  1  0.74999989  0.75552098  0.36998192  1  0.042721  0  0.107353  0.135118  0  1.031335  0
H  H61  1  0.75000075  0.61446042  0.24447884  1  0.1059  0  0.107335  0.135128  0  1.031353  0
H  H62  1  0.75000195  0.63001798  0.38553939  1  0.06763  0  0.107343  0.135129  0  1.031312  0
H  H63  1  0.24999865  0.24447885  0.63001788  1  0.042713  0  0.107349  0.135109  0  1.031335  0
H  H64  1  0.24999914  0.38553922  0.75552114  1  0.105906  0  0.107351  0.135118  0  1.031336  0
H  H65  1  0.25000067  0.36998246  0.61446103  1  0.067721  0  0.107353  0.135133  0  1.031302  0
H  H66  1  0.75000028  0.24447879  0.61446050  1  0.105902  0  0.10734  0.135109  0  1.031353  0
H  H67  1  0.75000251  0.38553937  0.63001781  1  0.067642  0  0.107345  0.135113  0  1.031311  0
H  H68  1  0.75000099  0.36998199  0.75552096  1  0.042722  0  0.107356  0.135128  0  1.031317  0
H  H69  1  0.24999825  0.75552152  0.38553943  1  0.105901  0  0.107361  0.135162  0  1.031301  0
H  H70  1  0.24999874  0.61446108  0.36998261  1  0.067718  0  0.107337  0.135112  0  1.031285  0
H  H71  1  0.24999891  0.63001784  0.24447883  1  0.042715  0  0.107348  0.135113  0  1.031331  0
C  C72  1  0.75000620  0.58390690  0.07796197  1  1.564939  0  0.240085  0.6225  0  4.165793  0
C  C73  1  0.75000555  0.49405633  0.41609383  1  1.565966  0  0.240134  0.622523  0  4.165919  0
C  C74  1  0.74999628  0.92203779  0.50594456  1  1.557003  0  0.240067  0.622516  0  4.165878  0
C  C75  1  0.24999233  0.41609292  0.92203782  1  1.564933  0  0.240064  0.622494  0  4.165848  0
C  C76  1  0.24999434  0.50594376  0.58390694  1  1.565989  0  0.240072  0.622487  0  4.165918  0
C  C77  1  0.25000362  0.07796234  0.49405555  1  1.556997  0  0.240101  0.622407  0  4.166106  0
C  C78  1  0.75000524  0.41609312  0.49405470  1  1.566046  0  0.240045  0.62243  0  4.165918  0
C  C79  1  0.75000460  0.50594394  0.92203727  1  1.558154  0  0.240102  0.622523  0  4.165845  0
C  C80  1  0.74999939  0.07796228  0.58390686  1  1.564942  0  0.24001  0.622477  0  4.165848  0
C  C81  1  0.24999465  0.58390675  0.50594443  1  1.566051  0  0.240039  0.622453  0  4.165991  0
C  C82  1  0.24999393  0.49405619  0.07796283  1  1.558153  0  0.240076  0.622478  0  4.165951  0
C  C83  1  0.25000323  0.92203803  0.41609307  1  1.564942  0  0.240029  0.622411  0  4.165866  0
C  C84  1  0.74999697  0.62079369  0.13000620  1  -0.019303  0  -0.020928  -0.057735  0  3.972007  0
C  C85  1  0.75000107  0.50921318  0.37920631  1  -0.035294  0  -0.020974  -0.057776  0  3.972161  0
C  C86  1  0.74999910  0.86999300  0.49078777  1  -0.018991  0  -0.020941  -0.057749  0  3.972098  0
C  C87  1  0.25000156  0.37920631  0.86999341  1  -0.019295  0  -0.020974  -0.057818  0  3.972139  0
C  C88  1  0.24999746  0.49078660  0.62079416  1  -0.035294  0  -0.020952  -0.057748  0  3.972092  0
C  C89  1  0.24999943  0.13000669  0.50921154  1  -0.018991  0  -0.020956  -0.057746  0  3.972181  0
C  C90  1  0.75000009  0.37920596  0.50921189  1  -0.036413  0  -0.020884  -0.057644  0  3.972022  0
C  C91  1  0.74999875  0.49078696  0.86999261  1  -0.019669  0  -0.020937  -0.057666  0  3.972092  0
C  C92  1  0.75000357  0.13000679  0.62079397  1  -0.019304  0  -0.02094  -0.057782  0  3.972106  0
C  C93  1  0.25000116  0.62079453  0.49078786  1  -0.036413  0  -0.020982  -0.057846  0  3.972195  0
C  C94  1  0.24999978  0.50921353  0.13000714  1  -0.019689  0  -0.020939  -0.05774  0  3.972124  0
C  C95  1  0.24999905  0.86999353  0.37920596  1  -0.0193  0  -0.020929  -0.057722  0  3.97197  0
C  C96  1  0.91525458  0.63688701  0.15491075  1  -0.041137  0  -0.077911  -0.064531  0  3.969083  0
C  C97  1  0.91525562  0.51802431  0.36311449  1  -0.040503  0  -0.077854  -0.064446  0  3.969105  0
C  C98  1  0.91525522  0.84508961  0.48197669  1  -0.047719  0  -0.077877  -0.064481  0  3.969035  0
C  C99  1  0.41525614  0.36311318  0.84508884  1  -0.04572  0  -0.077823  -0.064407  0  3.969068  0
C  C100  1  0.41525374  0.48197529  0.63688631  1  -0.039732  0  -0.077896  -0.064507  0  3.968992  0
C  C101  1  0.41525549  0.15491017  0.51802393  1  -0.043511  0  -0.077888  -0.064475  0  3.969093  0
C  C102  1  0.58474279  0.36311342  0.51802302  1  -0.03933  0  -0.077917  -0.06456  0  3.969042  0
C  C103  1  0.58474520  0.48197550  0.84508881  1  -0.047352  0  -0.077857  -0.064483  0  3.969141  0
C  C104  1  0.58474615  0.15491105  0.63688739  1  -0.041139  0  -0.077907  -0.064519  0  3.969053  0
C  C105  1  0.08474492  0.63688702  0.48197724  1  -0.038745  0  -0.077882  -0.064483  0  3.969099  0
C  C106  1  0.08474387  0.51802415  0.15491102  1  -0.043701  0  -0.077831  -0.064442  0  3.969014  0
C  C107  1  0.08474428  0.84508921  0.36311305  1  -0.042114  0  -0.07785  -0.064469  0  3.968976  0
C  C108  1  0.08474532  0.36311300  0.84508887  1  -0.041157  0  -0.077878  -0.064457  0  3.969071  0
C  C109  1  0.08474428  0.48197591  0.63688677  1  -0.040484  0  -0.077829  -0.064465  0  3.969133  0
C  C110  1  0.08474467  0.15491053  0.51802341  1  -0.047713  0  -0.077837  -0.064371  0  3.96906  0
C  C111  1  0.58474375  0.63688665  0.15491095  1  -0.045739  0  -0.077849  -0.064466  0  3.969044  0
C  C112  1  0.58474615  0.51802423  0.36311318  1  -0.039732  0  -0.077873  -0.064453  0  3.96904  0
C  C113  1  0.58474440  0.84508961  0.48197654  1  -0.043509  0  -0.077874  -0.064507  0  3.969109  0
C  C114  1  0.41525574  0.63688694  0.48197624  1  -0.039412  0  -0.077833  -0.064395  0  3.968977  0
C  C115  1  0.41525197  0.51802451  0.15491081  1  -0.047308  0  -0.077873  -0.064459  0  3.969067  0
C  C116  1  0.41525511  0.84508908  0.36311271  1  -0.041159  0  -0.077898  -0.064518  0  3.969044  0
C  C117  1  0.91525498  0.36311391  0.51802330  1  -0.038735  0  -0.077879  -0.064464  0  3.969043  0
C  C118  1  0.91525602  0.48197612  0.84508958  1  -0.043485  0  -0.077872  -0.064552  0  3.969107  0
C  C119  1  0.91525834  0.15491141  0.63688719  1  -0.042117  0  -0.077801  -0.06437  0  3.969081  0
C  C120  1  0.91605445  0.66738472  0.20429164  1  -0.00318  0  -0.097384  -0.195697  0  3.977362  0
C  C121  1  0.91605483  0.53690679  0.33261502  1  0.01038  0  -0.097359  -0.195699  0  3.977302  0
C  C122  1  0.91605348  0.79570791  0.46309305  1  0.007992  0  -0.097384  -0.195706  0  3.977309  0
C  C123  1  0.41605404  0.33261510  0.79570831  1  -0.003812  0  -0.097363  -0.195711  0  3.977328  0
C  C124  1  0.41605367  0.46309316  0.66738542  1  0.016915  0  -0.097396  -0.195714  0  3.97727  0
C  C125  1  0.41605501  0.20429209  0.53690672  1  0.00637  0  -0.097362  -0.195687  0  3.977288  0
C  C126  1  0.58394625  0.33261524  0.53690678  1  0.011407  0  -0.097322  -0.195624  0  3.977262  0
C  C127  1  0.58394527  0.46309332  0.79570745  1  0.009613  0  -0.097407  -0.195727  0  3.977343  0
C  C128  1  0.58394800  0.20429190  0.66738511  1  -0.002996  0  -0.097405  -0.195739  0  3.977347  0
C  C129  1  0.08394504  0.66738552  0.46309379  1  0.016856  0  -0.097319  -0.195597  0  3.977291  0
C  C130  1  0.08394602  0.53690651  0.20429219  1  0.002098  0  -0.097359  -0.195672  0  3.977362  0
C  C131  1  0.08394602  0.79570836  0.33261533  1  -0.003637  0  -0.097359  -0.195694  0  3.977311  0
C  C132  1  0.08394680  0.33261510  0.79570816  1  -0.003405  0  -0.097403  -0.195748  0  3.977314  0
C  C133  1  0.08394643  0.46309329  0.66738575  1  0.010415  0  -0.097382  -0.195668  0  3.977408  0
C  C134  1  0.08394641  0.20429240  0.53690688  1  0.007991  0  -0.097362  -0.195698  0  3.977251  0
C  C135  1  0.58394721  0.66738406  0.20429153  1  -0.003807  0  -0.097343  -0.195656  0  3.977325  0
C  C136  1  0.58394623  0.53690710  0.33261518  1  0.016985  0  -0.097383  -0.195715  0  3.977259  0
C  C137  1  0.58394624  0.79570742  0.46309277  1  0.006378  0  -0.097372  -0.195658  0  3.977283  0
C  C138  1  0.41605364  0.66738508  0.46309315  1  0.011481  0  -0.097354  -0.195671  0  3.977296  0
C  C139  1  0.41605326  0.53690731  0.20429278  1  0.009682  0  -0.097427  -0.195754  0  3.977394  0
C  C140  1  0.41605326  0.79570823  0.33261499  1  -0.002984  0  -0.097396  -0.195717  0  3.977301  0
C  C141  1  0.91605349  0.33261493  0.53690662  1  0.016868  0  -0.097426  -0.195798  0  3.977322  0
C  C142  1  0.91605251  0.46309283  0.79570748  1  0.001916  0  -0.097387  -0.195686  0  3.977354  0
C  C143  1  0.91605523  0.20429177  0.66738478  1  -0.00367  0  -0.097394  -0.195775  0  3.97741  0
C  C144  1  0.75000031  0.68139756  0.22846340  1  0.409663  0  0.087282  0.266835  0  4.025293  0
C  C145  1  0.75000308  0.54706556  0.31860223  1  0.354518  0  0.087281  0.266805  0  4.025303  0
C  C146  1  0.74999920  0.77153626  0.45293452  1  0.376032  0  0.087298  0.266823  0  4.025394  0
C  C147  1  0.25000095  0.31860195  0.77153609  1  0.409898  0  0.087301  0.266865  0  4.025267  0
C  C148  1  0.24999681  0.45293453  0.68139855  1  0.354535  0  0.087294  0.266821  0  4.025392  0
C  C149  1  0.25000070  0.22846388  0.54706558  1  0.37605  0  0.087279  0.266816  0  4.025304  0
C  C150  1  0.74999934  0.31860241  0.54706516  1  0.354038  0  0.087256  0.26681  0  4.025417  0
C  C151  1  0.75000076  0.45293450  0.77153621  1  0.380005  0  0.08731  0.266877  0  4.025331  0
C  C152  1  0.75000231  0.22846372  0.68139803  1  0.409728  0  0.087295  0.266856  0  4.025339  0
C  C153  1  0.24999919  0.68139808  0.45293459  1  0.35406  0  0.087295  0.266838  0  4.025413  0
C  C154  1  0.24999777  0.54706545  0.22846407  1  0.380011  0  0.087302  0.266836  0  4.025377  0
C  C155  1  0.24999894  0.77153624  0.31860225  1  0.409733  0  0.087298  0.266842  0  4.025286  0
C  C156  1  0.75000097  0.68707868  0.30459068  1  0.400692  0  0.087386  0.316743  0  4.057084  0
C  C157  1  0.75000135  0.61751145  0.31292105  1  0.448296  0  0.087463  0.316849  0  4.056892  0
C  C158  1  0.75000163  0.69540894  0.38248810  1  0.373853  0  0.087484  0.316922  0  4.057117  0
C  C159  1  0.24999893  0.31292097  0.69540929  1  0.400685  0  0.087402  0.316743  0  4.057033  0
C  C160  1  0.24999854  0.38248819  0.68707892  1  0.448256  0  0.087396  0.316761  0  4.057033  0
C  C161  1  0.24999963  0.30459089  0.61751169  1  0.373824  0  0.087501  0.31691  0  4.057095  0
C  C162  1  0.75000545  0.31292142  0.61751162  1  0.448293  0  0.087395  0.316738  0  4.057014  0
C  C163  1  0.75000584  0.38248812  0.69540884  1  0.373863  0  0.087487  0.316884  0  4.057074  0
C  C164  1  0.75000475  0.30459079  0.68707862  1  0.400717  0  0.08741  0.316725  0  4.057058  0
C  C165  1  0.24999581  0.68707921  0.38248862  1  0.448288  0  0.087494  0.316954  0  4.057144  0
C  C166  1  0.24999542  0.61751201  0.30459126  1  0.373987  0  0.087496  0.316897  0  4.057096  0
C  C167  1  0.24999514  0.69540935  0.31292148  1  0.400721  0  0.087405  0.316778  0  4.057024  0
C  C168  1  0.74999856  0.71687021  0.35428970  1  0.058859  0  -0.134113  -0.369475  0  4.005207  0
C  C169  1  0.75000099  0.63741897  0.28312917  1  0.078062  0  -0.134103  -0.369525  0  4.005044  0
C  C170  1  0.75000167  0.64571006  0.36258079  1  0.080271  0  -0.134083  -0.36954  0  4.005054  0
C  C171  1  0.24999861  0.28312961  0.64571010  1  0.058881  0  -0.134121  -0.369472  0  4.005204  0
C  C172  1  0.24999754  0.36258085  0.71687063  1  0.078084  0  -0.134048  -0.369398  0  4.005025  0
C  C173  1  0.24999958  0.35428989  0.63741949  1  0.080187  0  -0.134068  -0.369475  0  4.005052  0
C  C174  1  0.75000440  0.28312927  0.63741887  1  0.078069  0  -0.134031  -0.369345  0  4.005008  0
C  C175  1  0.75000548  0.36258063  0.64571010  1  0.080232  0  -0.134075  -0.369447  0  4.00504  0
C  C176  1  0.75000343  0.35428976  0.71687016  1  0.058817  0  -0.134129  -0.369515  0  4.005227  0
C  C177  1  0.24999550  0.71687056  0.36258093  1  0.078082  0  -0.134144  -0.369611  0  4.005057  0
C  C178  1  0.24999578  0.63741964  0.35429049  1  0.08013  0  -0.13415  -0.369572  0  4.005169  0
C  C179  1  0.24999510  0.64571006  0.28312964  1  0.058836  0  -0.134108  -0.369479  0  4.005202  0
O  O180  1  0.90488957  0.56929040  0.05793910  1  -1.181395  0  -0.293369  -0.594897  0  2.304561  0
O  O181  1  0.90488784  0.48864876  0.43071012  1  -1.179766  0  -0.293372  -0.594862  0  2.304547  0
O  O182  1  0.90489879  0.94206142  0.51135056  1  -1.178968  0  -0.293466  -0.595075  0  2.304274  0
O  O183  1  0.40490182  0.43070977  0.94206298  1  -1.181513  0  -0.293521  -0.595126  0  2.304127  0
O  O184  1  0.40490492  0.51134978  0.56928925  1  -1.178993  0  -0.2935  -0.595119  0  2.304206  0
O  O185  1  0.40489259  0.05793894  0.48864884  1  -1.17928  0  -0.293357  -0.594833  0  2.304573  0
O  O186  1  0.59509576  0.43071104  0.48864841  1  -1.179713  0  -0.293515  -0.595114  0  2.30422  0
O  O187  1  0.59509402  0.51134891  0.94206059  1  -1.179486  0  -0.293521  -0.595166  0  2.304238  0
O  O188  1  0.59510905  0.05793899  0.56929063  1  -1.18121  0  -0.293333  -0.594918  0  2.304451  0
O  O189  1  0.09511128  0.56929025  0.51135163  1  -1.179182  0  -0.29336  -0.594873  0  2.304625  0
O  O190  1  0.09511165  0.48864909  0.05793903  1  -1.179909  0  -0.293386  -0.594906  0  2.30456  0
O  O191  1  0.09510344  0.94206212  0.43070959  1  -1.181669  0  -0.293459  -0.595044  0  2.30432  0
O  O192  1  0.09511032  0.43070925  0.94206088  1  -1.181483  0  -0.293336  -0.594872  0  2.304552  0
O  O193  1  0.09511070  0.51135119  0.56929017  1  -1.17979  0  -0.293354  -0.594877  0  2.30459  0
O  O194  1  0.09509974  0.05793840  0.48864923  1  -1.178976  0  -0.293518  -0.595087  0  2.30436  0
O  O195  1  0.59509808  0.56928987  0.05793700  1  -1.181554  0  -0.293538  -0.595147  0  2.304128  0
O  O196  1  0.59509498  0.48864982  0.43071139  1  -1.179016  0  -0.293511  -0.595134  0  2.304238  0
O  O197  1  0.59510594  0.94206102  0.51135145  1  -1.179318  0  -0.293382  -0.594934  0  2.304513  0
O  O198  1  0.40490414  0.56928914  0.51135103  1  -1.179693  0  -0.293511  -0.595124  0  2.304218  0
O  O199  1  0.40490314  0.48865074  0.05793939  1  -1.179467  0  -0.293496  -0.595124  0  2.304274  0
O  O200  1  0.40489357  0.94206150  0.43070911  1  -1.18129  0  -0.29337  -0.594857  0  2.304381  0
O  O201  1  0.90488862  0.43070989  0.48864847  1  -1.179197  0  -0.293366  -0.594886  0  2.304604  0
O  O202  1  0.90488688  0.51135135  0.94206139  1  -1.179803  0  -0.29337  -0.594901  0  2.304517  0
O  O203  1  0.90489918  0.05793788  0.56929003  1  -1.181708  0  -0.293459  -0.595034  0  2.30424  0
O  O204  1  0.74999785  0.46751785  0.00000093  1  -1.236766  0  -0.530622  -0.912513  0  2.071426  0
O  O205  1  0.74999826  0.53248263  0.53248293  1  -1.220999  0  -0.530571  -0.912513  0  2.071411  0
O  O206  1  0.75000005  0.00000077  0.46751758  1  -1.236757  0  -0.530595  -0.912468  0  2.071427  0
O  O207  1  0.25000205  0.53248229  0.99999918  1  -1.236767  0  -0.530626  -0.912523  0  2.071443  0
O  O208  1  0.25000164  0.46751733  0.46751736  1  -1.220988  0  -0.53056  -0.912492  0  2.071398  0
O  O209  1  0.24999984  0.99999906  0.53248221  1  -1.236761  0  -0.530602  -0.912497  0  2.071448  0
O  O210  1  0.75000199  0.71032971  0.27825684  1  -1.143743  0  -0.155548  -0.230525  0  2.543509  0
O  O211  1  0.75000273  0.56792675  0.28966988  1  -1.135793  0  -0.155528  -0.230439  0  2.543495  0
O  O212  1  0.75000059  0.72174292  0.43207343  1  -1.152659  0  -0.155565  -0.230548  0  2.543484  0
O  O213  1  0.24999791  0.28966980  0.72174265  1  -1.143767  0  -0.155567  -0.230542  0  2.543484  0
O  O214  1  0.24999853  0.43207321  0.71033040  1  -1.135782  0  -0.155574  -0.230545  0  2.543511  0
O  O215  1  0.25000339  0.27825722  0.56792668  1  -1.152638  0  -0.155585  -0.230567  0  2.543452  0
O  O216  1  0.75000102  0.28967043  0.56792670  1  -1.135775  0  -0.155543  -0.23052  0  2.543514  0
O  O217  1  0.75000177  0.43207291  0.72174270  1  -1.152668  0  -0.155568  -0.230549  0  2.543484  0
O  O218  1  0.75000235  0.27825699  0.71032970  1  -1.143764  0  -0.155539  -0.23049  0  2.543483  0
O  O219  1  0.24999887  0.71033020  0.43207354  1  -1.135795  0  -0.155564  -0.230577  0  2.543632  0
O  O220  1  0.24999949  0.56792704  0.27825759  1  -1.15276  0  -0.155566  -0.230533  0  2.543435  0
O  O221  1  0.24999754  0.72174284  0.28967010  1  -1.143766  0  -0.155544  -0.230503  0  2.543465  0
