# generated using pymatgen
data_HgH3C4I2N
_symmetry_space_group_name_H-M   'P 1'
_cell_length_a   4.34761909
_cell_length_b   14.76526844
_cell_length_c   24.92298427
_cell_angle_alpha   89.99870333
_cell_angle_beta   89.99925493
_cell_angle_gamma   92.65446717
_symmetry_Int_Tables_number   1
_chemical_formula_structural   HgH3C4I2N
_chemical_formula_sum   'Hg8 H24 C32 I16 N8'
_cell_volume   1598.18344096
_cell_formula_units_Z   8
loop_
 _symmetry_equiv_pos_site_id
 _symmetry_equiv_pos_as_xyz
  1  'x, y, z'
loop_
 _atom_site_type_symbol
 _atom_site_label
 _atom_site_symmetry_multiplicity
 _atom_site_fract_x
 _atom_site_fract_y
 _atom_site_fract_z
 _atom_site_occupancy
 _atom_site_hle17_bader_spin_density
 _atom_site_hle17_ddec_charge
 _atom_site_hle17_ddec_spin_density
 _atom_site_hle17_ddec_sum_bond_order
 _atom_site_hle17_magmom
 _atom_site_hse06_10hf_bader_spin_density
 _atom_site_hse06_10hf_ddec_charge
 _atom_site_hse06_10hf_ddec_spin_density
 _atom_site_hse06_10hf_ddec_sum_bond_order
 _atom_site_hse06_10hf_magmom
 _atom_site_hse06_bader_spin_density
 _atom_site_hse06_ddec_charge
 _atom_site_hse06_ddec_spin_density
 _atom_site_hse06_ddec_sum_bond_order
 _atom_site_hse06_magmom
 _atom_site_pbe_bader_spin_density
 _atom_site_pbe_cm5_charge
 _atom_site_pbe_ddec_charge
 _atom_site_pbe_ddec_spin_density
 _atom_site_pbe_ddec_sum_bond_order
 _atom_site_pbe_magmom
Hg  Hg0  1  0.06490938  0.70505307  0.24990962  1  0  0.470464  0  2.215189  0  0  0.363739  0  2.693086  0  0  0.406576  0  2.669268  0  0  0.31766  0.334375  0  2.710223  0
Hg  Hg1  1  0.93511646  0.79494948  0.74990864  1  0  0.47053  0  2.215189  0  0  0.363824  0  2.693059  0  0  0.406657  0  2.669245  0  0  0.317673  0.334452  0  2.710225  0
Hg  Hg2  1  0.93509534  0.29494727  0.75009325  1  0  0.470499  0  2.215184  0  0  0.363777  0  2.693078  0  0  0.406615  0  2.669257  0  0  0.317652  0.334416  0  2.710211  0
Hg  Hg3  1  0.06490282  0.20505560  0.25009022  1  0  0.47052  0  2.215173  0  0  0.363804  0  2.693067  0  0  0.406636  0  2.669254  0  0  0.31768  0.334434  0  2.71021  0
Hg  Hg4  1  0.22056764  0.69896554  0.58211767  1  0  0.487069  0  2.203218  0  0  0.384559  0  2.676111  0  0  0.428576  0  2.651762  0  0  0.325429  0.354695  0  2.693514  0
Hg  Hg5  1  0.77941786  0.80103292  0.08211638  1  0  0.487087  0  2.203177  0  0  0.384572  0  2.67608  0  0  0.428591  0  2.651737  0  0  0.325422  0.354702  0  2.693497  0
Hg  Hg6  1  0.77943051  0.30103683  0.41788239  1  0  0.487075  0  2.203208  0  0  0.384568  0  2.676098  0  0  0.428582  0  2.651749  0  0  0.32543  0.354699  0  2.693514  0
Hg  Hg7  1  0.22058687  0.19896742  0.91788128  1  0  0.487098  0  2.203152  0  0  0.384596  0  2.676038  0  0  0.428615  0  2.651691  0  0  0.325445  0.354732  0  2.693449  0
H  H8  1  0.51590591  0.85029753  0.50930842  1  0  0.089387  0  1.005982  0  0  0.095037  0  1.082391  0  0  0.098446  0  1.079606  0  0  0.079931  0.092514  0  1.084581  0
H  H9  1  0.48409708  0.64969437  0.00930985  1  0  0.089314  0  1.006076  0  0  0.094997  0  1.082459  0  0  0.098421  0  1.079664  0  0  0.079902  0.092457  0  1.084667  0
H  H10  1  0.48405673  0.14971298  0.49069526  1  0  0.089362  0  1.006022  0  0  0.094981  0  1.082442  0  0  0.098389  0  1.079657  0  0  0.079933  0.092452  0  1.084641  0
H  H11  1  0.51592792  0.35030325  0.99068942  1  0  0.089328  0  1.00603  0  0  0.094956  0  1.082507  0  0  0.098367  0  1.079723  0  0  0.079917  0.092415  0  1.084714  0
H  H12  1  0.26652095  0.87745222  0.31402697  1  0  0.098042  0  0.988003  0  0  0.103846  0  1.061802  0  0  0.107087  0  1.059497  0  0  0.082546  0.101524  0  1.06351  0
H  H13  1  0.73348699  0.62253621  0.81402915  1  0  0.098037  0  0.988076  0  0  0.103794  0  1.06193  0  0  0.107036  0  1.059625  0  0  0.082503  0.101473  0  1.063644  0
H  H14  1  0.73346976  0.12254676  0.68597149  1  0  0.098042  0  0.98807  0  0  0.103841  0  1.061865  0  0  0.107081  0  1.05956  0  0  0.082511  0.101517  0  1.063578  0
H  H15  1  0.26651512  0.37746209  0.18596891  1  0  0.098087  0  0.988045  0  0  0.103874  0  1.061859  0  0  0.107116  0  1.059553  0  0  0.082533  0.101552  0  1.063568  0
H  H16  1  0.59454450  0.99645986  0.35948181  1  0  0.085188  0  0.980826  0  0  0.091423  0  1.052169  0  0  0.094718  0  1.049934  0  0  0.080585  0.089087  0  1.053769  0
H  H17  1  0.40543137  0.50353352  0.85948557  1  0  0.085082  0  0.980889  0  0  0.091333  0  1.052219  0  0  0.094629  0  1.049983  0  0  0.080589  0.088997  0  1.053814  0
H  H18  1  0.40543044  0.00354115  0.64051746  1  0  0.085183  0  0.98086  0  0  0.091394  0  1.052216  0  0  0.094687  0  1.049983  0  0  0.080576  0.089059  0  1.053815  0
H  H19  1  0.59458421  0.49646274  0.14051369  1  0  0.085173  0  0.980817  0  0  0.091355  0  1.0522  0  0  0.094648  0  1.049971  0  0  0.080595  0.089022  0  1.053793  0
H  H20  1  0.72115117  0.98277659  0.45620851  1  0  0.090474  0  0.955633  0  0  0.099991  0  1.018857  0  0  0.103021  0  1.017574  0  0  0.092961  0.097831  0  1.019823  0
H  H21  1  0.27883475  0.51721832  0.95621283  1  0  0.090576  0  0.955873  0  0  0.100159  0  1.018969  0  0  0.103172  0  1.017711  0  0  0.093018  0.097999  0  1.019927  0
H  H22  1  0.27879986  0.01723324  0.54379075  1  0  0.090479  0  0.955533  0  0  0.100042  0  1.018722  0  0  0.103072  0  1.017457  0  0  0.092954  0.097882  0  1.019679  0
H  H23  1  0.72120132  0.48277659  0.04378724  1  0  0.090576  0  0.955933  0  0  0.10016  0  1.019016  0  0  0.103207  0  1.017699  0  0  0.093023  0.097997  0  1.019981  0
H  H24  1  0.80267557  0.60371217  0.36855765  1  0  0.073402  0  0.974447  0  0  0.075222  0  1.053851  0  0  0.07853  0  1.050729  0  0  0.092396  0.072806  0  1.056199  0
H  H25  1  0.19733811  0.89627678  0.86855363  1  0  0.073437  0  0.974335  0  0  0.075242  0  1.053719  0  0  0.078554  0  1.050589  0  0  0.092408  0.072815  0  1.056081  0
H  H26  1  0.19732600  0.39628274  0.63144442  1  0  0.073402  0  0.974428  0  0  0.075237  0  1.053777  0  0  0.078545  0  1.050656  0  0  0.092391  0.072811  0  1.05614  0
H  H27  1  0.80266191  0.10372288  0.13144564  1  0  0.073444  0  0.974294  0  0  0.075252  0  1.053666  0  0  0.078564  0  1.050536  0  0  0.092414  0.072828  0  1.056017  0
H  H28  1  0.89580039  0.59539554  0.46819533  1  0  0.068257  0  0.987021  0  0  0.071247  0  1.06563  0  0  0.07441  0  1.062436  0  0  0.08787  0.068877  0  1.068179  0
H  H29  1  0.10419564  0.90459550  0.96819104  1  0  0.068251  0  0.987173  0  0  0.071238  0  1.065753  0  0  0.074431  0  1.062511  0  0  0.0879  0.068871  0  1.068311  0
H  H30  1  0.10419765  0.40460615  0.53180795  1  0  0.068241  0  0.987085  0  0  0.071238  0  1.065695  0  0  0.074397  0  1.062494  0  0  0.087868  0.068869  0  1.068249  0
H  H31  1  0.89580428  0.09540348  0.03180783  1  0  0.068238  0  0.987113  0  0  0.07124  0  1.065695  0  0  0.074422  0  1.06246  0  0  0.087893  0.068876  0  1.06824  0
C  C32  1  0.46178595  0.85683650  0.46682116  1  0  -0.136308  0  3.723871  0  0  -0.155578  0  3.970096  0  0  -0.160245  0  3.99248  0  0  -0.095254  -0.15233  0  3.954993  0
C  C33  1  0.53820943  0.64314984  0.96682317  1  0  -0.136023  0  3.723698  0  0  -0.155364  0  3.969922  0  0  -0.160062  0  3.992277  0  0  -0.095184  -0.152089  0  3.954828  0
C  C34  1  0.53818942  0.14316722  0.53317851  1  0  -0.136164  0  3.723743  0  0  -0.155435  0  3.969959  0  0  -0.160096  0  3.992344  0  0  -0.095248  -0.15217  0  3.954863  0
C  C35  1  0.46180385  0.35684642  0.03317610  1  0  -0.135939  0  3.723822  0  0  -0.155266  0  3.969995  0  0  -0.159958  0  3.992362  0  0  -0.09522  -0.151994  0  3.954905  0
C  C36  1  0.27510297  0.78806242  0.44180758  1  0  0.158258  0  3.767955  0  0  0.162853  0  3.999858  0  0  0.165367  0  4.024227  0  0  0.10834  0.160958  0  3.983519  0
C  C37  1  0.72491271  0.71192561  0.94180621  1  0  0.158101  0  3.768063  0  0  0.162709  0  3.999928  0  0  0.16529  0  4.024213  0  0  0.108283  0.160791  0  3.983614  0
C  C38  1  0.72488609  0.21194063  0.55819208  1  0  0.157998  0  3.768167  0  0  0.162798  0  3.999876  0  0  0.165311  0  4.024246  0  0  0.108313  0.160889  0  3.983557  0
C  C39  1  0.27510047  0.28806998  0.05819064  1  0  0.157968  0  3.76854  0  0  0.162618  0  4.000232  0  0  0.16523  0  4.02453  0  0  0.108355  0.160683  0  3.98392  0
C  C40  1  0.20854732  0.79511334  0.38543957  1  0  0.162891  0  3.757459  0  0  0.166501  0  3.988957  0  0  0.169148  0  4.012915  0  0  0.110251  0.164541  0  3.972914  0
C  C41  1  0.79147457  0.70487629  0.88543973  1  0  0.162946  0  3.757726  0  0  0.166576  0  3.989139  0  0  0.169201  0  4.013092  0  0  0.11034  0.164629  0  3.973103  0
C  C42  1  0.79143891  0.20488632  0.61456090  1  0  0.163134  0  3.757143  0  0  0.166524  0  3.988842  0  0  0.169168  0  4.012805  0  0  0.110276  0.164573  0  3.972801  0
C  C43  1  0.20853170  0.29511930  0.11455913  1  0  0.162779  0  3.757935  0  0  0.166562  0  3.989149  0  0  0.169097  0  4.013225  0  0  0.110312  0.164652  0  3.97305  0
C  C44  1  0.32285683  0.87187785  0.35646447  1  0  -0.127178  0  3.706663  0  0  -0.145966  0  3.95218  0  0  -0.150608  0  3.974584  0  0  -0.09179  -0.142728  0  3.936907  0
C  C45  1  0.67715279  0.62810956  0.85646632  1  0  -0.127197  0  3.70689  0  0  -0.145954  0  3.952344  0  0  -0.15059  0  3.974737  0  0  -0.091778  -0.142724  0  3.937078  0
C  C46  1  0.67712960  0.12812317  0.64353721  1  0  -0.127222  0  3.706502  0  0  -0.145939  0  3.95203  0  0  -0.150587  0  3.97445  0  0  -0.091781  -0.142703  0  3.936758  0
C  C47  1  0.32286291  0.37188739  0.14353094  1  0  -0.127304  0  3.707024  0  0  -0.146167  0  3.952495  0  0  -0.150769  0  3.9749  0  0  -0.091896  -0.142936  0  3.937202  0
C  C48  1  0.50352667  0.93781502  0.38202294  1  0  -0.039709  0  3.740086  0  0  -0.051529  0  3.983272  0  0  -0.053585  0  4.005713  0  0  -0.089309  -0.049941  0  3.96781  0
C  C49  1  0.49646829  0.56217746  0.88202652  1  0  -0.039621  0  3.740233  0  0  -0.051484  0  3.98339  0  0  -0.053535  0  4.005827  0  0  -0.08945  -0.049893  0  3.96792  0
C  C50  1  0.49644564  0.06218396  0.61797592  1  0  -0.039634  0  3.739924  0  0  -0.051437  0  3.983119  0  0  -0.053487  0  4.005556  0  0  -0.089207  -0.049851  0  3.967653  0
C  C51  1  0.50354730  0.43781881  0.11797315  1  0  -0.039524  0  3.740315  0  0  -0.051309  0  3.983481  0  0  -0.053361  0  4.005921  0  0  -0.089292  -0.049726  0  3.968015  0
C  C52  1  0.57485428  0.92997450  0.43722978  1  0  -0.042907  0  3.73562  0  0  -0.054533  0  3.978511  0  0  -0.0565  0  4.001064  0  0  -0.084389  -0.053011  0  3.962951  0
C  C53  1  0.42513160  0.57001236  0.93723383  1  0  -0.04309  0  3.735961  0  0  -0.054749  0  3.978861  0  0  -0.056701  0  4.0014  0  0  -0.084332  -0.053223  0  3.963282  0
C  C54  1  0.42511910  0.07003126  0.56277190  1  0  -0.043011  0  3.735574  0  0  -0.054713  0  3.978533  0  0  -0.056681  0  4.001055  0  0  -0.084465  -0.053194  0  3.962979  0
C  C55  1  0.57489308  0.42998323  0.06276543  1  0  -0.043199  0  3.736052  0  0  -0.054856  0  3.978916  0  0  -0.056827  0  4.001473  0  0  -0.084403  -0.053328  0  3.963345  0
C  C56  1  0.93601264  0.65799005  0.38904905  1  0  0.085829  0  3.692628  0  0  0.059071  0  3.948784  0  0  0.063169  0  3.964285  0  0  0.044456  0.056397  0  3.93809  0
C  C57  1  0.06399958  0.84199807  0.88904688  1  0  0.085594  0  3.69231  0  0  0.05892  0  3.9484  0  0  0.06301  0  3.963903  0  0  0.044324  0.056254  0  3.937719  0
C  C58  1  0.06398717  0.34200825  0.61095222  1  0  0.085667  0  3.69261  0  0  0.058932  0  3.948745  0  0  0.063027  0  3.964246  0  0  0.044401  0.056262  0  3.938066  0
C  C59  1  0.93600264  0.15800091  0.11095158  1  0  0.085625  0  3.692231  0  0  0.058958  0  3.948343  0  0  0.063052  0  3.963836  0  0  0.044377  0.056287  0  3.937653  0
C  C60  1  0.99301658  0.65255569  0.44493839  1  0  0.087089  0  3.702571  0  0  0.06109  0  3.958249  0  0  0.065417  0  3.973899  0  0  0.041097  0.05824  0  3.947454  0
C  C61  1  0.00698287  0.84743290  0.94493669  1  0  0.087328  0  3.702699  0  0  0.061312  0  3.958342  0  0  0.065624  0  3.974003  0  0  0.041245  0.058461  0  3.94754  0
C  C62  1  0.00697895  0.34744465  0.55506328  1  0  0.087248  0  3.702784  0  0  0.061223  0  3.958461  0  0  0.065558  0  3.974119  0  0  0.04114  0.058378  0  3.947666  0
C  C63  1  0.99302164  0.15256608  0.05506257  1  0  0.087302  0  3.702594  0  0  0.061256  0  3.958257  0  0  0.065578  0  3.973923  0  0  0.041204  0.058406  0  3.94746  0
I  I64  1  0.92301024  0.84952454  0.60432381  1  0  -0.274686  0  1.322594  0  0  -0.232069  0  1.686091  0  0  -0.251568  0  1.669949  0  0  -0.122563  -0.219187  0  1.697974  0
I  I65  1  0.07699753  0.65047844  0.10432346  1  0  -0.274693  0  1.322662  0  0  -0.232072  0  1.686138  0  0  -0.251594  0  1.670039  0  0  -0.122551  -0.219184  0  1.698016  0
I  I66  1  0.07698539  0.15047647  0.39567907  1  0  -0.27468  0  1.322559  0  0  -0.232069  0  1.686043  0  0  -0.251565  0  1.669897  0  0  -0.122566  -0.219184  0  1.697926  0
I  I67  1  0.92301212  0.34952392  0.89567660  1  0  -0.274685  0  1.322659  0  0  -0.23205  0  1.686144  0  0  -0.25157  0  1.670041  0  0  -0.12256  -0.219165  0  1.698014  0
I  I68  1  0.46496402  0.57227947  0.26030239  1  0  -0.226781  0  1.450046  0  0  -0.178466  0  1.843971  0  0  -0.196711  0  1.823193  0  0  -0.119774  -0.165962  0  1.859928  0
I  I69  1  0.53505626  0.92772130  0.76030231  1  0  -0.226803  0  1.450051  0  0  -0.178501  0  1.843981  0  0  -0.196747  0  1.823205  0  0  -0.119749  -0.165965  0  1.859899  0
I  I70  1  0.53505012  0.42772222  0.73969888  1  0  -0.226783  0  1.450027  0  0  -0.178477  0  1.843945  0  0  -0.196722  0  1.823167  0  0  -0.119772  -0.16596  0  1.859874  0
I  I71  1  0.46494638  0.07228039  0.23969816  1  0  -0.226808  0  1.450032  0  0  -0.178501  0  1.843952  0  0  -0.196746  0  1.823176  0  0  -0.119763  -0.165982  0  1.859874  0
I  I72  1  0.61476083  0.56303127  0.57634186  1  0  -0.258647  0  1.364693  0  0  -0.215454  0  1.740617  0  0  -0.235687  0  1.722369  0  0  -0.123478  -0.201677  0  1.754536  0
I  I73  1  0.38523679  0.93696877  0.07633659  1  0  -0.258631  0  1.364589  0  0  -0.215436  0  1.740471  0  0  -0.235678  0  1.722233  0  0  -0.123477  -0.201668  0  1.754415  0
I  I74  1  0.38523951  0.43697042  0.42365981  1  0  -0.258647  0  1.364718  0  0  -0.215446  0  1.740646  0  0  -0.235678  0  1.722399  0  0  -0.123472  -0.201675  0  1.754588  0
I  I75  1  0.61476082  0.06303020  0.92366147  1  0  -0.258638  0  1.364585  0  0  -0.215455  0  1.740485  0  0  -0.235695  0  1.722243  0  0  -0.123482  -0.201696  0  1.754449  0
I  I76  1  0.76592391  0.85070724  0.21939498  1  0  -0.272011  0  1.469203  0  0  -0.229831  0  1.868389  0  0  -0.249958  0  1.849346  0  0  -0.148252  -0.216198  0  1.882747  0
I  I77  1  0.23410203  0.64929789  0.71939488  1  0  -0.272053  0  1.469293  0  0  -0.229863  0  1.86847  0  0  -0.249991  0  1.849421  0  0  -0.148244  -0.216239  0  1.882885  0
I  I78  1  0.23409265  0.14929513  0.78060469  1  0  -0.272036  0  1.469279  0  0  -0.229857  0  1.868472  0  0  -0.249979  0  1.849418  0  0  -0.148243  -0.21623  0  1.882841  0
I  I79  1  0.76590762  0.35070447  0.28060519  1  0  -0.272045  0  1.469292  0  0  -0.229863  0  1.868489  0  0  -0.249992  0  1.84944  0  0  -0.148259  -0.216234  0  1.882875  0
N  N80  1  0.16051233  0.71553681  0.47076380  1  0  -0.292325  0  3.141528  0  0  -0.2394  0  3.399436  0  0  -0.254005  0  3.419512  0  0  -0.294975  -0.22894  0  3.385255  0
N  N81  1  0.83949710  0.78445277  0.97076320  1  0  -0.292428  0  3.14143  0  0  -0.239503  0  3.399313  0  0  -0.254133  0  3.419379  0  0  -0.295108  -0.229036  0  3.385144  0
N  N82  1  0.83948571  0.28446488  0.52923947  1  0  -0.292292  0  3.141887  0  0  -0.239415  0  3.39974  0  0  -0.25402  0  3.419815  0  0  -0.294913  -0.228951  0  3.385568  0
N  N83  1  0.16050533  0.21554757  0.02923606  1  0  -0.292414  0  3.141673  0  0  -0.239517  0  3.399563  0  0  -0.254146  0  3.419621  0  0  -0.295141  -0.229049  0  3.385399  0
N  N84  1  0.04004823  0.72765634  0.35995251  1  0  -0.285797  0  3.141763  0  0  -0.231761  0  3.399281  0  0  -0.245604  0  3.418738  0  0  -0.293763  -0.221883  0  3.38559  0
N  N85  1  0.95996268  0.77232618  0.85995136  1  0  -0.285742  0  3.141514  0  0  -0.231734  0  3.39898  0  0  -0.245578  0  3.418444  0  0  -0.293714  -0.221852  0  3.385272  0
N  N86  1  0.95994708  0.27234264  0.64004997  1  0  -0.285859  0  3.141565  0  0  -0.231775  0  3.399126  0  0  -0.245616  0  3.418583  0  0  -0.293786  -0.221891  0  3.385418  0
N  N87  1  0.04004402  0.22767212  0.14004670  1  0  -0.285587  0  3.14166  0  0  -0.231651  0  3.399103  0  0  -0.245469  0  3.418595  0  0  -0.293722  -0.221787  0  3.385399  0
