# generated using pymatgen
data_ZnH7C11N6ClO2
_symmetry_space_group_name_H-M   'P 1'
_cell_length_a   5.91391939
_cell_length_b   13.97073638
_cell_length_c   15.70299348
_cell_angle_alpha   90.00045845
_cell_angle_beta   90.00033140
_cell_angle_gamma   100.98885292
_symmetry_Int_Tables_number   1
_chemical_formula_structural   ZnH7C11N6ClO2
_chemical_formula_sum   'Zn4 H28 C44 N24 Cl4 O8'
_cell_volume   1273.62079205
_cell_formula_units_Z   4
loop_
 _symmetry_equiv_pos_site_id
 _symmetry_equiv_pos_as_xyz
  1  'x, y, z'
loop_
 _atom_site_type_symbol
 _atom_site_label
 _atom_site_symmetry_multiplicity
 _atom_site_fract_x
 _atom_site_fract_y
 _atom_site_fract_z
 _atom_site_occupancy
 _atom_site_hle17_bader_spin_density
 _atom_site_hle17_ddec_charge
 _atom_site_hle17_ddec_spin_density
 _atom_site_hle17_ddec_sum_bond_order
 _atom_site_hle17_magmom
 _atom_site_hse06_10hf_bader_spin_density
 _atom_site_hse06_10hf_ddec_charge
 _atom_site_hse06_10hf_ddec_spin_density
 _atom_site_hse06_10hf_ddec_sum_bond_order
 _atom_site_hse06_10hf_magmom
 _atom_site_hse06_bader_spin_density
 _atom_site_hse06_ddec_charge
 _atom_site_hse06_ddec_spin_density
 _atom_site_hse06_ddec_sum_bond_order
 _atom_site_hse06_magmom
 _atom_site_pbe_bader_spin_density
 _atom_site_pbe_cm5_charge
 _atom_site_pbe_ddec_charge
 _atom_site_pbe_ddec_spin_density
 _atom_site_pbe_ddec_sum_bond_order
 _atom_site_pbe_magmom
Zn  Zn0  1  0.73471611  0.20868587  0.51943563  1  0  0.939812  0  2.01269  0  0  0.759136  0  2.505858  0  0  0.802194  0  2.454511  0  0  0.628449  0.729149  0  2.541128  0
Zn  Zn1  1  0.26527547  0.29131031  0.01942762  1  0  0.939796  0  2.012675  0  0  0.759144  0  2.505843  0  0  0.802205  0  2.454492  0  0  0.628472  0.729156  0  2.541109  0
Zn  Zn2  1  0.26525233  0.79131600  0.48056644  1  0  0.939912  0  2.01283  0  0  0.759169  0  2.506135  0  0  0.80224  0  2.45476  0  0  0.62849  0.729199  0  2.541362  0
Zn  Zn3  1  0.73469492  0.70867629  0.98057318  1  0  0.939706  0  2.012946  0  0  0.759004  0  2.506234  0  0  0.802068  0  2.45488  0  0  0.628413  0.729016  0  2.541508  0
H  H4  1  0.95643311  0.31584488  0.77915235  1  0  0.142613  0  0.958525  0  0  0.146574  0  1.029085  0  0  0.150749  0  1.025833  0  0  0.118139  0.143563  0  1.031416  0
H  H5  1  0.04354111  0.18415598  0.27916090  1  0  0.142478  0  0.958683  0  0  0.146504  0  1.029173  0  0  0.150673  0  1.025928  0  0  0.11814  0.143502  0  1.031497  0
H  H6  1  0.04357153  0.68415861  0.22085354  1  0  0.14247  0  0.958692  0  0  0.146513  0  1.029164  0  0  0.150682  0  1.025917  0  0  0.11817  0.143502  0  1.031499  0
H  H7  1  0.95644072  0.81584159  0.72081443  1  0  0.142488  0  0.958844  0  0  0.14652  0  1.029289  0  0  0.150689  0  1.026045  0  0  0.11815  0.143489  0  1.031647  0
H  H8  1  0.73457555  0.31186642  0.89503574  1  0  0.133698  0  0.978533  0  0  0.140543  0  1.044394  0  0  0.144422  0  1.039015  0  0  0.142698  0.137604  0  1.048268  0
H  H9  1  0.26545778  0.18814167  0.39503140  1  0  0.133613  0  0.978715  0  0  0.140435  0  1.044599  0  0  0.144327  0  1.039201  0  0  0.142626  0.137481  0  1.048494  0
H  H10  1  0.26546085  0.68814813  0.10498034  1  0  0.133576  0  0.978588  0  0  0.140345  0  1.044578  0  0  0.144267  0  1.039137  0  0  0.142612  0.137393  0  1.048467  0
H  H11  1  0.73450123  0.81184997  0.60495093  1  0  0.133568  0  0.978639  0  0  0.140433  0  1.044557  0  0  0.144304  0  1.03917  0  0  0.142634  0.137542  0  1.04837  0
H  H12  1  0.74107186  0.58819928  0.72019244  1  0  0.117793  0  0.972428  0  0  0.122614  0  1.043781  0  0  0.126937  0  1.03953  0  0  0.110513  0.119484  0  1.046876  0
H  H13  1  0.25895707  0.91181627  0.22017005  1  0  0.117965  0  0.972222  0  0  0.122674  0  1.043655  0  0  0.126996  0  1.039401  0  0  0.11056  0.119541  0  1.04675  0
H  H14  1  0.25905982  0.41184044  0.27986185  1  0  0.117875  0  0.972531  0  0  0.122712  0  1.043792  0  0  0.127032  0  1.039542  0  0  0.11052  0.119586  0  1.04688  0
H  H15  1  0.74101544  0.08815942  0.77982629  1  0  0.117885  0  0.972706  0  0  0.122651  0  1.044026  0  0  0.126981  0  1.039781  0  0  0.110557  0.119522  0  1.047118  0
H  H16  1  0.23009512  0.48753671  0.91830599  1  0  0.10471  0  0.951472  0  0  0.11106  0  1.017265  0  0  0.113226  0  1.015342  0  0  0.123672  0.109383  0  1.018756  0
H  H17  1  0.76988674  0.01245682  0.41830515  1  0  0.104713  0  0.951485  0  0  0.111138  0  1.017169  0  0  0.113311  0  1.015244  0  0  0.123684  0.10945  0  1.018684  0
H  H18  1  0.76986305  0.51243309  0.08169927  1  0  0.104759  0  0.951453  0  0  0.111145  0  1.017179  0  0  0.113309  0  1.015249  0  0  0.123741  0.109456  0  1.018695  0
H  H19  1  0.23009019  0.98755309  0.58170647  1  0  0.104612  0  0.951439  0  0  0.111045  0  1.017144  0  0  0.113209  0  1.015219  0  0  0.123667  0.109359  0  1.018656  0
H  H20  1  0.29401857  0.50551907  0.58063420  1  0  0.115142  0  0.94436  0  0  0.124535  0  1.006679  0  0  0.128089  0  1.004273  0  0  0.110221  0.121958  0  1.008447  0
H  H21  1  0.70599175  0.99449792  0.08062864  1  0  0.115083  0  0.944382  0  0  0.12445  0  1.006761  0  0  0.127996  0  1.004344  0  0  0.11017  0.121875  0  1.008528  0
H  H22  1  0.70602089  0.49448676  0.41937488  1  0  0.115066  0  0.9444  0  0  0.124459  0  1.006744  0  0  0.128005  0  1.004337  0  0  0.110169  0.12188  0  1.00852  0
H  H23  1  0.29404336  0.00549770  0.91934350  1  0  0.115281  0  0.944313  0  0  0.124578  0  1.006734  0  0  0.128124  0  1.00432  0  0  0.110295  0.122009  0  1.008495  0
H  H24  1  0.40514741  0.36498466  0.53382041  1  0  0.119245  0  0.916101  0  0  0.130975  0  0.973862  0  0  0.133808  0  0.969988  0  0  0.150196  0.128837  0  0.976627  0
H  H25  1  0.59482674  0.13500575  0.03382334  1  0  0.119399  0  0.916114  0  0  0.131138  0  0.973829  0  0  0.133981  0  0.969948  0  0  0.15025  0.129  0  0.976596  0
H  H26  1  0.59485317  0.63500134  0.46618676  1  0  0.119215  0  0.916109  0  0  0.131126  0  0.973655  0  0  0.133977  0  0.969769  0  0  0.150229  0.128986  0  0.976423  0
H  H27  1  0.40509206  0.86498279  0.96616918  1  0  0.119193  0  0.915959  0  0  0.130978  0  0.973642  0  0  0.133826  0  0.969763  0  0  0.150093  0.128833  0  0.976425  0
H  H28  1  0.51655983  0.15917521  0.71584554  1  0  0.098684  0  0.956788  0  0  0.105928  0  1.021037  0  0  0.108703  0  1.017503  0  0  0.136107  0.103811  0  1.023729  0
H  H29  1  0.48347332  0.34083547  0.21583835  1  0  0.098763  0  0.956866  0  0  0.105976  0  1.021136  0  0  0.108756  0  1.017591  0  0  0.13613  0.103858  0  1.02383  0
H  H30  1  0.48339376  0.84080767  0.28416099  1  0  0.098713  0  0.956818  0  0  0.105928  0  1.02111  0  0  0.108711  0  1.017555  0  0  0.136105  0.103815  0  1.023791  0
H  H31  1  0.51661826  0.65918952  0.78414271  1  0  0.098551  0  0.957108  0  0  0.105832  0  1.021321  0  0  0.108604  0  1.01778  0  0  0.136089  0.103719  0  1.024001  0
C  C32  1  0.96964549  0.38263659  0.74198964  1  0  -0.19968  0  3.646748  0  0  -0.232681  0  3.913139  0  0  -0.236858  0  3.931183  0  0  -0.079098  -0.22954  0  3.900516  0
C  C33  1  0.03033029  0.11737336  0.24199319  1  0  -0.199424  0  3.646893  0  0  -0.232488  0  3.913185  0  0  -0.236694  0  3.931306  0  0  -0.079072  -0.229334  0  3.900498  0
C  C34  1  0.03035178  0.61737341  0.25802135  1  0  -0.199388  0  3.646675  0  0  -0.232321  0  3.912941  0  0  -0.236535  0  3.931081  0  0  -0.078953  -0.229158  0  3.900257  0
C  C35  1  0.96967107  0.88261847  0.75799423  1  0  -0.199528  0  3.646789  0  0  -0.232584  0  3.912983  0  0  -0.23678  0  3.931077  0  0  -0.079055  -0.229399  0  3.900324  0
C  C36  1  0.13531437  0.40323720  0.67778519  1  0  0.183884  0  3.784736  0  0  0.161191  0  4.044474  0  0  0.166029  0  4.066228  0  0  0.101209  0.158191  0  4.0294  0
C  C37  1  0.86467747  0.09676927  0.17779219  1  0  0.183733  0  3.784638  0  0  0.161025  0  4.044396  0  0  0.165859  0  4.066141  0  0  0.101216  0.158026  0  4.029327  0
C  C38  1  0.86469044  0.59677065  0.32222007  1  0  0.183828  0  3.785109  0  0  0.161237  0  4.044801  0  0  0.166071  0  4.066543  0  0  0.101109  0.15824  0  4.029727  0
C  C39  1  0.13532054  0.90323055  0.82218632  1  0  0.183823  0  3.785043  0  0  0.161274  0  4.044467  0  0  0.166108  0  4.06621  0  0  0.10115  0.158278  0  4.02939  0
C  C40  1  0.82929508  0.45076214  0.75692131  1  0  0.187288  0  3.771413  0  0  0.167679  0  4.02383  0  0  0.172282  0  4.046276  0  0  0.102744  0.164817  0  4.008267  0
C  C41  1  0.17069222  0.04923855  0.25691316  1  0  0.186924  0  3.771922  0  0  0.16743  0  4.024216  0  0  0.172017  0  4.046677  0  0  0.102565  0.164574  0  4.008647  0
C  C42  1  0.17074116  0.54924804  0.24309541  1  0  0.187093  0  3.771352  0  0  0.167239  0  4.024214  0  0  0.171829  0  4.046663  0  0  0.102474  0.164384  0  4.008652  0
C  C43  1  0.82929686  0.95076414  0.74307681  1  0  0.187273  0  3.771142  0  0  0.167612  0  4.023601  0  0  0.172221  0  4.046037  0  0  0.102648  0.16473  0  4.008068  0
C  C44  1  0.62947349  0.36705545  0.88482378  1  0  0.197589  0  3.566803  0  0  0.116844  0  3.829164  0  0  0.133175  0  3.837117  0  0  0.173444  0.106649  0  3.823448  0
C  C45  1  0.37054841  0.13296194  0.38481669  1  0  0.197561  0  3.566239  0  0  0.116841  0  3.828696  0  0  0.133151  0  3.836643  0  0  0.173481  0.106653  0  3.822998  0
C  C46  1  0.37055258  0.63295468  0.11519421  1  0  0.197622  0  3.566371  0  0  0.116938  0  3.828818  0  0  0.133241  0  3.836735  0  0  0.173541  0.106751  0  3.823119  0
C  C47  1  0.62943849  0.86703564  0.61517201  1  0  0.197908  0  3.566089  0  0  0.117057  0  3.828612  0  0  0.133402  0  3.836546  0  0  0.173508  0.106822  0  3.822873  0
C  C48  1  0.84962019  0.53531727  0.70814624  1  0  -0.133714  0  3.696587  0  0  -0.174008  0  3.955406  0  0  -0.175998  0  3.974145  0  0  -0.07964  -0.172465  0  3.942641  0
C  C49  1  0.15036582  0.96469724  0.20814505  1  0  -0.133831  0  3.697086  0  0  -0.173956  0  3.955702  0  0  -0.175946  0  3.974444  0  0  -0.079626  -0.17241  0  3.942936  0
C  C50  1  0.15043209  0.46469881  0.29187367  1  0  -0.133905  0  3.696898  0  0  -0.174087  0  3.955617  0  0  -0.176065  0  3.974348  0  0  -0.079525  -0.172554  0  3.942863  0
C  C51  1  0.84961261  0.03530030  0.79184938  1  0  -0.133987  0  3.697274  0  0  -0.174068  0  3.955859  0  0  -0.176079  0  3.974604  0  0  -0.079676  -0.172517  0  3.943107  0
C  C52  1  0.01451512  0.55368395  0.64384880  1  0  -0.022639  0  3.760191  0  0  0.006585  0  3.984023  0  0  0.000284  0  4.007223  0  0  -0.011008  0.010551  0  3.968532  0
C  C53  1  0.98543792  0.94631522  0.14386063  1  0  -0.022772  0  3.76065  0  0  0.006491  0  3.984365  0  0  0.000195  0  4.00755  0  0  -0.010949  0.010451  0  3.968883  0
C  C54  1  0.98549136  0.44631590  0.35615646  1  0  -0.022793  0  3.760576  0  0  0.006588  0  3.984109  0  0  0.000281  0  4.007298  0  0  -0.011125  0.010559  0  3.968627  0
C  C55  1  0.01456729  0.05367372  0.85613316  1  0  -0.02239  0  3.760437  0  0  0.00679  0  3.984175  0  0  0.000499  0  4.007364  0  0  -0.010874  0.010751  0  3.968695  0
C  C56  1  0.37508183  0.45768253  0.89473727  1  0  0.209037  0  3.684383  0  0  0.155945  0  3.972126  0  0  0.167451  0  3.985305  0  0  0.152257  0.148589  0  3.962877  0
C  C57  1  0.62490493  0.04231152  0.39473509  1  0  0.209182  0  3.684837  0  0  0.156038  0  3.972514  0  0  0.167534  0  3.985708  0  0  0.152327  0.148681  0  3.963262  0
C  C58  1  0.62488901  0.54230115  0.10526353  1  0  0.209133  0  3.684776  0  0  0.15602  0  3.97248  0  0  0.167541  0  3.985648  0  0  0.152327  0.148661  0  3.963229  0
C  C59  1  0.37509694  0.95769341  0.60526062  1  0  0.209348  0  3.684624  0  0  0.156187  0  3.972308  0  0  0.167702  0  3.985482  0  0  0.152371  0.148826  0  3.963054  0
C  C60  1  0.16063367  0.48792480  0.62887066  1  0  -0.14378  0  3.696614  0  0  -0.179589  0  3.952108  0  0  -0.182189  0  3.972137  0  0  -0.081724  -0.177657  0  3.938444  0
C  C61  1  0.83934201  0.01206947  0.12887442  1  0  -0.14365  0  3.696694  0  0  -0.179482  0  3.952215  0  0  -0.182055  0  3.97222  0  0  -0.081744  -0.177558  0  3.938566  0
C  C62  1  0.83936495  0.51207648  0.37112313  1  0  -0.143571  0  3.696566  0  0  -0.179442  0  3.951964  0  0  -0.182025  0  3.971981  0  0  -0.081574  -0.177516  0  3.938307  0
C  C63  1  0.16065798  0.98792308  0.87110919  1  0  -0.143953  0  3.696981  0  0  -0.179764  0  3.95245  0  0  -0.182351  0  3.972474  0  0  -0.081886  -0.177841  0  3.938797  0
C  C64  1  0.40606235  0.32465887  0.59266572  1  0  0.196831  0  3.603699  0  0  0.117307  0  3.866677  0  0  0.133195  0  3.87574  0  0  0.172478  0.10739  0  3.860079  0
C  C65  1  0.59392799  0.17533948  0.09266131  1  0  0.196743  0  3.604134  0  0  0.117203  0  3.867118  0  0  0.133082  0  3.876182  0  0  0.172452  0.107286  0  3.860522  0
C  C66  1  0.59392761  0.67533000  0.40733826  1  0  0.196869  0  3.603761  0  0  0.11723  0  3.866741  0  0  0.133106  0  3.875821  0  0  0.172399  0.107312  0  3.860142  0
C  C67  1  0.40603949  0.82465220  0.90732038  1  0  0.196959  0  3.603826  0  0  0.117371  0  3.866742  0  0  0.133246  0  3.875828  0  0  0.17268  0.107454  0  3.860139  0
C  C68  1  0.45929023  0.22084460  0.68697797  1  0  0.216136  0  3.682357  0  0  0.162632  0  3.971287  0  0  0.173973  0  3.983394  0  0  0.155183  0.155371  0  3.962751  0
C  C69  1  0.54071148  0.27915692  0.18697297  1  0  0.215862  0  3.682555  0  0  0.162388  0  3.971476  0  0  0.173724  0  3.983585  0  0  0.155112  0.155126  0  3.962944  0
C  C70  1  0.54067832  0.77914563  0.31302983  1  0  0.216158  0  3.682561  0  0  0.162674  0  3.97143  0  0  0.174021  0  3.983541  0  0  0.155171  0.155408  0  3.962894  0
C  C71  1  0.45932583  0.72085181  0.81301063  1  0  0.216078  0  3.682765  0  0  0.162529  0  3.971727  0  0  0.17388  0  3.983836  0  0  0.155091  0.155265  0  3.963191  0
C  C72  1  0.03512830  0.64686370  0.59353265  1  0  0.644049  0  3.926109  0  0  0.595151  0  4.217428  0  0  0.629453  0  4.209542  0  0  0.204048  0.571925  0  4.221945  0
C  C73  1  0.96485961  0.85314386  0.09352208  1  0  0.644217  0  3.925844  0  0  0.595252  0  4.217245  0  0  0.629554  0  4.20935  0  0  0.20406  0.57203  0  4.221759  0
C  C74  1  0.96489563  0.35314934  0.40648215  1  0  0.643974  0  3.926297  0  0  0.595025  0  4.217609  0  0  0.629335  0  4.209722  0  0  0.204025  0.571798  0  4.222123  0
C  C75  1  0.03510525  0.14684562  0.90647299  1  0  0.64375  0  3.925621  0  0  0.594828  0  4.216993  0  0  0.629131  0  4.209114  0  0  0.203957  0.571604  0  4.2215  0
N  N76  1  0.28393056  0.33613218  0.66326110  1  0  0.010556  0  3.590292  0  0  0.127049  0  3.77127  0  0  0.116165  0  3.794303  0  0  -0.112906  0.132591  0  3.75843  0
N  N77  1  0.71606453  0.16387854  0.16325940  1  0  0.010603  0  3.590339  0  0  0.127113  0  3.771292  0  0  0.116238  0  3.794312  0  0  -0.112866  0.132652  0  3.758452  0
N  N78  1  0.71607622  0.66386841  0.33674543  1  0  0.010793  0  3.590457  0  0  0.127088  0  3.771614  0  0  0.11622  0  3.794624  0  0  -0.112784  0.132627  0  3.758776  0
N  N79  1  0.28393797  0.83612785  0.83672229  1  0  0.010399  0  3.590549  0  0  0.126948  0  3.771372  0  0  0.116094  0  3.794348  0  0  -0.112889  0.132486  0  3.758534  0
N  N80  1  0.66141693  0.43494255  0.82255951  1  0  0.011793  0  3.585928  0  0  0.128425  0  3.763563  0  0  0.117557  0  3.786242  0  0  -0.114833  0.134113  0  3.750655  0
N  N81  1  0.33859010  0.06506616  0.32255120  1  0  0.012341  0  3.585401  0  0  0.128729  0  3.763304  0  0  0.117928  0  3.785867  0  0  -0.114743  0.134409  0  3.750397  0
N  N82  1  0.33861316  0.56506906  0.17745721  1  0  0.01217  0  3.585695  0  0  0.128637  0  3.763659  0  0  0.1178  0  3.786295  0  0  -0.11477  0.134318  0  3.750754  0
N  N83  1  0.66140790  0.93493366  0.67743305  1  0  0.011907  0  3.585774  0  0  0.128407  0  3.763664  0  0  0.117543  0  3.786331  0  0  -0.114769  0.134099  0  3.750768  0
N  N84  1  0.52076087  0.25270760  0.60630182  1  0  -0.391594  0  3.270212  0  0  -0.310877  0  3.574595  0  0  -0.332308  0  3.584345  0  0  -0.345797  -0.29647  0  3.567466  0
N  N85  1  0.47923820  0.24728292  0.10630027  1  0  -0.391558  0  3.270592  0  0  -0.310844  0  3.574902  0  0  -0.332272  0  3.584662  0  0  -0.345765  -0.29644  0  3.567776  0
N  N86  1  0.47921228  0.74727756  0.39370408  1  0  -0.391895  0  3.270509  0  0  -0.311133  0  3.574842  0  0  -0.332582  0  3.584619  0  0  -0.345795  -0.296738  0  3.567752  0
N  N87  1  0.52076272  0.75271182  0.89369543  1  0  -0.391307  0  3.269955  0  0  -0.31061  0  3.574369  0  0  -0.332054  0  3.584134  0  0  -0.34566  -0.296212  0  3.567259  0
N  N88  1  0.44824457  0.37979318  0.93117914  1  0  -0.398692  0  3.262515  0  0  -0.318404  0  3.570219  0  0  -0.340487  0  3.579324  0  0  -0.348243  -0.303593  0  3.563581  0
N  N89  1  0.55177746  0.12020285  0.43117104  1  0  -0.398873  0  3.262555  0  0  -0.318527  0  3.570201  0  0  -0.340613  0  3.579319  0  0  -0.348328  -0.303713  0  3.563559  0
N  N90  1  0.55175939  0.62019284  0.06882293  1  0  -0.398758  0  3.262541  0  0  -0.318407  0  3.570175  0  0  -0.340494  0  3.579285  0  0  -0.348317  -0.30359  0  3.563534  0
N  N91  1  0.44819499  0.87980049  0.56881702  1  0  -0.399029  0  3.262429  0  0  -0.318641  0  3.570133  0  0  -0.340721  0  3.579222  0  0  -0.348407  -0.303828  0  3.563511  0
N  N92  1  0.50045731  0.49320465  0.82839986  1  0  -0.260388  0  2.886591  0  0  -0.257841  0  3.158906  0  0  -0.267215  0  3.173486  0  0  -0.212441  -0.251216  0  3.148957  0
N  N93  1  0.49953577  0.00679096  0.32839652  1  0  -0.260655  0  2.886609  0  0  -0.258045  0  3.159003  0  0  -0.267439  0  3.173595  0  0  -0.212468  -0.251417  0  3.14905  0
N  N94  1  0.49953883  0.50679080  0.17160603  1  0  -0.260625  0  2.886772  0  0  -0.257992  0  3.159112  0  0  -0.267378  0  3.173684  0  0  -0.212487  -0.251363  0  3.149165  0
N  N95  1  0.50048474  0.99321406  0.67159728  1  0  -0.260615  0  2.886631  0  0  -0.258002  0  3.159003  0  0  -0.267383  0  3.173585  0  0  -0.212448  -0.251374  0  3.149051  0
N  N96  1  0.31628656  0.26997239  0.72407476  1  0  -0.240348  0  2.834316  0  0  -0.241675  0  3.103525  0  0  -0.249945  0  3.11824  0  0  -0.210428  -0.235777  0  3.093483  0
N  N97  1  0.68373058  0.23003612  0.22407350  1  0  -0.240232  0  2.834438  0  0  -0.241561  0  3.103625  0  0  -0.24983  0  3.118348  0  0  -0.210429  -0.235667  0  3.093583  0
N  N98  1  0.68370435  0.73002667  0.27593241  1  0  -0.240379  0  2.834395  0  0  -0.241675  0  3.103593  0  0  -0.249943  0  3.118305  0  0  -0.210462  -0.23578  0  3.093555  0
N  N99  1  0.31632167  0.76997195  0.77591329  1  0  -0.240291  0  2.834772  0  0  -0.241689  0  3.104047  0  0  -0.249961  0  3.11876  0  0  -0.210548  -0.235793  0  3.094001  0
Cl  Cl100  1  0.98456785  0.12595529  0.57270566  1  0  -0.571097  0  0.957554  0  0  -0.515038  0  1.250199  0  0  -0.530523  0  1.228277  0  0  -0.323986  -0.503746  0  1.265231  0
Cl  Cl101  1  0.01544334  0.37404514  0.07269905  1  0  -0.571092  0  0.957536  0  0  -0.515036  0  1.250149  0  0  -0.530521  0  1.228224  0  0  -0.324  -0.50374  0  1.265173  0
Cl  Cl102  1  0.01538946  0.87403635  0.42728304  1  0  -0.571064  0  0.957522  0  0  -0.514981  0  1.250156  0  0  -0.530478  0  1.22824  0  0  -0.323961  -0.503685  0  1.265181  0
Cl  Cl103  1  0.98455964  0.62596634  0.92729474  1  0  -0.571071  0  0.957495  0  0  -0.515018  0  1.250161  0  0  -0.530501  0  1.228234  0  0  -0.323999  -0.503726  0  1.265194  0
O  O104  1  0.19909815  0.66181278  0.53776198  1  0  -0.645776  0  2.055754  0  0  -0.572611  0  2.323943  0  0  -0.601647  0  2.310137  0  0  -0.338083  -0.552231  0  2.332614  0
O  O105  1  0.80083746  0.83819326  0.03775860  1  0  -0.645837  0  2.055224  0  0  -0.572628  0  2.323352  0  0  -0.601688  0  2.309596  0  0  -0.338002  -0.552242  0  2.332023  0
O  O106  1  0.80090516  0.33820743  0.46224518  1  0  -0.645658  0  2.055615  0  0  -0.572532  0  2.323839  0  0  -0.60154  0  2.309968  0  0  -0.337913  -0.55215  0  2.332508  0
O  O107  1  0.19914942  0.16179632  0.96223200  1  0  -0.645647  0  2.055119  0  0  -0.572475  0  2.323248  0  0  -0.601519  0  2.309461  0  0  -0.337956  -0.552092  0  2.331915  0
O  O108  1  0.89642863  0.70235010  0.60778326  1  0  -0.621099  0  1.954097  0  0  -0.577393  0  2.184705  0  0  -0.600478  0  2.174269  0  0  -0.323186  -0.561237  0  2.191325  0
O  O109  1  0.10356451  0.79766126  0.10775650  1  0  -0.621144  0  1.954285  0  0  -0.577426  0  2.184961  0  0  -0.600516  0  2.17452  0  0  -0.323276  -0.561255  0  2.191581  0
O  O110  1  0.10362271  0.29766378  0.39225766  1  0  -0.62105  0  1.953789  0  0  -0.577397  0  2.184533  0  0  -0.600496  0  2.174098  0  0  -0.32329  -0.561224  0  2.191153  0
O  O111  1  0.89636137  0.20232805  0.89225258  1  0  -0.621016  0  1.953785  0  0  -0.577329  0  2.184459  0  0  -0.600411  0  2.174016  0  0  -0.323223  -0.561158  0  2.191073  0
