# generated using pymatgen
data_Zn2H52C41(N3O4)2
_symmetry_space_group_name_H-M   'P 1'
_cell_length_a   12.29760067
_cell_length_b   12.57845189
_cell_length_c   15.74324165
_cell_angle_alpha   91.16672122
_cell_angle_beta   98.08141803
_cell_angle_gamma   100.77052653
_symmetry_Int_Tables_number   1
_chemical_formula_structural   Zn2H52C41(N3O4)2
_chemical_formula_sum   'Zn4 H104 C82 N12 O16'
_cell_volume   2365.85793150
_cell_formula_units_Z   2
loop_
 _symmetry_equiv_pos_site_id
 _symmetry_equiv_pos_as_xyz
  1  'x, y, z'
loop_
 _atom_site_type_symbol
 _atom_site_label
 _atom_site_symmetry_multiplicity
 _atom_site_fract_x
 _atom_site_fract_y
 _atom_site_fract_z
 _atom_site_occupancy
 _atom_site_pbe_bader_charge
 _atom_site_pbe_bader_spin_density
 _atom_site_pbe_cm5_charge
 _atom_site_pbe_ddec_charge
 _atom_site_pbe_ddec_spin_density
 _atom_site_pbe_ddec_sum_bond_order
 _atom_site_pbe_magmom
Zn  Zn0  1  0.19407600  0.80742192  0.33563008  1  1.25844  0  0.684981  0.775271  0  2.401489  0
Zn  Zn1  1  0.80592142  0.19258157  0.66436864  1  1.2585  0  0.684964  0.775241  0  2.401524  0
Zn  Zn2  1  0.48192497  0.61447287  0.91001086  1  1.290227  0  0.687196  0.852241  0  2.338306  0
Zn  Zn3  1  0.51807365  0.38552416  0.08998856  1  1.290237  0  0.687164  0.852193  0  2.338345  0
H  H4  1  0.54943589  0.79714077  0.12005297  1  0.075023  0  0.112154  0.097605  0  1.017138  0
H  H5  1  0.45056238  0.20285869  0.87994644  1  0.075043  0  0.11214  0.097584  0  1.017151  0
H  H6  1  0.60011814  0.77165332  0.22591783  1  0.086405  0  0.123745  0.112045  0  0.96571  0
H  H7  1  0.39988080  0.22834533  0.77408164  1  0.086404  0  0.123722  0.111985  0  0.9658  0
H  H8  1  0.49054795  0.03335638  0.17007700  1  0.140181  0  0.1246  0.138605  0  1.027357  0
H  H9  1  0.50945475  0.96664471  0.82992165  1  0.140202  0  0.124627  0.138666  0  1.02734  0
H  H10  1  0.29249358  0.01592910  0.23591667  1  0.111436  0  0.123751  0.120016  0  0.992204  0
H  H11  1  0.70750975  0.98407522  0.76408208  1  0.111535  0  0.12378  0.120041  0  0.992174  0
H  H12  1  0.41353730  0.72684749  0.28069720  1  0.197638  0  0.143667  0.129095  0  0.997562  0
H  H13  1  0.58646160  0.27315522  0.71930421  1  0.197589  0  0.143674  0.129111  0  0.997581  0
H  H14  1  0.63812342  0.86635698  0.34076078  1  0.009914  0  0.095474  0.12808  0  1.041153  0
H  H15  1  0.36187681  0.13364411  0.65923949  1  0.009918  0  0.095474  0.128084  0  1.041138  0
H  H16  1  0.74521108  0.96180400  0.39990901  1  0.023199  0  0.09206  0.122663  0  1.057218  0
H  H17  1  0.25478950  0.03819466  0.60009128  1  0.023198  0  0.092056  0.122654  0  1.057234  0
H  H18  1  0.77735822  0.84460627  0.35300532  1  0.039806  0  0.097912  0.137435  0  0.981553  0
H  H19  1  0.22264139  0.15539157  0.64699422  1  0.039833  0  0.097917  0.137452  0  0.981533  0
H  H20  1  0.93105078  0.18535310  0.34736502  1  0.052958  0  0.120475  0.105597  0  0.971396  0
H  H21  1  0.06894797  0.81464879  0.65263510  1  0.052987  0  0.120474  0.105603  0  0.97144  0
H  H22  1  0.86057574  0.07903913  0.40076222  1  0.070616  0  0.113395  0.092859  0  1.022837  0
H  H23  1  0.13942597  0.92096116  0.59923885  1  0.070634  0  0.113395  0.092855  0  1.022849  0
H  H24  1  0.09565224  0.15674813  0.47233048  1  0.128763  0  0.131883  0.135272  0  0.984119  0
H  H25  1  0.90434862  0.84325620  0.52766990  1  0.12882  0  0.131852  0.135296  0  0.984135  0
H  H26  1  0.24982105  0.01938421  0.46653256  1  0.111695  0  0.122533  0.117274  0  1.020931  0
H  H27  1  0.75018012  0.98062175  0.53346915  1  0.111709  0  0.122552  0.117259  0  1.020996  0
H  H28  1  0.98181606  0.92223039  0.26656860  1  0.188731  0  0.13627  0.10542  0  1.034053  0
H  H29  1  0.01818711  0.07777313  0.73343203  1  0.188743  0  0.136295  0.105462  0  1.034095  0
H  H30  1  0.01927993  0.17391693  0.15597310  1  0.083232  0  0.102877  0.145829  0  0.968999  0
H  H31  1  0.98072159  0.82608659  0.84402671  1  0.083141  0  0.102839  0.145775  0  0.96905  0
H  H32  1  0.98529231  0.23536137  0.24762023  1  0.03094  0  0.097429  0.133796  0  1.013581  0
H  H33  1  0.01470675  0.76464213  0.75237868  1  0.030974  0  0.097406  0.133733  0  1.013604  0
H  H34  1  0.92351813  0.26328874  0.14499936  1  0.031469  0  0.096966  0.134386  0  1.014524  0
H  H35  1  0.07647834  0.73670990  0.85500047  1  0.03157  0  0.096989  0.134383  0  1.014517  0
H  H36  1  0.89195550  0.15951384  0.02738567  1  0.091319  0  0.116959  0.10396  0  0.998838  0
H  H37  1  0.10804786  0.84048646  0.97261622  1  0.091358  0  0.116948  0.103895  0  0.998926  0
H  H38  1  0.78520516  0.06185645  0.96983215  1  0.108876  0  0.12222  0.115486  0  0.963231  0
H  H39  1  0.21480035  0.93814223  0.03016869  1  0.109084  0  0.122157  0.115475  0  0.96326  0
H  H40  1  0.77125446  0.24729085  0.88493801  1  0.182855  0  0.127989  0.142335  0  1.028142  0
H  H41  1  0.22875039  0.75270863  0.11506213  1  0.182871  0  0.127983  0.142356  0  1.028132  0
H  H42  1  0.62109344  0.38617819  0.90678596  1  0.113883  0  0.130166  0.134275  0  0.978098  0
H  H43  1  0.37891156  0.61382210  0.09321357  1  0.113855  0  0.130195  0.134279  0  0.978096  0
H  H44  1  0.65518562  0.19969884  0.12486227  1  0.188384  0  0.136718  0.112147  0  1.029773  0
H  H45  1  0.34481481  0.80029899  0.87513609  1  0.188373  0  0.136754  0.112181  0  1.029735  0
H  H46  1  0.62493221  0.99310307  0.97389425  1  0.031854  0  0.089879  0.118293  0  1.058835  0
H  H47  1  0.37507080  0.00689964  0.02610508  1  0.031908  0  0.08987  0.11829  0  1.058865  0
H  H48  1  0.53202995  0.91352811  0.03295824  1  0.029675  0  0.092179  0.129567  0  1.027505  0
H  H49  1  0.46797192  0.08647297  0.96704031  1  0.029625  0  0.092199  0.129589  0  1.027466  0
H  H50  1  0.64252606  0.86058208  0.99887745  1  0.078109  0  0.10406  0.158441  0  0.979171  0
H  H51  1  0.35747515  0.13941981  0.00112167  1  0.078101  0  0.104054  0.158467  0  0.979177  0
H  H52  1  0.98672716  0.72924686  0.02997175  1  0.004886  0  0.08241  0.075201  0  1.047892  0
H  H53  1  0.01327471  0.27075424  0.97003062  1  0.004974  0  0.08239  0.075174  0  1.047881  0
H  H54  1  0.04064802  0.60947247  0.02338604  1  0.004964  0  0.082395  0.07943  0  1.032277  0
H  H55  1  0.95935334  0.39053023  0.97661312  1  0.004955  0  0.08239  0.079419  0  1.032281  0
H  H56  1  0.82360021  0.63485756  0.94385878  1  0.056106  0  0.089125  0.095918  0  1.000485  0
H  H57  1  0.17640132  0.36514595  0.05614039  1  0.056145  0  0.08914  0.095954  0  1.000482  0
H  H58  1  0.86098272  0.50834092  0.96217518  1  0.031802  0  0.08011  0.067869  0  1.053147  0
H  H59  1  0.13901767  0.49166097  0.03782386  1  0.03212  0  0.080093  0.067838  0  1.053168  0
H  H60  1  0.76778220  0.48007036  0.08050349  1  0.020682  0  0.096435  0.078366  0  1.021003  0
H  H61  1  0.23221968  0.51993072  0.91949507  1  0.020653  0  0.096428  0.078331  0  1.020994  0
H  H62  1  0.98497707  0.50933964  0.23502842  1  0.044802  0  0.090666  0.130488  0  1.01186  0
H  H63  1  0.01502301  0.49066064  0.76497183  1  0.044829  0  0.090666  0.130487  0  1.011814  0
H  H64  1  0.08085963  0.52063824  0.16070821  1  0.032836  0  0.089079  0.125196  0  1.003827  0
H  H65  1  0.91914110  0.47936123  0.83929274  1  0.032892  0  0.089079  0.125181  0  1.003863  0
H  H66  1  0.94079887  0.45329600  0.12754256  1  -0.010734  0  0.080774  0.109438  0  1.029059  0
H  H67  1  0.05920335  0.54670268  0.87246046  1  -0.010795  0  0.080811  0.109469  0  1.029058  0
H  H68  1  0.84629012  0.64089296  0.28257311  1  0.020027  0  0.082939  0.120588  0  1.012498  0
H  H69  1  0.15370847  0.35910811  0.71742508  1  0.019995  0  0.082945  0.120621  0  1.012465  0
H  H70  1  0.80444438  0.50816831  0.23427582  1  0.018875  0  0.085997  0.118653  0  1.024719  0
H  H71  1  0.19555538  0.49183035  0.76572438  1  0.018884  0  0.085984  0.118664  0  1.024745  0
H  H72  1  0.70818528  0.59640351  0.22500494  1  0.028104  0  0.085321  0.128147  0  1.01507  0
H  H73  1  0.29181511  0.40359839  0.77499536  1  0.02808  0  0.085325  0.128146  0  1.015085  0
H  H74  1  0.84951567  0.79004454  0.07801940  1  0.041732  0  0.091006  0.134561  0  0.994613  0
H  H75  1  0.15048457  0.20995654  0.92197960  1  0.041751  0  0.091008  0.134539  0  0.994658  0
H  H76  1  0.85887892  0.80351180  0.19124926  1  0.007404  0  0.081112  0.10915  0  1.042064  0
H  H77  1  0.14112033  0.19648847  0.80874963  1  0.00738  0  0.08111  0.109142  0  1.042048  0
H  H78  1  0.72859200  0.75180286  0.12783444  1  -0.008732  0  0.084186  0.114302  0  1.051387  0
H  H79  1  0.27140971  0.24819742  0.87216472  1  -0.008753  0  0.084171  0.11428  0  1.051397  0
H  H80  1  0.57557973  0.67533589  0.48375854  1  0.016226  0  0.082651  0.080966  0  0.992857  0
H  H81  1  0.42441776  0.32465953  0.51624264  1  0.016159  0  0.08262  0.080926  0  0.992826  0
H  H82  1  0.45730325  0.57731301  0.49441489  1  0.04018  0  0.091247  0.095228  0  1.017611  0
H  H83  1  0.54269290  0.42268404  0.50558742  1  0.040233  0  0.091264  0.095247  0  1.017546  0
H  H84  1  0.52655954  0.55889264  0.63972473  1  0.037476  0  0.090403  0.095434  0  1.002401  0
H  H85  1  0.47343708  0.44110682  0.36027640  1  0.038724  0  0.090435  0.095521  0  1.00236  0
H  H86  1  0.64871886  0.65235901  0.62970130  1  0.027684  0  0.083552  0.079414  0  0.989849  0
H  H87  1  0.35127780  0.34763641  0.37030042  1  0.027658  0  0.083541  0.0794  0  0.989978  0
H  H88  1  0.57235482  0.80363214  0.67365803  1  0.021153  0  0.094113  0.075401  0  1.002947  0
H  H89  1  0.42764231  0.19636569  0.32634059  1  0.021676  0  0.0941  0.075385  0  1.002927  0
H  H90  1  0.58312693  0.87369177  0.55686987  1  0.018222  0  0.083687  0.111613  0  1.034708  0
H  H91  1  0.41687236  0.12630443  0.44312707  1  0.01818  0  0.083679  0.111574  0  1.034783  0
H  H92  1  0.45967027  0.91706805  0.50878656  1  0.043566  0  0.086761  0.123359  0  1.033596  0
H  H93  1  0.54033031  0.08293059  0.49121118  1  0.043506  0  0.086741  0.123313  0  1.033673  0
H  H94  1  0.53604160  0.84945318  0.44509594  1  0.00802  0  0.079992  0.105319  0  1.041286  0
H  H95  1  0.46395573  0.15054140  0.55490203  1  0.008048  0  0.079989  0.105313  0  1.041267  0
H  H96  1  0.33863493  0.83147648  0.70869687  1  0.012386  0  0.077417  0.106281  0  1.041674  0
H  H97  1  0.66136267  0.16852377  0.29130120  1  0.012371  0  0.077424  0.106269  0  1.04163  0
H  H98  1  0.29409513  0.85494375  0.59860129  1  0.047275  0  0.079352  0.113915  0  1.054902  0
H  H99  1  0.70590315  0.14505570  0.40139685  1  0.047249  0  0.079339  0.113889  0  1.054905  0
H  H100  1  0.43183266  0.91311993  0.65001729  1  0.015949  0  0.080913  0.114604  0  1.027549  0
H  H101  1  0.56816695  0.08687790  0.34998098  1  0.015908  0  0.080938  0.114617  0  1.027512  0
H  H102  1  0.33019495  0.56491134  0.59995230  1  0.044979  0  0.092929  0.134392  0  0.99382  0
H  H103  1  0.66979971  0.43508650  0.40004859  1  0.045034  0  0.092921  0.134402  0  0.993787  0
H  H104  1  0.23224390  0.65231104  0.58003905  1  0.047316  0  0.08458  0.121314  0  1.009653  0
H  H105  1  0.76775175  0.34768761  0.41996132  1  0.047262  0  0.084577  0.121323  0  1.009593  0
H  H106  1  0.29078104  0.63210580  0.68721267  1  -0.00959  0  0.081314  0.112501  0  1.029639  0
H  H107  1  0.70921575  0.36789446  0.31278722  1  -0.009629  0  0.08134  0.112518  0  1.029651  0
C  C108  1  0.67455249  0.92865878  0.18474754  1  -0.030679  0  -0.014451  -0.03479  0  3.924394  0
C  C109  1  0.32544809  0.07133987  0.81525148  1  -0.030675  0  -0.014434  -0.034779  0  3.924435  0
C  C110  1  0.74493286  0.96513075  0.26217172  1  -0.010506  0  0.000357  0.09565  0  3.934499  0
C  C111  1  0.25506788  0.03486871  0.73782796  1  -0.010487  0  0.000353  0.09566  0  3.93464  0
C  C112  1  0.83451000  0.05369839  0.26258121  1  -0.052439  0  -0.017529  -0.047914  0  3.93201  0
C  C113  1  0.16549172  0.94630190  0.73742049  1  -0.052456  0  -0.017508  -0.047902  0  3.932003  0
C  C114  1  0.85503501  0.10370914  0.18542528  1  0.03111  0  -0.00242  0.086078  0  3.944117  0
C  C115  1  0.14496670  0.89629115  0.81457579  1  0.031097  0  -0.002468  0.086008  0  3.944235  0
C  C116  1  0.78548096  0.06375832  0.10804900  1  -0.005764  0  -0.019596  -0.046184  0  3.93643  0
C  C117  1  0.21451962  0.93624035  0.89195193  1  -0.005772  0  -0.019552  -0.04608  0  3.936426  0
C  C118  1  0.69436339  0.97706181  0.10711644  1  -0.00671  0  0.000252  0.094706  0  3.937936  0
C  C119  1  0.30563735  0.02293767  0.89288388  1  -0.006688  0  0.00022  0.094613  0  3.938001  0
C  C120  1  0.57711025  0.83544392  0.18456983  1  0.290184  0  -0.048462  -0.109512  0  3.904703  0
C  C121  1  0.42288900  0.16455635  0.81543033  1  0.290184  0  -0.048419  -0.109342  0  3.904748  0
C  C122  1  0.44396493  0.96563890  0.19922468  1  0.296345  0  0.002728  -0.106746  0  3.917075  0
C  C123  1  0.55603695  0.03436219  0.80077451  1  0.296366  0  0.002636  -0.106887  0  3.917159  0
C  C124  1  0.34659148  0.95743609  0.23402010  1  0.426882  0  0.001155  -0.029338  0  3.998783  0
C  C125  1  0.65341086  0.04256743  0.76597981  1  0.426851  0  0.001136  -0.029301  0  3.9989  0
C  C126  1  0.40660018  0.80673985  0.25833649  1  0.950086  0  0.143437  0.081166  0  3.90467  0
C  C127  1  0.59339954  0.19326286  0.74166375  1  0.950071  0  0.143475  0.081255  0  3.904516  0
C  C128  1  0.72522223  0.90691549  0.34285769  1  -0.013938  0  -0.239053  -0.414516  0  3.957413  0
C  C129  1  0.27477769  0.09308398  0.65714317  1  -0.013936  0  -0.239059  -0.414557  0  3.95747  0
C  C130  1  0.90637899  0.09692398  0.34628989  1  0.316039  0  -0.045313  -0.096218  0  3.905837  0
C  C131  1  0.09362124  0.90307710  0.65370975  1  0.316019  0  -0.045286  -0.096147  0  3.905885  0
C  C132  1  0.09563367  0.08755370  0.43021251  1  0.321783  0  -0.0019  -0.120489  0  3.935686  0
C  C133  1  0.90436738  0.91244741  0.56978976  1  0.321846  0  -0.001929  -0.12061  0  3.935514  0
C  C134  1  0.17040254  0.01942471  0.42690027  1  0.391906  0  0.001954  -0.032101  0  4.013501  0
C  C135  1  0.82959847  0.98058044  0.57310077  1  0.391819  0  0.001895  -0.032101  0  4.013546  0
C  C136  1  0.03342329  0.96553081  0.32265841  1  0.95362  0  0.147803  0.097626  0  3.896773  0
C  C137  1  0.96657906  0.03447271  0.67734150  1  0.953567  0  0.147749  0.097553  0  3.896885  0
C  C138  1  0.95002716  0.19861350  0.18378722  1  -0.078525  0  -0.235784  -0.410523  0  3.958912  0
C  C139  1  0.04997240  0.80138840  0.81621363  1  -0.078545  0  -0.235736  -0.410374  0  3.958876  0
C  C140  1  0.80472654  0.11898727  0.02582024  1  0.246733  0  -0.044147  -0.095672  0  3.876777  0
C  C141  1  0.19527650  0.88101141  0.97418096  1  0.246464  0  -0.044091  -0.095639  0  3.876787  0
C  C142  1  0.72503465  0.26037944  0.93678902  1  0.310312  0  0.007631  -0.098186  0  3.880205  0
C  C143  1  0.27496840  0.73961922  0.06321028  1  0.310355  0  0.007605  -0.098261  0  3.880363  0
C  C144  1  0.65146732  0.32737463  0.94870894  1  0.395417  0  0.002534  -0.032766  0  3.984376  0
C  C145  1  0.34853655  0.67262403  0.05128981  1  0.395776  0  0.002506  -0.032762  0  3.984451  0
C  C146  1  0.66752062  0.23285435  0.06328292  1  0.94487  0  0.138343  0.080361  0  3.915693  0
C  C147  1  0.33247980  0.76714349  0.93671544  1  0.943972  0  0.138286  0.080294  0  3.915789  0
C  C148  1  0.62018093  0.93462125  0.02430426  1  -0.058039  0  -0.242382  -0.422186  0  3.941003  0
C  C149  1  0.37982094  0.06537984  0.97569556  1  -0.058068  0  -0.2424  -0.422241  0  3.941068  0
C  C150  1  0.04364158  0.72281302  0.19454446  1  1.529997  0  0.199993  0.562572  0  4.13473  0
C  C151  1  0.95635767  0.27718727  0.80545760  1  1.530027  0  0.199955  0.562505  0  4.134798  0
C  C152  1  0.96413981  0.63025079  0.13878823  1  0.031494  0  -0.012976  0.022244  0  3.719688  0
C  C153  1  0.03585862  0.36974948  0.86121247  1  0.031492  0  -0.012985  0.022263  0  3.719652  0
C  C154  1  0.97069024  0.64264211  0.04232485  1  0.003112  0  -0.17162  -0.196691  0  3.904134  0
C  C155  1  0.02930999  0.35735899  0.95767669  1  0.003027  0  -0.171573  -0.19659  0  3.904009  0
C  C156  1  0.85644589  0.58531745  0.99409092  1  -0.054894  0  -0.173687  -0.164139  0  3.910495  0
C  C157  1  0.14355532  0.41468444  0.00590884  1  -0.055307  0  -0.173702  -0.164177  0  3.910541  0
C  C158  1  0.77728937  0.56471503  0.06199434  1  0.008662  0  -0.090604  -0.174124  0  3.800119  0
C  C159  1  0.22271086  0.43528605  0.93800467  1  0.008753  0  -0.090609  -0.174115  0  3.800166  0
C  C160  1  0.83791758  0.63584801  0.14388915  1  0.046316  0  -0.004382  0.200807  0  3.703203  0
C  C161  1  0.16208151  0.36415146  0.85611098  1  0.046371  0  -0.00434  0.200854  0  3.703151  0
C  C162  1  0.65918017  0.58232769  0.03274229  1  1.53971  0  0.216867  0.612815  0  4.110743  0
C  C163  1  0.34081974  0.41767176  0.96725602  1  1.539654  0  0.216818  0.61279  0  4.11079  0
C  C164  1  0.99339887  0.52167129  0.16745792  1  -0.049259  0  -0.244967  -0.394907  0  3.922122  0
C  C165  1  0.00660105  0.47832818  0.83254358  1  -0.049272  0  -0.245033  -0.394986  0  3.922178  0
C  C166  1  0.79697140  0.59303003  0.22620605  1  -0.047694  0  -0.24822  -0.419777  0  3.918378  0
C  C167  1  0.20302769  0.40696943  0.77379281  1  -0.047655  0  -0.248218  -0.419822  0  3.918398  0
C  C168  1  0.81846749  0.75200138  0.13426135  1  -0.036367  0  -0.248206  -0.418026  0  3.902208  0
C  C169  1  0.18153325  0.24799808  0.86573833  1  -0.036358  0  -0.248178  -0.417973  0  3.902164  0
C  C170  1  0.33861085  0.72433978  0.45041431  1  1.552828  0  0.200274  0.570602  0  4.134388  0
C  C171  1  0.66138675  0.27566050  0.54958757  1  1.552867  0  0.200352  0.570716  0  4.134284  0
C  C172  1  0.43769771  0.74191526  0.52402422  1  0.01838  0  -0.012822  0.018966  0  3.715851  0
C  C173  1  0.56230025  0.25808259  0.47597767  1  0.018399  0  -0.012925  0.018915  0  3.715665  0
C  C174  1  0.50931986  0.65290186  0.52391076  1  -0.032219  0  -0.170277  -0.19665  0  3.887036  0
C  C175  1  0.49067743  0.34709679  0.47608979  1  -0.03218  0  -0.17026  -0.196595  0  3.886919  0
C  C176  1  0.55698161  0.64030972  0.61879440  1  -0.015373  0  -0.167269  -0.158772  0  3.906288  0
C  C177  1  0.44301372  0.35968731  0.38120528  1  -0.016581  0  -0.167325  -0.158957  0  3.906502  0
C  C178  1  0.51502935  0.72481075  0.67101647  1  0.00501  0  -0.089128  -0.164736  0  3.820471  0
C  C179  1  0.48496794  0.27518789  0.32898345  1  0.004392  0  -0.089036  -0.164601  0  3.820482  0
C  C180  1  0.40287959  0.73933049  0.61637739  1  0.049215  0  -0.00595  0.203246  0  3.7031  0
C  C181  1  0.59711739  0.26066653  0.38362248  1  0.049304  0  -0.006011  0.203247  0  3.702958  0
C  C182  1  0.50340759  0.70174531  0.76369022  1  1.515999  0  0.198137  0.596405  0  4.146405  0
C  C183  1  0.49659248  0.29825497  0.23631066  1  1.516011  0  0.198189  0.596425  0  4.146372  0
C  C184  1  0.50820860  0.85255445  0.50829739  1  -0.085992  0  -0.245496  -0.397021  0  3.92438  0
C  C185  1  0.49179002  0.14744257  0.49170076  1  -0.086096  0  -0.245436  -0.396931  0  3.924446  0
C  C186  1  0.36480413  0.84119819  0.64502568  1  -0.07455  0  -0.256058  -0.418848  0  3.924699  0
C  C187  1  0.63519465  0.15879964  0.35497249  1  -0.074508  0  -0.256056  -0.418816  0  3.924561  0
C  C188  1  0.30888393  0.64114294  0.62108527  1  -0.075007  0  -0.245446  -0.413956  0  3.894803  0
C  C189  1  0.69111171  0.35885570  0.37891447  1  -0.074924  0  -0.245448  -0.414008  0  3.894821  0
N  N190  1  0.48083946  0.86955789  0.21524076  1  -1.247658  0  -0.24671  0.029069  0  3.785661  0
N  N191  1  0.51916077  0.13044319  0.78475888  1  -1.247664  0  -0.246684  0.029011  0  3.785506  0
N  N192  1  0.32450524  0.85852977  0.27081353  1  -1.227765  0  -0.355877  -0.28306  0  3.618419  0
N  N193  1  0.67549546  0.14147375  0.72918682  1  -1.227811  0  -0.355896  -0.283132  0  3.618415  0
N  N194  1  0.00937879  0.05226435  0.36362503  1  -1.21766  0  -0.238705  0.043442  0  3.761461  0
N  N195  1  0.99062371  0.94773998  0.63637490  1  -1.217749  0  -0.238672  0.043352  0  3.761503  0
N  N196  1  0.13046585  0.94369658  0.35987376  1  -1.247145  0  -0.351518  -0.278475  0  3.576266  0
N  N197  1  0.86953568  0.05630695  0.64012796  1  -1.247103  0  -0.351451  -0.278316  0  3.576327  0
N  N198  1  0.73418426  0.20148443  0.00982359  1  -1.221205  0  -0.238193  0.047844  0  3.747294  0
N  N199  1  0.26581796  0.79851424  0.99017688  1  -1.22144  0  -0.23812  0.047982  0  3.74731  0
N  N200  1  0.61624853  0.30922307  0.02781197  1  -1.253879  0  -0.358812  -0.307852  0  3.644068  0
N  N201  1  0.38375452  0.69077559  0.97218733  1  -1.253092  0  -0.358828  -0.307877  0  3.644163  0
O  O202  1  0.06769307  0.70226902  0.27492334  1  -1.165766  0  -0.339472  -0.549608  0  2.299064  0
O  O203  1  0.93230337  0.29773367  0.72507717  1  -1.165803  0  -0.339431  -0.549558  0  2.299048  0
O  O204  1  0.08133653  0.81043713  0.16292965  1  -1.193039  0  -0.341976  -0.580857  0  2.135697  0
O  O205  1  0.91866370  0.18956396  0.83707063  1  -1.193028  0  -0.341977  -0.580836  0  2.135767  0
O  O206  1  0.58159935  0.54534413  0.07640010  1  -1.208202  0  -0.333341  -0.580564  0  2.338886  0
O  O207  1  0.41840107  0.45465371  0.92359889  1  -1.208245  0  -0.333333  -0.580568  0  2.338923  0
O  O208  1  0.64122143  0.63503795  0.96524602  1  -1.168735  0  -0.314534  -0.530898  0  2.305752  0
O  O209  1  0.35877865  0.36496232  0.03475296  1  -1.168703  0  -0.314514  -0.530888  0  2.305744  0
O  O210  1  0.33314682  0.65782254  0.38938534  1  -1.178799  0  -0.333242  -0.556383  0  2.104178  0
O  O211  1  0.66685294  0.34217612  0.61061613  1  -1.178862  0  -0.33325  -0.556401  0  2.104172  0
O  O212  1  0.26807926  0.79004425  0.45310888  1  -1.178344  0  -0.353208  -0.580464  0  2.291839  0
O  O213  1  0.73191541  0.20995356  0.54688820  1  -1.178326  0  -0.353236  -0.580538  0  2.291796  0
O  O214  1  0.48579237  0.60180018  0.78489336  1  -1.15316  0  -0.335161  -0.546764  0  2.246546  0
O  O215  1  0.51420441  0.39820008  0.21510589  1  -1.153154  0  -0.335212  -0.54678  0  2.246469  0
O  O216  1  0.50837348  0.77894879  0.81780521  1  -1.205912  0  -0.340539  -0.588888  0  2.126052  0
O  O217  1  0.49162742  0.22105149  0.18219577  1  -1.205904  0  -0.340513  -0.588881  0  2.126085  0
