# generated using pymatgen
data_KH7(CO)4
_symmetry_space_group_name_H-M   'P 1'
_cell_length_a   3.99848022
_cell_length_b   7.15749992
_cell_length_c   23.95338761
_cell_angle_alpha   89.99988534
_cell_angle_beta   90.00058971
_cell_angle_gamma   98.33081873
_symmetry_Int_Tables_number   1
_chemical_formula_structural   KH7(CO)4
_chemical_formula_sum   'K4 H28 C16 O16'
_cell_volume   678.29125885
_cell_formula_units_Z   4
loop_
 _symmetry_equiv_pos_site_id
 _symmetry_equiv_pos_as_xyz
  1  'x, y, z'
loop_
 _atom_site_type_symbol
 _atom_site_label
 _atom_site_symmetry_multiplicity
 _atom_site_fract_x
 _atom_site_fract_y
 _atom_site_fract_z
 _atom_site_occupancy
 _atom_site_hle17_bader_spin_density
 _atom_site_hle17_ddec_charge
 _atom_site_hle17_ddec_spin_density
 _atom_site_hle17_ddec_sum_bond_order
 _atom_site_hle17_magmom
 _atom_site_hse06_10hf_bader_spin_density
 _atom_site_hse06_10hf_ddec_charge
 _atom_site_hse06_10hf_ddec_spin_density
 _atom_site_hse06_10hf_ddec_sum_bond_order
 _atom_site_hse06_10hf_magmom
 _atom_site_hse06_bader_spin_density
 _atom_site_hse06_ddec_charge
 _atom_site_hse06_ddec_spin_density
 _atom_site_hse06_ddec_sum_bond_order
 _atom_site_hse06_magmom
 _atom_site_pbe_bader_spin_density
 _atom_site_pbe_cm5_charge
 _atom_site_pbe_ddec_charge
 _atom_site_pbe_ddec_spin_density
 _atom_site_pbe_ddec_sum_bond_order
 _atom_site_pbe_magmom
K  K0  1  0.52260060  0.74892936  0.78315459  1  0  0.925494  0  0.486378  0  0  0.873091  0  0.678537  0  0  0.889318  0  0.653802  0  0  0.81525  0.861026  0  0.696093  0
K  K1  1  0.97738844  0.75107003  0.28315431  1  0  0.925477  0  0.486395  0  0  0.873093  0  0.678527  0  0  0.889308  0  0.653806  0  0  0.815272  0.861028  0  0.696081  0
K  K2  1  0.47736569  0.25109162  0.21684816  1  0  0.925476  0  0.486396  0  0  0.873097  0  0.678524  0  0  0.889311  0  0.653798  0  0  0.815278  0.861034  0  0.696079  0
K  K3  1  0.02260487  0.24892977  0.71684385  1  0  0.925512  0  0.486317  0  0  0.87313  0  0.67843  0  0  0.889365  0  0.653692  0  0  0.81527  0.861068  0  0.695984  0
H  H4  1  0.25527211  0.46360436  0.87516815  1  0  0.390715  0  0.917537  0  0  0.357684  0  0.998909  0  0  0.371445  0  0.983475  0  0  0.29157  0.348094  0  1.007819  0
H  H5  1  0.24472403  0.03639132  0.37516592  1  0  0.390662  0  0.917593  0  0  0.357685  0  0.998885  0  0  0.371446  0  0.983465  0  0  0.291556  0.348095  0  1.007798  0
H  H6  1  0.74473083  0.53639403  0.12483251  1  0  0.390681  0  0.917604  0  0  0.357632  0  0.999038  0  0  0.371392  0  0.98357  0  0  0.291563  0.348044  0  1.007942  0
H  H7  1  0.75527818  0.96360424  0.62483182  1  0  0.390738  0  0.917529  0  0  0.357749  0  0.998847  0  0  0.37151  0  0.983393  0  0  0.291596  0.34816  0  1.00776  0
H  H8  1  0.17687107  0.53794879  0.61563734  1  0  0.127704  0  0.977567  0  0  0.143328  0  1.043817  0  0  0.14622  0  1.042395  0  0  0.097123  0.141194  0  1.044942  0
H  H9  1  0.32313129  0.96205471  0.11563666  1  0  0.127742  0  0.977602  0  0  0.143372  0  1.043833  0  0  0.14626  0  1.042418  0  0  0.097153  0.141237  0  1.04496  0
H  H10  1  0.82311327  0.46204536  0.38436165  1  0  0.127783  0  0.977624  0  0  0.143414  0  1.04385  0  0  0.146303  0  1.042433  0  0  0.097185  0.141279  0  1.044975  0
H  H11  1  0.67687526  0.03794791  0.88436358  1  0  0.12774  0  0.977622  0  0  0.143369  0  1.043855  0  0  0.14626  0  1.042437  0  0  0.097159  0.141233  0  1.044983  0
H  H12  1  0.19826944  0.77586243  0.59061160  1  0  0.137243  0  0.963161  0  0  0.154533  0  1.025689  0  0  0.157108  0  1.024883  0  0  0.099033  0.152606  0  1.026384  0
H  H13  1  0.30173602  0.72413970  0.09061186  1  0  0.137221  0  0.963164  0  0  0.154512  0  1.025703  0  0  0.157084  0  1.024901  0  0  0.099036  0.152585  0  1.026399  0
H  H14  1  0.80172063  0.22413454  0.40938781  1  0  0.137269  0  0.963072  0  0  0.154547  0  1.025627  0  0  0.15712  0  1.024825  0  0  0.099041  0.152619  0  1.026323  0
H  H15  1  0.69827266  0.27586151  0.90938964  1  0  0.137232  0  0.96312  0  0  0.154521  0  1.025665  0  0  0.157094  0  1.024862  0  0  0.099042  0.152596  0  1.026358  0
H  H16  1  0.80924582  0.62169200  0.58834443  1  0  0.135491  0  0.946373  0  0  0.159088  0  1.001634  0  0  0.160272  0  1.002565  0  0  0.101463  0.158184  0  1.001065  0
H  H17  1  0.69075707  0.87831056  0.08834525  1  0  0.135469  0  0.946394  0  0  0.159064  0  1.001663  0  0  0.160246  0  1.002597  0  0  0.101463  0.15816  0  1.001094  0
H  H18  1  0.19073748  0.37830780  0.41165540  1  0  0.135475  0  0.946441  0  0  0.159083  0  1.00169  0  0  0.160266  0  1.002623  0  0  0.101475  0.158177  0  1.001122  0
H  H19  1  0.30924874  0.12168923  0.91165583  1  0  0.135438  0  0.946415  0  0  0.159035  0  1.001691  0  0  0.160219  0  1.002622  0  0  0.101451  0.15813  0  1.001123  0
H  H20  1  0.18622068  0.79917450  0.99098627  1  0  0.134584  0  0.944879  0  0  0.156633  0  1.002912  0  0  0.158492  0  1.00272  0  0  0.101266  0.155262  0  1.003122  0
H  H21  1  0.31379276  0.70082125  0.49098406  1  0  0.134551  0  0.94498  0  0  0.156609  0  1.002998  0  0  0.158469  0  1.002807  0  0  0.101266  0.155237  0  1.003209  0
H  H22  1  0.81378837  0.20082812  0.00901607  1  0  0.134531  0  0.944986  0  0  0.15659  0  1.003012  0  0  0.158449  0  1.002821  0  0  0.101249  0.155221  0  1.003219  0
H  H23  1  0.68621231  0.29917572  0.50901285  1  0  0.134581  0  0.944916  0  0  0.156627  0  1.002934  0  0  0.158488  0  1.00274  0  0  0.101272  0.155253  0  1.003147  0
H  H24  1  0.79964243  0.64595565  0.99048002  1  0  0.154119  0  0.943021  0  0  0.169124  0  1.007726  0  0  0.172665  0  1.005401  0  0  0.10358  0.16655  0  1.009464  0
H  H25  1  0.70036354  0.85404053  0.49047711  1  0  0.154059  0  0.943123  0  0  0.169089  0  1.007781  0  0  0.17263  0  1.005455  0  0  0.103602  0.166515  0  1.00952  0
H  H26  1  0.20036052  0.35404274  0.00952189  1  0  0.154038  0  0.943163  0  0  0.169071  0  1.00783  0  0  0.17261  0  1.005509  0  0  0.103585  0.166497  0  1.009568  0
H  H27  1  0.29963904  0.14595644  0.50952063  1  0  0.154094  0  0.943181  0  0  0.169115  0  1.007841  0  0  0.172653  0  1.005524  0  0  0.103597  0.166542  0  1.009575  0
H  H28  1  0.82304686  0.87689501  0.95980289  1  0  0.125048  0  0.966574  0  0  0.143616  0  1.028812  0  0  0.145306  0  1.028872  0  0  0.094763  0.142332  0  1.028883  0
H  H29  1  0.67696260  0.62310264  0.45980008  1  0  0.125049  0  0.966451  0  0  0.143636  0  1.02869  0  0  0.145328  0  1.028746  0  0  0.094794  0.142352  0  1.02876  0
H  H30  1  0.17695895  0.12310479  0.04019819  1  0  0.125022  0  0.966587  0  0  0.143604  0  1.028833  0  0  0.145294  0  1.028892  0  0  0.094742  0.142321  0  1.028905  0
H  H31  1  0.32304638  0.37689009  0.54019766  1  0  0.125  0  0.966658  0  0  0.143522  0  1.028949  0  0  0.145209  0  1.029014  0  0  0.094721  0.142239  0  1.029017  0
C  C32  1  0.95221421  0.72487475  0.67020268  1  0  0.778392  0  3.817817  0  0  0.742363  0  4.111002  0  0  0.775433  0  4.101714  0  0  0.208727  0.719845  0  4.116603  0
C  C33  1  0.54779117  0.77512767  0.17020080  1  0  0.778303  0  3.817882  0  0  0.742409  0  4.110856  0  0  0.775478  0  4.101573  0  0  0.208788  0.719891  0  4.116463  0
C  C34  1  0.04777696  0.27512646  0.32979715  1  0  0.778236  0  3.818027  0  0  0.742336  0  4.111017  0  0  0.775406  0  4.101732  0  0  0.208744  0.71982  0  4.116619  0
C  C35  1  0.45221074  0.22487637  0.82979986  1  0  0.778149  0  3.817983  0  0  0.742295  0  4.11091  0  0  0.775366  0  4.101627  0  0  0.208713  0.719777  0  4.116513  0
C  C36  1  0.04209242  0.66018511  0.61260338  1  0  -0.468893  0  3.642961  0  0  -0.54324  0  3.869371  0  0  -0.550361  0  3.872311  0  0  -0.246806  -0.538085  0  3.867412  0
C  C37  1  0.45790762  0.83981980  0.11260343  1  0  -0.468895  0  3.643117  0  0  -0.543277  0  3.86947  0  0  -0.550399  0  3.872422  0  0  -0.24687  -0.538121  0  3.867516  0
C  C38  1  0.95789552  0.33981327  0.38739645  1  0  -0.468988  0  3.643089  0  0  -0.543388  0  3.869479  0  0  -0.55051  0  3.872426  0  0  -0.246931  -0.538232  0  3.867521  0
C  C39  1  0.54209392  0.16018282  0.88739724  1  0  -0.468839  0  3.64311  0  0  -0.543246  0  3.869484  0  0  -0.550367  0  3.872432  0  0  -0.246869  -0.538091  0  3.867526  0
C  C40  1  0.05105169  0.67692847  0.91112942  1  0  0.768713  0  3.778619  0  0  0.730159  0  4.0747  0  0  0.762794  0  4.065691  0  0  0.231202  0.70788  0  4.080275  0
C  C41  1  0.44895254  0.82306037  0.41112320  1  0  0.768675  0  3.778834  0  0  0.730165  0  4.074882  0  0  0.762799  0  4.065872  0  0  0.231201  0.707888  0  4.080452  0
C  C42  1  0.94896552  0.32306709  0.08887667  1  0  0.768659  0  3.778816  0  0  0.73019  0  4.074809  0  0  0.762826  0  4.0658  0  0  0.231242  0.707914  0  4.080389  0
C  C43  1  0.55104864  0.17694084  0.58887830  1  0  0.768787  0  3.778774  0  0  0.730292  0  4.074789  0  0  0.762921  0  4.065767  0  0  0.23124  0.708017  0  4.080364  0
C  C44  1  0.95657354  0.75572204  0.96627687  1  0  -0.467204  0  3.659186  0  0  -0.547556  0  3.895285  0  0  -0.554339  0  3.897646  0  0  -0.244659  -0.542644  0  3.89367  0
C  C45  1  0.54343309  0.74427277  0.46627501  1  0  -0.467091  0  3.659091  0  0  -0.547489  0  3.895171  0  0  -0.554272  0  3.897535  0  0  -0.244712  -0.542577  0  3.893551  0
C  C46  1  0.04343727  0.24427775  0.03372505  1  0  -0.46701  0  3.659231  0  0  -0.547428  0  3.895288  0  0  -0.554212  0  3.897654  0  0  -0.24463  -0.542518  0  3.89367  0
C  C47  1  0.45657376  0.25572138  0.53372232  1  0  -0.467141  0  3.659226  0  0  -0.547457  0  3.895304  0  0  -0.554236  0  3.897662  0  0  -0.244651  -0.542544  0  3.893684  0
O  O48  1  0.00098922  0.62773992  0.71255247  1  0  -0.763063  0  1.931539  0  0  -0.716827  0  2.167384  0  0  -0.739737  0  2.154817  0  0  -0.508527  -0.700761  0  2.175628  0
O  O49  1  0.49901198  0.87227470  0.21255341  1  0  -0.763059  0  1.931263  0  0  -0.716877  0  2.167037  0  0  -0.739788  0  2.154474  0  0  -0.508581  -0.700809  0  2.175283  0
O  O50  1  0.99900055  0.37226553  0.28744777  1  0  -0.762968  0  1.93158  0  0  -0.716778  0  2.16736  0  0  -0.739687  0  2.154797  0  0  -0.508576  -0.700714  0  2.175605  0
O  O51  1  0.50099066  0.12773215  0.78744642  1  0  -0.763004  0  1.931324  0  0  -0.716834  0  2.167081  0  0  -0.739747  0  2.154516  0  0  -0.508567  -0.700766  0  2.175325  0
O  O52  1  0.82279878  0.88006818  0.67400783  1  0  -0.702  0  1.988501  0  0  -0.649084  0  2.217145  0  0  -0.674726  0  2.204761  0  0  -0.399738  -0.631174  0  2.224574  0
O  O53  1  0.67719080  0.61993988  0.17400961  1  0  -0.701905  0  1.9887  0  0  -0.649006  0  2.217332  0  0  -0.674648  0  2.204944  0  0  -0.399712  -0.631099  0  2.224765  0
O  O54  1  0.17719276  0.11993444  0.32599075  1  0  -0.701908  0  1.988557  0  0  -0.649044  0  2.217136  0  0  -0.674687  0  2.204763  0  0  -0.399703  -0.631127  0  2.224546  0
O  O55  1  0.32280574  0.38006274  0.82599231  1  0  -0.701828  0  1.988643  0  0  -0.648968  0  2.217237  0  0  -0.674609  0  2.20486  0  0  -0.399648  -0.631061  0  2.224667  0
O  O56  1  0.99517258  0.75012371  0.86556964  1  0  -0.678656  0  1.907713  0  0  -0.637579  0  2.135761  0  0  -0.658495  0  2.125709  0  0  -0.41162  -0.62307  0  2.142429  0
O  O57  1  0.50483296  0.74988117  0.36556938  1  0  -0.678678  0  1.908199  0  0  -0.637604  0  2.136229  0  0  -0.658501  0  2.126143  0  0  -0.411615  -0.623101  0  2.142897  0
O  O58  1  0.00483257  0.24988315  0.13443019  1  0  -0.67863  0  1.908188  0  0  -0.637585  0  2.136223  0  0  -0.658469  0  2.12611  0  0  -0.4116  -0.62308  0  2.142897  0
O  O59  1  0.49517028  0.25010874  0.63442502  1  0  -0.678698  0  1.908536  0  0  -0.63761  0  2.136537  0  0  -0.658535  0  2.126514  0  0  -0.411651  -0.623108  0  2.14321  0
O  O60  1  0.19974946  0.52507757  0.91597275  1  0  -0.597699  0  2.061346  0  0  -0.535355  0  2.274989  0  0  -0.561411  0  2.262854  0  0  -0.332626  -0.51726  0  2.28177  0
O  O61  1  0.30024689  0.97491832  0.41597161  1  0  -0.597607  0  2.061191  0  0  -0.535361  0  2.274824  0  0  -0.561422  0  2.262697  0  0  -0.332628  -0.517267  0  2.281602  0
O  O62  1  0.80025958  0.47492505  0.08402875  1  0  -0.597647  0  2.061175  0  0  -0.535374  0  2.274875  0  0  -0.561437  0  2.262717  0  0  -0.332671  -0.517279  0  2.281655  0
O  O63  1  0.69976282  0.02507724  0.58402655  1  0  -0.597741  0  2.060971  0  0  -0.535511  0  2.274632  0  0  -0.561567  0  2.262482  0  0  -0.332676  -0.517415  0  2.281413  0
