# generated using pymatgen
data_CuH10C8IN2
_symmetry_space_group_name_H-M   'P 1'
_cell_length_a   8.57294030
_cell_length_b   9.76755760
_cell_length_c   12.23727256
_cell_angle_alpha   112.59017379
_cell_angle_beta   90.72322197
_cell_angle_gamma   95.45788243
_symmetry_Int_Tables_number   1
_chemical_formula_structural   CuH10C8IN2
_chemical_formula_sum   'Cu4 H40 C32 I4 N8'
_cell_volume   940.45170971
_cell_formula_units_Z   4
loop_
 _symmetry_equiv_pos_site_id
 _symmetry_equiv_pos_as_xyz
  1  'x, y, z'
loop_
 _atom_site_type_symbol
 _atom_site_label
 _atom_site_symmetry_multiplicity
 _atom_site_fract_x
 _atom_site_fract_y
 _atom_site_fract_z
 _atom_site_occupancy
 _atom_site_hle17_bader_spin_density
 _atom_site_hle17_ddec_charge
 _atom_site_hle17_ddec_spin_density
 _atom_site_hle17_ddec_sum_bond_order
 _atom_site_hle17_magmom
 _atom_site_hse06_10hf_bader_spin_density
 _atom_site_hse06_10hf_ddec_charge
 _atom_site_hse06_10hf_ddec_spin_density
 _atom_site_hse06_10hf_ddec_sum_bond_order
 _atom_site_hse06_10hf_magmom
 _atom_site_hse06_bader_spin_density
 _atom_site_hse06_ddec_charge
 _atom_site_hse06_ddec_spin_density
 _atom_site_hse06_ddec_sum_bond_order
 _atom_site_hse06_magmom
 _atom_site_pbe_bader_spin_density
 _atom_site_pbe_cm5_charge
 _atom_site_pbe_ddec_charge
 _atom_site_pbe_ddec_spin_density
 _atom_site_pbe_ddec_sum_bond_order
 _atom_site_pbe_magmom
Cu  Cu0  1  0.58836855  0.45100994  0.74440408  1  0  0.265414  0  2.151692  0  0  0.168707  0  2.642258  0  0  0.18189  0  2.585986  0  0  0.305466  0.162406  0  2.6782  0
Cu  Cu1  1  0.41163135  0.54898786  0.25559524  1  0  0.26539  0  2.151717  0  0  0.168704  0  2.642294  0  0  0.181876  0  2.586019  0  0  0.305463  0.162404  0  2.678235  0
Cu  Cu2  1  0.84807344  0.59206540  0.74705624  1  0  0.264175  0  2.089478  0  0  0.161884  0  2.577989  0  0  0.178459  0  2.519474  0  0  0.298352  0.15367  0  2.615267  0
Cu  Cu3  1  0.15192760  0.40793239  0.25294636  1  0  0.264201  0  2.089413  0  0  0.161896  0  2.577949  0  0  0.178499  0  2.519381  0  0  0.298352  0.153697  0  2.615189  0
H  H4  1  0.29315780  0.58102939  0.02182219  1  0  0.051838  0  0.980853  0  0  0.067249  0  1.051783  0  0  0.067695  0  1.051863  0  0  0.07968  0.066934  0  1.051641  0
H  H5  1  0.70684353  0.41897064  0.97817783  1  0  0.051819  0  0.980854  0  0  0.067232  0  1.051792  0  0  0.067677  0  1.051872  0  0  0.079679  0.066916  0  1.051652  0
H  H6  1  0.37764256  0.66242784  0.92468899  1  0  0.065772  0  0.957156  0  0  0.080206  0  1.025401  0  0  0.080271  0  1.026794  0  0  0.092384  0.080104  0  1.024479  0
H  H7  1  0.62235644  0.33757219  0.07531100  1  0  0.065759  0  0.957159  0  0  0.080193  0  1.025422  0  0  0.080258  0  1.026816  0  0  0.092382  0.08009  0  1.024501  0
H  H8  1  0.48552209  0.23556737  0.87604727  1  0  0.068574  0  0.91611  0  0  0.088491  0  0.972827  0  0  0.088832  0  0.973136  0  0  0.102071  0.088161  0  0.972977  0
H  H9  1  0.51447924  0.76443266  0.12395275  1  0  0.068574  0  0.916107  0  0  0.088497  0  0.972829  0  0  0.08884  0  0.973138  0  0  0.102073  0.088165  0  0.972983  0
H  H10  1  0.35914049  0.32334720  0.99264629  1  0  0.048831  0  0.936303  0  0  0.060225  0  1.015802  0  0  0.061938  0  1.012887  0  0  0.090345  0.058957  0  1.017889  0
H  H11  1  0.64085993  0.67665506  0.00735523  1  0  0.04885  0  0.936306  0  0  0.06025  0  1.015804  0  0  0.061968  0  1.012881  0  0  0.090359  0.058982  0  1.017894  0
H  H12  1  0.22767858  0.46802179  0.79057570  1  0  0.092276  0  0.920256  0  0  0.109613  0  0.982437  0  0  0.110828  0  0.981584  0  0  0.110814  0.108589  0  0.983126  0
H  H13  1  0.77232016  0.53197602  0.20942360  1  0  0.092285  0  0.920288  0  0  0.109619  0  0.982457  0  0  0.110833  0  0.981605  0  0  0.110807  0.108594  0  0.983144  0
H  H14  1  0.18611788  0.33490686  0.85391391  1  0  0.06458  0  0.943992  0  0  0.080911  0  1.010429  0  0  0.081546  0  1.010054  0  0  0.093331  0.080389  0  1.010916  0
H  H15  1  0.81388409  0.66508870  0.14608556  1  0  0.064579  0  0.944031  0  0  0.080919  0  1.010453  0  0  0.081553  0  1.01008  0  0  0.093341  0.080399  0  1.010938  0
H  H16  1  0.09402839  0.11306250  0.68025176  1  0  0.101102  0  0.97167  0  0  0.113103  0  1.031082  0  0  0.116096  0  1.030622  0  0  0.095215  0.110832  0  1.031826  0
H  H17  1  0.90597063  0.88693754  0.31974578  1  0  0.101071  0  0.97168  0  0  0.113074  0  1.031093  0  0  0.116079  0  1.030596  0  0  0.095217  0.110811  0  1.031814  0
H  H18  1  0.13841115  0.93569436  0.47105577  1  0  0.085748  0  0.978669  0  0  0.093902  0  1.048062  0  0  0.097035  0  1.045223  0  0  0.090545  0.091663  0  1.049818  0
H  H19  1  0.86158657  0.06430457  0.52894223  1  0  0.085757  0  0.978647  0  0  0.093916  0  1.048037  0  0  0.097053  0  1.045192  0  0  0.090556  0.091672  0  1.049805  0
H  H20  1  0.37037745  0.99635140  0.37083253  1  0  0.100784  0  0.95157  0  0  0.109887  0  1.012703  0  0  0.113249  0  1.012071  0  0  0.096141  0.106093  0  1.016073  0
H  H21  1  0.62962129  0.00364641  0.62916677  1  0  0.100836  0  0.951508  0  0  0.109941  0  1.012635  0  0  0.113304  0  1.012002  0  0  0.096186  0.10615  0  1.015997  0
H  H22  1  0.55906962  0.22153993  0.48474628  1  0  0.071845  0  0.944127  0  0  0.079612  0  1.01267  0  0  0.082818  0  1.008968  0  0  0.104948  0.077298  0  1.015288  0
H  H23  1  0.44093105  0.77845452  0.51525283  1  0  0.071842  0  0.944111  0  0  0.079603  0  1.012654  0  0  0.082808  0  1.008953  0  0  0.104967  0.07729  0  1.015272  0
H  H24  1  0.96548960  0.65571957  0.43897239  1  0  0.048869  0  0.970356  0  0  0.061864  0  1.045918  0  0  0.061974  0  1.046676  0  0  0.080081  0.061524  0  1.045748  0
H  H25  1  0.03451029  0.34427823  0.56102774  1  0  0.048862  0  0.9704  0  0  0.061836  0  1.045955  0  0  0.061945  0  1.046712  0  0  0.080083  0.0615  0  1.045789  0
H  H26  1  0.78894362  0.65510116  0.51649962  1  0  0.070127  0  0.961037  0  0  0.086747  0  1.023975  0  0  0.086197  0  1.026613  0  0  0.094947  0.086998  0  1.022394  0
H  H27  1  0.21105716  0.34489439  0.48350147  1  0  0.070133  0  0.961052  0  0  0.086761  0  1.023963  0  0  0.08621  0  1.026601  0  0  0.094944  0.087016  0  1.022383  0
H  H28  1  0.20429424  0.58171904  0.65868683  1  0  0.069764  0  0.940143  0  0  0.08431  0  1.007343  0  0  0.084895  0  1.007518  0  0  0.097286  0.083859  0  1.007091  0
H  H29  1  0.79570643  0.41827540  0.34131228  1  0  0.069719  0  0.940205  0  0  0.084292  0  1.007394  0  0  0.084872  0  1.007567  0  0  0.097293  0.083841  0  1.007144  0
H  H30  1  0.20987898  0.61020735  0.52355512  1  0  0.049635  0  0.933946  0  0  0.061945  0  1.012414  0  0  0.063755  0  1.009115  0  0  0.090482  0.060313  0  1.015023  0
H  H31  1  0.79012649  0.38978820  0.47644439  1  0  0.049681  0  0.93396  0  0  0.062013  0  1.01241  0  0  0.063824  0  1.009101  0  0  0.090503  0.060378  0  1.01502  0
H  H32  1  0.92146749  0.84876178  0.67215408  1  0  0.084955  0  0.927457  0  0  0.100982  0  0.991314  0  0  0.101965  0  0.991022  0  0  0.105337  0.100077  0  0.992192  0
H  H33  1  0.07853565  0.15123378  0.32784458  1  0  0.085001  0  0.927355  0  0  0.100994  0  0.99125  0  0  0.101975  0  0.990957  0  0  0.10533  0.100089  0  0.992133  0
H  H34  1  0.11765058  0.84223852  0.62408685  1  0  0.062847  0  0.945035  0  0  0.080508  0  1.010376  0  0  0.080688  0  1.010684  0  0  0.097798  0.080621  0  1.009664  0
H  H35  1  0.88235475  0.15775592  0.37591231  1  0  0.062804  0  0.945061  0  0  0.080458  0  1.010424  0  0  0.080636  0  1.010732  0  0  0.097777  0.080572  0  1.009714  0
H  H36  1  0.27118588  0.00380540  0.80294696  1  0  0.098821  0  0.961298  0  0  0.109482  0  1.022712  0  0  0.112151  0  1.02296  0  0  0.09925  0.107453  0  1.022991  0
H  H37  1  0.72881145  0.99619018  0.19704919  1  0  0.09882  0  0.961264  0  0  0.109479  0  1.022675  0  0  0.112146  0  1.022928  0  0  0.099257  0.107455  0  1.022959  0
H  H38  1  0.34456657  0.06725355  0.01916713  1  0  0.088117  0  0.973708  0  0  0.098375  0  1.03741  0  0  0.101532  0  1.034569  0  0  0.091504  0.095977  0  1.039341  0
H  H39  1  0.65542548  0.93275656  0.98083179  1  0  0.088155  0  0.973686  0  0  0.098404  0  1.037392  0  0  0.101561  0  1.034549  0  0  0.091509  0.096005  0  1.039325  0
H  H40  1  0.20189393  0.91839053  0.12134114  1  0  0.097308  0  0.956277  0  0  0.105904  0  1.019742  0  0  0.109037  0  1.019476  0  0  0.09425  0.10152  0  1.023981  0
H  H41  1  0.79810301  0.08162179  0.87866180  1  0  0.097368  0  0.956294  0  0  0.105936  0  1.019779  0  0  0.10907  0  1.019509  0  0  0.094272  0.101554  0  1.024013  0
H  H42  1  0.99421028  0.71348031  0.00611373  1  0  0.067135  0  0.952245  0  0  0.071777  0  1.026886  0  0  0.075346  0  1.022804  0  0  0.102366  0.068861  0  1.030254  0
H  H43  1  0.00579271  0.28652416  0.99389095  1  0  0.067193  0  0.952204  0  0  0.071806  0  1.026874  0  0  0.075374  0  1.022793  0  0  0.102388  0.068891  0  1.030241  0
C  C44  1  0.39739606  0.58921242  0.97166868  1  0  -0.036934  0  3.666878  0  0  -0.091622  0  3.913321  0  0  -0.089515  0  3.927412  0  0  -0.083999  -0.092936  0  3.903551  0
C  C45  1  0.60260423  0.41078872  0.02833248  1  0  -0.036904  0  3.666846  0  0  -0.091625  0  3.913302  0  0  -0.08951  0  3.927376  0  0  -0.084006  -0.092935  0  3.903533  0
C  C46  1  0.46057958  0.34332075  0.94322653  1  0  -0.0113  0  3.639212  0  0  -0.067827  0  3.894607  0  0  -0.0645  0  3.906852  0  0  -0.073305  -0.069818  0  3.88578  0
C  C47  1  0.53942072  0.65668040  0.05677301  1  0  -0.011274  0  3.639167  0  0  -0.067855  0  3.894631  0  0  -0.064524  0  3.906864  0  0  -0.0733  -0.069842  0  3.885806  0
C  C48  1  0.27634870  0.37705349  0.80748312  1  0  -0.083727  0  3.68063  0  0  -0.144289  0  3.925553  0  0  -0.141916  0  3.936694  0  0  -0.069509  -0.145902  0  3.918173  0
C  C49  1  0.72365237  0.62294431  0.19251621  1  0  -0.083771  0  3.680711  0  0  -0.144318  0  3.925598  0  0  -0.141947  0  3.936744  0  0  -0.069525  -0.145925  0  3.918214  0
C  C50  1  0.30257985  0.25797803  0.68909462  1  0  0.232339  0  3.69795  0  0  0.233024  0  3.940256  0  0  0.241318  0  3.959017  0  0  0.109462  0.227524  0  3.928042  0
C  C51  1  0.69742253  0.74202088  0.31090425  1  0  0.232312  0  3.697869  0  0  0.232998  0  3.94021  0  0  0.241293  0  3.958971  0  0  0.109479  0.227487  0  3.928011  0
C  C52  1  0.19587295  0.13206279  0.63349815  1  0  -0.178426  0  3.750279  0  0  -0.193732  0  3.994072  0  0  -0.201441  0  4.014418  0  0  -0.096701  -0.189021  0  3.981063  0
C  C53  1  0.80412243  0.86793615  0.36650064  1  0  -0.178308  0  3.750406  0  0  -0.193594  0  3.994176  0  0  -0.201302  0  4.014533  0  0  -0.096657  -0.188873  0  3.981174  0
C  C54  1  0.21903368  0.03576400  0.51767097  1  0  -0.023612  0  3.750968  0  0  -0.041949  0  4.001257  0  0  -0.036765  0  4.017844  0  0  -0.083413  -0.045303  0  3.989469  0
C  C55  1  0.78096521  0.96423494  0.48232541  1  0  -0.023621  0  3.751014  0  0  -0.04197  0  4.001309  0  0  -0.036787  0  4.017899  0  0  -0.083436  -0.045324  0  3.989514  0
C  C56  1  0.34911008  0.06839850  0.46144410  1  0  -0.123104  0  3.768077  0  0  -0.135099  0  4.016208  0  0  -0.142484  0  4.037537  0  0  -0.092713  -0.130615  0  4.003142  0
C  C57  1  0.65088736  0.93159820  0.53855484  1  0  -0.123244  0  3.76803  0  0  -0.135249  0  4.016164  0  0  -0.142637  0  4.037494  0  0  -0.092779  -0.130763  0  4.003096  0
C  C58  1  0.45383947  0.19338260  0.52410014  1  0  0.129894  0  3.71215  0  0  0.099842  0  3.963375  0  0  0.107856  0  3.978675  0  0  0.039449  0.094377  0  3.953333  0
C  C59  1  0.54616263  0.80661408  0.47589886  1  0  0.129942  0  3.712089  0  0  0.09995  0  3.963296  0  0  0.107965  0  3.978596  0  0  0.039427  0.094487  0  3.953255  0
C  C60  1  0.89950193  0.60503187  0.49365077  1  0  -0.029546  0  3.649147  0  0  -0.083086  0  3.893928  0  0  -0.080816  0  3.908212  0  0  -0.081811  -0.08458  0  3.884525  0
C  C61  1  0.10050003  0.39496370  0.50634870  1  0  -0.029555  0  3.649179  0  0  -0.083015  0  3.893774  0  0  -0.080739  0  3.908071  0  0  -0.081812  -0.084531  0  3.884406  0
C  C62  1  0.13639282  0.56104120  0.57608190  1  0  -0.013097  0  3.635909  0  0  -0.069333  0  3.889711  0  0  -0.066068  0  3.90157  0  0  -0.07338  -0.071506  0  3.881737  0
C  C63  1  0.86360902  0.43895325  0.42391722  1  0  -0.013131  0  3.635926  0  0  -0.069395  0  3.889776  0  0  -0.066128  0  3.901655  0  0  -0.073435  -0.071571  0  3.881797  0
C  C64  1  0.03026350  0.79575892  0.66983706  1  0  -0.08524  0  3.683161  0  0  -0.145627  0  3.927073  0  0  -0.143093  0  3.938171  0  0  -0.068925  -0.147217  0  3.919231  0
C  C65  1  0.96973949  0.20423552  0.33016289  1  0  -0.085229  0  3.682946  0  0  -0.145605  0  3.926941  0  0  -0.143063  0  3.938037  0  0  -0.068876  -0.147198  0  3.919105  0
C  C66  1  0.08939275  0.83234117  0.79545032  1  0  0.231168  0  3.703293  0  0  0.231875  0  3.945409  0  0  0.240001  0  3.965122  0  0  0.111229  0.226702  0  3.932147  0
C  C67  1  0.91060428  0.16765217  0.20454921  1  0  0.23126  0  3.7031  0  0  0.231925  0  3.945252  0  0  0.24005  0  3.964963  0  0  0.111279  0.226751  0  3.932  0
C  C68  1  0.21050769  0.94452040  0.85226192  1  0  -0.167564  0  3.73208  0  0  -0.183922  0  3.9773  0  0  -0.192173  0  3.998768  0  0  -0.092049  -0.17903  0  3.963635  0
C  C69  1  0.78949144  0.05548075  0.14773841  1  0  -0.167537  0  3.732136  0  0  -0.183879  0  3.977368  0  0  -0.19213  0  3.998837  0  0  -0.092064  -0.178999  0  3.963722  0
C  C70  1  0.25208513  0.97851749  0.97112051  1  0  -0.001064  0  3.732096  0  0  -0.019528  0  3.978339  0  0  -0.013857  0  3.994624  0  0  -0.075125  -0.023485  0  3.967276  0
C  C71  1  0.74790751  0.02148814  0.02888194  1  0  -0.001231  0  3.732064  0  0  -0.019695  0  3.978303  0  0  -0.014023  0  3.994584  0  0  -0.075209  -0.023646  0  3.967235  0
C  C72  1  0.17242576  0.89674975  0.02882490  1  0  -0.116731  0  3.74176  0  0  -0.128185  0  3.988123  0  0  -0.136009  0  4.010797  0  0  -0.089049  -0.123017  0  3.973455  0
C  C73  1  0.82757455  0.10326145  0.97117773  1  0  -0.116734  0  3.741784  0  0  -0.128129  0  3.988065  0  0  -0.135949  0  4.010735  0  0  -0.089002  -0.122957  0  3.973391  0
C  C74  1  0.05579631  0.78343601  0.96549525  1  0  0.121622  0  3.707231  0  0  0.093242  0  3.958526  0  0  0.100065  0  3.975981  0  0  0.038516  0.088556  0  3.946832  0
C  C75  1  0.94420060  0.21656626  0.03450704  1  0  0.121603  0  3.707359  0  0  0.093226  0  3.958628  0  0  0.100046  0  3.97609  0  0  0.038514  0.088534  0  3.946935  0
I  I76  1  0.84369943  0.33297632  0.75771029  1  0  -0.44794  0  1.524297  0  0  -0.400277  0  1.958517  0  0  -0.414515  0  1.916544  0  0  -0.200577  -0.388648  0  1.987159  0
I  I77  1  0.15629918  0.66702037  0.24228784  1  0  -0.44796  0  1.524282  0  0  -0.400299  0  1.958516  0  0  -0.414541  0  1.916531  0  0  -0.20059  -0.388676  0  1.98715  0
I  I78  1  0.58556015  0.70868953  0.73447971  1  0  -0.443797  0  1.423251  0  0  -0.39065  0  1.824954  0  0  -0.408156  0  1.789026  0  0  -0.213961  -0.376548  0  1.849314  0
I  I79  1  0.41444371  0.29131270  0.26552755  1  0  -0.443808  0  1.423275  0  0  -0.390634  0  1.824941  0  0  -0.40814  0  1.789005  0  0  -0.213957  -0.376533  0  1.849294  0
N  N80  1  0.43199813  0.28613404  0.63564171  1  0  -0.300016  0  3.323867  0  0  -0.231712  0  3.605492  0  0  -0.24403  0  3.612932  0  0  -0.360356  -0.224462  0  3.600666  0
N  N81  1  0.56800150  0.71386153  0.36435773  1  0  -0.30003  0  3.323695  0  0  -0.231829  0  3.605416  0  0  -0.244145  0  3.612851  0  0  -0.360388  -0.224581  0  3.600601  0
N  N82  1  0.42153137  0.44111950  0.88231879  1  0  -0.182181  0  3.250664  0  0  -0.084515  0  3.495984  0  0  -0.100138  0  3.513084  0  0  -0.350382  -0.074076  0  3.484471  0
N  N83  1  0.57846996  0.55888053  0.11768123  1  0  -0.182169  0  3.250667  0  0  -0.084477  0  3.495962  0  0  -0.100099  0  3.513065  0  0  -0.350361  -0.074045  0  3.484454  0
N  N84  1  0.01384797  0.75180271  0.85124840  1  0  -0.3036  0  3.328369  0  0  -0.23446  0  3.610309  0  0  -0.248347  0  3.619663  0  0  -0.357741  -0.226067  0  3.60392  0
N  N85  1  0.98615426  0.24819509  0.14875176  1  0  -0.303725  0  3.328302  0  0  -0.234537  0  3.610225  0  0  -0.248426  0  3.619581  0  0  -0.357794  -0.226139  0  3.603833  0
N  N86  1  0.99083247  0.63453733  0.60482083  1  0  -0.185666  0  3.252961  0  0  -0.087864  0  3.496872  0  0  -0.103638  0  3.514076  0  0  -0.34827  -0.077244  0  3.485137  0
N  N87  1  0.00916820  0.36545712  0.39517828  1  0  -0.18558  0  3.25262  0  0  -0.087803  0  3.496542  0  0  -0.1036  0  3.513772  0  0  -0.348229  -0.077177  0  3.484812  0
