# generated using pymatgen
data_ZnH8C12N3O2
_symmetry_space_group_name_H-M   'P 1'
_cell_length_a   11.26546585
_cell_length_b   10.78820649
_cell_length_c   11.81185715
_cell_angle_alpha   90.00001430
_cell_angle_beta   104.58691539
_cell_angle_gamma   90.00022821
_symmetry_Int_Tables_number   1
_chemical_formula_structural   ZnH8C12N3O2
_chemical_formula_sum   'Zn4 H32 C48 N12 O8'
_cell_volume   1389.27196174
_cell_formula_units_Z   4
loop_
 _symmetry_equiv_pos_site_id
 _symmetry_equiv_pos_as_xyz
  1  'x, y, z'
loop_
 _atom_site_type_symbol
 _atom_site_label
 _atom_site_symmetry_multiplicity
 _atom_site_fract_x
 _atom_site_fract_y
 _atom_site_fract_z
 _atom_site_occupancy
 _atom_site_hle17_bader_spin_density
 _atom_site_hle17_ddec_charge
 _atom_site_hle17_ddec_spin_density
 _atom_site_hle17_ddec_sum_bond_order
 _atom_site_hle17_magmom
 _atom_site_hse06_10hf_bader_spin_density
 _atom_site_hse06_10hf_ddec_charge
 _atom_site_hse06_10hf_ddec_spin_density
 _atom_site_hse06_10hf_ddec_sum_bond_order
 _atom_site_hse06_10hf_magmom
 _atom_site_hse06_bader_spin_density
 _atom_site_hse06_ddec_charge
 _atom_site_hse06_ddec_spin_density
 _atom_site_hse06_ddec_sum_bond_order
 _atom_site_hse06_magmom
 _atom_site_pbe_bader_spin_density
 _atom_site_pbe_cm5_charge
 _atom_site_pbe_ddec_charge
 _atom_site_pbe_ddec_spin_density
 _atom_site_pbe_ddec_sum_bond_order
 _atom_site_pbe_magmom
Zn  Zn0  1  0.34966643  0.44859998  0.92019603  1  0  0.906867  0  1.981567  0  0  0.701462  0  2.467317  0  0  0.745039  0  2.418431  0  0  0.717934  0.671219  0  2.501002  0
Zn  Zn1  1  0.15033257  0.94859922  0.57980008  1  0  0.906923  0  1.981521  0  0  0.701539  0  2.467223  0  0  0.745119  0  2.418342  0  0  0.717951  0.671298  0  2.500911  0
Zn  Zn2  1  0.65033264  0.55140347  0.07980093  1  0  0.906799  0  1.981755  0  0  0.701433  0  2.467445  0  0  0.745013  0  2.418565  0  0  0.717907  0.671195  0  2.501139  0
Zn  Zn3  1  0.84966559  0.05140052  0.42020005  1  0  0.906873  0  1.981558  0  0  0.701506  0  2.46723  0  0  0.745092  0  2.418354  0  0  0.717951  0.67126  0  2.500923  0
H  H4  1  0.43936495  0.31644193  0.72638211  1  0  0.112337  0  0.934712  0  0  0.125769  0  0.991148  0  0  0.128389  0  0.98834  0  0  0.127451  0.123775  0  0.993312  0
H  H5  1  0.06063624  0.81644272  0.77361620  1  0  0.11229  0  0.934804  0  0  0.125719  0  0.991239  0  0  0.12834  0  0.988429  0  0  0.12743  0.123725  0  0.993404  0
H  H6  1  0.56063228  0.68355874  0.27361527  1  0  0.112317  0  0.934771  0  0  0.125743  0  0.991214  0  0  0.128364  0  0.988404  0  0  0.127436  0.12375  0  0.993379  0
H  H7  1  0.93936467  0.18355980  0.22638374  1  0  0.112294  0  0.934764  0  0  0.125722  0  0.991204  0  0  0.128343  0  0.988394  0  0  0.127415  0.123727  0  0.993369  0
H  H8  1  0.80416895  0.37675023  0.95168099  1  0  0.103276  0  0.945062  0  0  0.116355  0  1.004564  0  0  0.11853  0  1.002259  0  0  0.121944  0.11452  0  1.006681  0
H  H9  1  0.69583099  0.87674501  0.54832363  1  0  0.103313  0  0.94494  0  0  0.116389  0  1.004454  0  0  0.118564  0  1.002148  0  0  0.121933  0.11455  0  1.006571  0
H  H10  1  0.19583012  0.62325229  0.04831851  1  0  0.103297  0  0.94501  0  0  0.116371  0  1.004522  0  0  0.118547  0  1.002214  0  0  0.121931  0.114532  0  1.006637  0
H  H11  1  0.30416808  0.12325009  0.45167587  1  0  0.10336  0  0.945018  0  0  0.116433  0  1.004515  0  0  0.118608  0  1.002209  0  0  0.121974  0.114579  0  1.006652  0
H  H12  1  0.21279660  0.41703462  0.54948157  1  0  0.101911  0  0.941899  0  0  0.111204  0  1.000979  0  0  0.115075  0  0.998347  0  0  0.101847  0.108376  0  1.00302  0
H  H13  1  0.28720318  0.91703082  0.95051811  1  0  0.101945  0  0.941831  0  0  0.11122  0  1.00094  0  0  0.115093  0  0.998311  0  0  0.101847  0.108393  0  1.002983  0
H  H14  1  0.78720246  0.58296512  0.45051455  1  0  0.1019  0  0.941775  0  0  0.111203  0  1.000851  0  0  0.115075  0  0.998218  0  0  0.101803  0.108375  0  1.002894  0
H  H15  1  0.71279498  0.08296891  0.04948287  1  0  0.101982  0  0.941812  0  0  0.111261  0  1.000914  0  0  0.115132  0  0.998285  0  0  0.10185  0.108432  0  1.002957  0
H  H16  1  0.91334672  0.58215526  0.65867599  1  0  0.092259  0  0.973588  0  0  0.099685  0  1.040435  0  0  0.10266  0  1.039588  0  0  0.097963  0.097639  0  1.040913  0
H  H17  1  0.58665105  0.08215678  0.84132298  1  0  0.092291  0  0.973581  0  0  0.099688  0  1.040453  0  0  0.102663  0  1.039602  0  0  0.097963  0.097642  0  1.04093  0
H  H18  1  0.08665326  0.41784540  0.34132034  1  0  0.092303  0  0.973514  0  0  0.099697  0  1.040397  0  0  0.102674  0  1.039547  0  0  0.097948  0.097648  0  1.040883  0
H  H19  1  0.41334711  0.91784481  0.15867800  1  0  0.092331  0  0.973519  0  0  0.099722  0  1.0404  0  0  0.102702  0  1.03955  0  0  0.097958  0.097677  0  1.040879  0
H  H20  1  0.60676700  0.10094302  0.45501950  1  0  0.084893  0  0.970277  0  0  0.093743  0  1.032645  0  0  0.096711  0  1.029693  0  0  0.113349  0.091589  0  1.03479  0
H  H21  1  0.89323603  0.60094417  0.04498602  1  0  0.08496  0  0.970197  0  0  0.093827  0  1.032535  0  0  0.096792  0  1.029588  0  0  0.11339  0.091676  0  1.034676  0
H  H22  1  0.39323483  0.89905394  0.54498320  1  0  0.084961  0  0.970294  0  0  0.093836  0  1.032617  0  0  0.096802  0  1.02967  0  0  0.113385  0.091686  0  1.034758  0
H  H23  1  0.10676764  0.39906021  0.95501797  1  0  0.084928  0  0.970368  0  0  0.09381  0  1.032674  0  0  0.096775  0  1.029727  0  0  0.113399  0.091659  0  1.034814  0
H  H24  1  0.95069946  0.24834823  0.60253652  1  0  0.081659  0  0.929182  0  0  0.090162  0  0.991885  0  0  0.092154  0  0.990764  0  0  0.118662  0.088671  0  0.992751  0
H  H25  1  0.54930636  0.74835178  0.89747032  1  0  0.08158  0  0.929301  0  0  0.090112  0  0.991983  0  0  0.092097  0  0.990855  0  0  0.118643  0.088622  0  0.992851  0
H  H26  1  0.04930237  0.75164781  0.39746787  1  0  0.081644  0  0.929353  0  0  0.090137  0  0.992061  0  0  0.092121  0  0.990937  0  0  0.118659  0.08865  0  0.992929  0
H  H27  1  0.45069638  0.25165166  0.10253090  1  0  0.081637  0  0.929341  0  0  0.090167  0  0.992007  0  0  0.09215  0  0.990888  0  0  0.118691  0.088676  0  0.992875  0
H  H28  1  0.88132362  0.34268816  0.76642306  1  0  0.111312  0  0.941313  0  0  0.124229  0  0.996084  0  0  0.12722  0  0.99578  0  0  0.110341  0.122005  0  0.996631  0
H  H29  1  0.61868168  0.84269010  0.73358284  1  0  0.111339  0  0.941384  0  0  0.12423  0  0.996182  0  0  0.127203  0  0.995902  0  0  0.11035  0.122007  0  0.996729  0
H  H30  1  0.11867638  0.65730787  0.23358005  1  0  0.111308  0  0.94134  0  0  0.12421  0  0.996124  0  0  0.127188  0  0.995832  0  0  0.110333  0.121986  0  0.996671  0
H  H31  1  0.38132106  0.15731056  0.26641669  1  0  0.111332  0  0.941354  0  0  0.1242  0  0.996186  0  0  0.127183  0  0.995888  0  0  0.110333  0.121976  0  0.996734  0
H  H32  1  0.52279592  0.18377592  0.61604498  1  0  0.121573  0  0.96834  0  0  0.131206  0  1.028943  0  0  0.134829  0  1.027197  0  0  0.108173  0.128443  0  1.030664  0
H  H33  1  0.97720871  0.68377473  0.88395818  1  0  0.121573  0  0.968281  0  0  0.131217  0  1.028875  0  0  0.134841  0  1.027131  0  0  0.108159  0.128455  0  1.030595  0
H  H34  1  0.47720499  0.81622290  0.38395496  1  0  0.12159  0  0.968321  0  0  0.131214  0  1.028926  0  0  0.134838  0  1.02718  0  0  0.108178  0.128454  0  1.030644  0
H  H35  1  0.02279587  0.31622686  0.11604433  1  0  0.121591  0  0.968319  0  0  0.13119  0  1.028962  0  0  0.134813  0  1.027218  0  0  0.108168  0.12843  0  1.030678  0
C  C36  1  0.64576909  0.32311261  0.79876555  1  0  -0.088649  0  3.849944  0  0  -0.069709  0  4.096172  0  0  -0.080803  0  4.122809  0  0  -0.035943  -0.062231  0  4.077549  0
C  C37  1  0.85423246  0.82311086  0.70123945  1  0  -0.088763  0  3.849883  0  0  -0.069813  0  4.096123  0  0  -0.080914  0  4.122766  0  0  -0.035953  -0.062336  0  4.077501  0
C  C38  1  0.35422815  0.67688898  0.20123352  1  0  -0.088756  0  3.849895  0  0  -0.069751  0  4.096082  0  0  -0.080849  0  4.122729  0  0  -0.035957  -0.062274  0  4.077461  0
C  C39  1  0.14576845  0.17688702  0.29876218  1  0  -0.088779  0  3.849995  0  0  -0.069779  0  4.096189  0  0  -0.080878  0  4.122832  0  0  -0.036005  -0.062303  0  4.077563  0
C  C40  1  0.52061287  0.33893333  0.79486108  1  0  0.036883  0  3.684808  0  0  -0.013129  0  3.94762  0  0  -0.004403  0  3.963205  0  0  0.026336  -0.018466  0  3.936532  0
C  C41  1  0.97939240  0.83893303  0.70514226  1  0  0.036957  0  3.684669  0  0  -0.01305  0  3.947471  0  0  -0.004321  0  3.963055  0  0  0.026345  -0.01839  0  3.936387  0
C  C42  1  0.47938895  0.66106733  0.20513992  1  0  0.037007  0  3.684645  0  0  -0.01301  0  3.947414  0  0  -0.004282  0  3.963  0  0  0.026374  -0.018349  0  3.936332  0
C  C43  1  0.02060850  0.16106671  0.29485767  1  0  0.036932  0  3.68471  0  0  -0.013087  0  3.947503  0  0  -0.004357  0  3.963087  0  0  0.026379  -0.018424  0  3.936417  0
C  C44  1  0.69435727  0.27228590  0.70599591  1  0  0.138779  0  3.803346  0  0  0.148031  0  4.03184  0  0  0.156588  0  4.053543  0  0  0.018037  0.142377  0  4.01695  0
C  C45  1  0.80564865  0.77228676  0.79401096  1  0  0.138852  0  3.803333  0  0  0.148078  0  4.031843  0  0  0.156642  0  4.053532  0  0  0.018059  0.142428  0  4.016951  0
C  C46  1  0.30564272  0.72771199  0.29400720  1  0  0.138784  0  3.803497  0  0  0.147955  0  4.032052  0  0  0.156513  0  4.053752  0  0  0.018022  0.142305  0  4.017157  0
C  C47  1  0.19435501  0.22771390  0.20599048  1  0  0.138802  0  3.803295  0  0  0.147989  0  4.03184  0  0  0.15655  0  4.053534  0  0  0.018057  0.142341  0  4.016944  0
C  C48  1  0.07058433  0.50034383  0.61627737  1  0  -0.061134  0  3.75595  0  0  -0.039438  0  3.987948  0  0  -0.046653  0  4.011189  0  0  -0.019554  -0.03454  0  3.972025  0
C  C49  1  0.42941371  0.00034398  0.88372181  1  0  -0.061115  0  3.75605  0  0  -0.039426  0  3.988018  0  0  -0.046608  0  4.011245  0  0  -0.019536  -0.034497  0  3.972084  0
C  C50  1  0.92941473  0.49965405  0.38371875  1  0  -0.060939  0  3.755859  0  0  -0.039258  0  3.987838  0  0  -0.04647  0  4.011076  0  0  -0.019508  -0.034361  0  3.971915  0
C  C51  1  0.57058445  0.99965669  0.11628002  1  0  -0.061033  0  3.755841  0  0  -0.039403  0  3.987868  0  0  -0.046586  0  4.011095  0  0  -0.019542  -0.034472  0  3.971934  0
C  C52  1  0.70696020  0.36975164  0.90944329  1  0  0.02119  0  3.698085  0  0  -0.027932  0  3.963562  0  0  -0.019345  0  3.979979  0  0  0.018179  -0.033244  0  3.952296  0
C  C53  1  0.79304062  0.86974776  0.59055815  1  0  0.021168  0  3.69821  0  0  -0.027955  0  3.963687  0  0  -0.019366  0  3.980106  0  0  0.018185  -0.033264  0  3.952417  0
C  C54  1  0.29303887  0.63025088  0.09055452  1  0  0.021145  0  3.698135  0  0  -0.027983  0  3.963595  0  0  -0.019396  0  3.980013  0  0  0.018154  -0.033288  0  3.952321  0
C  C55  1  0.20695936  0.13024734  0.40943903  1  0  0.021047  0  3.698246  0  0  -0.028082  0  3.963702  0  0  -0.019493  0  3.980122  0  0  0.018128  -0.033376  0  3.952443  0
C  C56  1  0.11954621  0.45333425  0.52688743  1  0  -0.071912  0  3.733611  0  0  -0.094538  0  3.983752  0  0  -0.095149  0  4.003562  0  0  -0.087073  -0.094032  0  3.970317  0
C  C57  1  0.38045373  0.95333177  0.97311145  1  0  -0.071963  0  3.733657  0  0  -0.094573  0  3.983801  0  0  -0.0952  0  4.003613  0  0  -0.087141  -0.094081  0  3.970371  0
C  C58  1  0.88045469  0.54666363  0.47310912  1  0  -0.072071  0  3.733796  0  0  -0.094713  0  3.983974  0  0  -0.095325  0  4.003783  0  0  -0.087102  -0.094206  0  3.970539  0
C  C59  1  0.61954443  0.04666797  0.02688953  1  0  -0.072074  0  3.733621  0  0  -0.094677  0  3.983805  0  0  -0.095303  0  4.003614  0  0  -0.087162  -0.094186  0  3.970374  0
C  C60  1  0.95045865  0.54665082  0.58840776  1  0  -0.084015  0  3.764602  0  0  -0.107781  0  4.019089  0  0  -0.109443  0  4.041492  0  0  -0.089096  -0.106486  0  4.003752  0
C  C61  1  0.54953621  0.04665406  0.91158882  1  0  -0.084102  0  3.764535  0  0  -0.107841  0  4.019031  0  0  -0.10951  0  4.04143  0  0  -0.089087  -0.106553  0  4.003695  0
C  C62  1  0.04953857  0.45334799  0.41158707  1  0  -0.084139  0  3.764403  0  0  -0.107891  0  4.01892  0  0  -0.109556  0  4.041322  0  0  -0.089098  -0.106595  0  4.00358  0
C  C63  1  0.45046011  0.95334753  0.08841088  1  0  -0.084145  0  3.76445  0  0  -0.107869  0  4.018955  0  0  -0.109546  0  4.041361  0  0  -0.089044  -0.106583  0  4.003622  0
C  C64  1  0.14487482  0.50035513  0.74110701  1  0  0.633358  0  3.929773  0  0  0.589743  0  4.213631  0  0  0.623826  0  4.205804  0  0  0.199997  0.566577  0  4.218118  0
C  C65  1  0.35512230  0.00035400  0.75889110  1  0  0.633485  0  3.92972  0  0  0.589893  0  4.213542  0  0  0.623969  0  4.205719  0  0  0.200103  0.566722  0  4.218034  0
C  C66  1  0.85512333  0.49964369  0.25888889  1  0  0.633357  0  3.929813  0  0  0.589803  0  4.213598  0  0  0.623885  0  4.20577  0  0  0.200073  0.566638  0  4.218085  0
C  C67  1  0.64487311  0.99964759  0.24110753  1  0  0.633392  0  3.929608  0  0  0.589844  0  4.213396  0  0  0.623922  0  4.205571  0  0  0.200064  0.566671  0  4.217891  0
C  C68  1  0.66293678  0.15690054  0.52550668  1  0  0.117989  0  3.732814  0  0  0.088219  0  3.978413  0  0  0.095493  0  3.997121  0  0  0.037268  0.083366  0  3.965954  0
C  C69  1  0.83706315  0.65690159  0.97449705  1  0  0.117876  0  3.73294  0  0  0.088108  0  3.978532  0  0  0.095373  0  3.997238  0  0  0.037188  0.083235  0  3.966107  0
C  C70  1  0.33706321  0.84309827  0.47449559  1  0  0.117846  0  3.732937  0  0  0.088052  0  3.978523  0  0  0.095315  0  3.997229  0  0  0.037168  0.083179  0  3.966099  0
C  C71  1  0.16293685  0.34310093  0.02550352  1  0  0.117863  0  3.733032  0  0  0.088084  0  3.97861  0  0  0.095348  0  3.997317  0  0  0.037213  0.083206  0  3.966193  0
C  C72  1  0.85620406  0.23729059  0.60859677  1  0  0.13671  0  3.714929  0  0  0.10425  0  3.966388  0  0  0.112793  0  3.984549  0  0  0.046596  0.098701  0  3.954272  0
C  C73  1  0.64380080  0.73729453  0.89141069  1  0  0.136866  0  3.714894  0  0  0.104377  0  3.966363  0  0  0.112925  0  3.984505  0  0  0.046694  0.098831  0  3.954247  0
C  C74  1  0.14379686  0.76270637  0.39140995  1  0  0.136774  0  3.714951  0  0  0.104309  0  3.966404  0  0  0.112858  0  3.984543  0  0  0.046684  0.098756  0  3.954291  0
C  C75  1  0.35620286  0.26270892  0.10859075  1  0  0.13675  0  3.714989  0  0  0.104278  0  3.966431  0  0  0.112822  0  3.984577  0  0  0.046622  0.098731  0  3.954315  0
C  C76  1  0.81683696  0.28873744  0.70047311  1  0  -0.169278  0  3.698059  0  0  -0.184398  0  3.939089  0  0  -0.193841  0  3.960191  0  0  -0.083802  -0.178403  0  3.925237  0
C  C77  1  0.68316903  0.78874152  0.79953463  1  0  -0.169337  0  3.698173  0  0  -0.184433  0  3.93923  0  0  -0.193862  0  3.960335  0  0  -0.083865  -0.178436  0  3.925376  0
C  C78  1  0.18316487  0.71125766  0.29952959  1  0  -0.169275  0  3.698163  0  0  -0.184359  0  3.939207  0  0  -0.193789  0  3.960305  0  0  -0.083839  -0.178363  0  3.925353  0
C  C79  1  0.31683371  0.21125915  0.20046744  1  0  -0.16926  0  3.69815  0  0  -0.184333  0  3.939223  0  0  -0.193768  0  3.96032  0  0  -0.08381  -0.178338  0  3.925371  0
C  C80  1  0.61706204  0.20443292  0.61448155  1  0  -0.172595  0  3.702991  0  0  -0.188787  0  3.945599  0  0  -0.198064  0  3.96645  0  0  -0.086825  -0.182605  0  3.931775  0
C  C81  1  0.88293992  0.70443321  0.88552267  1  0  -0.172642  0  3.702939  0  0  -0.188843  0  3.945569  0  0  -0.198125  0  3.966423  0  0  -0.08687  -0.182654  0  3.931737  0
C  C82  1  0.38293887  0.79556589  0.38551839  1  0  -0.172583  0  3.703001  0  0  -0.188739  0  3.945622  0  0  -0.198017  0  3.966476  0  0  -0.086802  -0.182552  0  3.93179  0
C  C83  1  0.11706190  0.29556838  0.11447833  1  0  -0.172573  0  3.702947  0  0  -0.188725  0  3.945603  0  0  -0.198004  0  3.966458  0  0  -0.086841  -0.182536  0  3.931767  0
N  N84  1  0.50943232  0.39188374  0.89415514  1  0  -0.266322  0  3.298985  0  0  -0.190205  0  3.598751  0  0  -0.206561  0  3.614962  0  0  -0.274336  -0.179032  0  3.587567  0
N  N85  1  0.99056675  0.89187974  0.60584251  1  0  -0.266421  0  3.299155  0  0  -0.190307  0  3.598924  0  0  -0.206665  0  3.615137  0  0  -0.274399  -0.179133  0  3.587738  0
N  N86  1  0.49056674  0.60811971  0.10584097  1  0  -0.266425  0  3.299231  0  0  -0.190306  0  3.599002  0  0  -0.206664  0  3.615215  0  0  -0.274389  -0.179135  0  3.587823  0
N  N87  1  0.00943232  0.10811814  0.39415445  1  0  -0.266233  0  3.299039  0  0  -0.190118  0  3.598799  0  0  -0.206476  0  3.615013  0  0  -0.274297  -0.178944  0  3.587614  0
N  N88  1  0.78127621  0.17164466  0.52219544  1  0  -0.344581  0  3.316996  0  0  -0.257592  0  3.593177  0  0  -0.277262  0  3.607802  0  0  -0.343375  -0.24438  0  3.583329  0
N  N89  1  0.71872929  0.67164894  0.97781131  1  0  -0.344552  0  3.317126  0  0  -0.257563  0  3.593315  0  0  -0.277206  0  3.607908  0  0  -0.34332  -0.244348  0  3.583465  0
N  N90  1  0.21872470  0.82835137  0.47780704  1  0  -0.344568  0  3.316996  0  0  -0.257557  0  3.593172  0  0  -0.277198  0  3.607763  0  0  -0.343363  -0.244341  0  3.583321  0
N  N91  1  0.28127529  0.32835543  0.02219204  1  0  -0.344561  0  3.316985  0  0  -0.257565  0  3.593169  0  0  -0.277207  0  3.607764  0  0  -0.343392  -0.244348  0  3.583316  0
N  N92  1  0.62445117  0.41005105  0.96589299  1  0  -0.27408  0  3.284053  0  0  -0.202933  0  3.586178  0  0  -0.219615  0  3.602141  0  0  -0.275158  -0.191665  0  3.575204  0
N  N93  1  0.87554523  0.91004563  0.53410741  1  0  -0.273985  0  3.284259  0  0  -0.202838  0  3.586361  0  0  -0.219518  0  3.602324  0  0  -0.275075  -0.19157  0  3.575382  0
N  N94  1  0.37554607  0.58995333  0.03410523  1  0  -0.274  0  3.284175  0  0  -0.202866  0  3.586306  0  0  -0.219546  0  3.602268  0  0  -0.275084  -0.191596  0  3.575327  0
N  N95  1  0.12445201  0.08995040  0.46589166  1  0  -0.274084  0  3.284092  0  0  -0.202938  0  3.586228  0  0  -0.219621  0  3.60219  0  0  -0.27517  -0.191669  0  3.575245  0
O  O96  1  0.25410858  0.45315566  0.75794979  1  0  -0.637862  0  2.059201  0  0  -0.560442  0  2.324082  0  0  -0.588385  0  2.307592  0  0  -0.339837  -0.540945  0  2.334802  0
O  O97  1  0.24588953  0.95315534  0.74204865  1  0  -0.637937  0  2.059217  0  0  -0.56054  0  2.3241  0  0  -0.588484  0  2.307612  0  0  -0.339895  -0.541045  0  2.334823  0
O  O98  1  0.74589141  0.54684500  0.24204739  1  0  -0.637885  0  2.059292  0  0  -0.560498  0  2.32416  0  0  -0.588441  0  2.307671  0  0  -0.339898  -0.541002  0  2.334882  0
O  O99  1  0.75410772  0.04685089  0.25795211  1  0  -0.637909  0  2.059186  0  0  -0.560516  0  2.324044  0  0  -0.58846  0  2.307556  0  0  -0.339895  -0.541018  0  2.334769  0
O  O100  1  0.10126106  0.54237872  0.82118276  1  0  -0.630471  0  1.920249  0  0  -0.587088  0  2.143004  0  0  -0.609709  0  2.1329  0  0  -0.329032  -0.571145  0  2.149517  0
O  O101  1  0.39873623  0.04237682  0.67881540  1  0  -0.630525  0  1.920166  0  0  -0.587151  0  2.142911  0  0  -0.609772  0  2.132805  0  0  -0.329076  -0.57121  0  2.149431  0
O  O102  1  0.89873433  0.45761917  0.17881163  1  0  -0.630516  0  1.920307  0  0  -0.587155  0  2.143038  0  0  -0.609775  0  2.132936  0  0  -0.329072  -0.571208  0  2.149553  0
O  O103  1  0.60126193  0.95762014  0.32118473  1  0  -0.63051  0  1.920163  0  0  -0.587143  0  2.142896  0  0  -0.609768  0  2.132796  0  0  -0.329054  -0.571201  0  2.149415  0
