# generated using pymatgen
data_CuH50C42S2(N2O)4
_symmetry_space_group_name_H-M   'P 1'
_cell_length_a   7.34047961
_cell_length_b   10.45349604
_cell_length_c   13.84749995
_cell_angle_alpha   82.50677886
_cell_angle_beta   75.69228246
_cell_angle_gamma   89.81191555
_symmetry_Int_Tables_number   1
_chemical_formula_structural   CuH50C42S2(N2O)4
_chemical_formula_sum   'Cu1 H50 C42 S2 N8 O4'
_cell_volume   1020.35524509
_cell_formula_units_Z   1
loop_
 _symmetry_equiv_pos_site_id
 _symmetry_equiv_pos_as_xyz
  1  'x, y, z'
loop_
 _atom_site_type_symbol
 _atom_site_label
 _atom_site_symmetry_multiplicity
 _atom_site_fract_x
 _atom_site_fract_y
 _atom_site_fract_z
 _atom_site_occupancy
 _atom_site_pbe_bader_charge
 _atom_site_pbe_bader_spin_density
 _atom_site_pbe_cm5_charge
 _atom_site_pbe_ddec_charge
 _atom_site_pbe_ddec_spin_density
 _atom_site_pbe_ddec_sum_bond_order
 _atom_site_pbe_magmom
Cu  Cu0  1  0.49998526  0.99999598  0.50000623  1  1.101351  0.579756  0.819317  0.819882  0.73908  2.373411  0.578
H  H1  1  0.28540577  0.53774192  0.64328917  1  0.462083  0.000315  0.285978  0.240251  0.000174  1.036489  0.0
H  H2  1  0.71458650  0.46225788  0.35671072  1  0.462096  0.000315  0.285949  0.240174  0.000174  1.036532  0.0
H  H3  1  0.56188624  0.24918329  0.56485995  1  0.175544  0.003317  0.121281  0.110717  0.001578  1.063067  0.002
H  H4  1  0.43809620  0.75081653  0.43513833  1  0.175393  0.003318  0.121289  0.110741  0.001579  1.06307  0.002
H  H5  1  0.10964355  0.06867117  0.50325490  1  0.127514  0.002826  0.117593  0.094392  0.001345  1.028405  0.002
H  H6  1  0.89034303  0.93132762  0.49675015  1  0.12757  0.002827  0.117638  0.094496  0.001346  1.02835  0.002
H  H7  1  0.90256791  0.25775716  0.54449255  1  0.148893  0.001759  0.112051  0.132157  0.000932  1.018416  0.001
H  H8  1  0.09742579  0.74224357  0.45551068  1  0.149016  0.001759  0.112063  0.132169  0.000932  1.018408  0.001
H  H9  1  0.03663616  0.44845218  0.59526780  1  0.121576  0.000212  0.109879  0.118394  0.000114  1.01438  0.0
H  H10  1  0.96335062  0.55155143  0.40473678  1  0.121549  0.000212  0.109879  0.118373  0.000115  1.014466  0.0
H  H11  1  0.46560226  0.66155649  0.69649416  1  0.065784  -2.4e-05  0.089812  0.103774  -7e-05  1.030482  0.0
H  H12  1  0.53438443  0.33844427  0.30350637  1  0.065877  -2.4e-05  0.089793  0.103762  -7e-05  1.030573  0.0
H  H13  1  0.71100596  0.64967716  0.64247685  1  0.063004  3.2e-05  0.090984  0.105211  3e-06  1.039706  0.0
H  H14  1  0.28898786  0.35032556  0.35751968  1  0.062989  3.3e-05  0.090957  0.105206  3e-06  1.039686  0.0
H  H15  1  0.72762454  0.47743926  0.78524742  1  0.031062  4.1e-05  0.087228  0.085103  3e-05  1.003826  0.0
H  H16  1  0.27237482  0.52256155  0.21474713  1  0.030997  4.1e-05  0.087227  0.085066  3e-05  1.003816  0.0
H  H17  1  0.67400322  0.63129529  0.82093764  1  0.013977  -3.9e-05  0.078849  0.067735  -4.5e-05  1.042948  0.0
H  H18  1  0.32599625  0.36870839  0.17905951  1  0.014007  -3.9e-05  0.078864  0.067776  -4.5e-05  1.042871  0.0
H  H19  1  0.38451243  0.41079733  0.84144155  1  0.013367  -0.0  0.083193  0.079178  -1e-06  1.003145  0.0
H  H20  1  0.61548682  0.58920149  0.15855897  1  0.013379  -0.0  0.083195  0.079141  -1e-06  1.003213  0.0
H  H21  1  0.32938665  0.56482307  0.87579148  1  0.002676  -1e-05  0.081256  0.072014  -1.3e-05  1.017083  0.0
H  H22  1  0.67061537  0.43517480  0.12420878  1  0.002634  -1e-05  0.081239  0.071968  -1.3e-05  1.0171  0.0
H  H23  1  0.33587719  0.40050343  0.02151021  1  -0.017395  -1e-06  0.081452  0.069412  -1e-06  1.020503  0.0
H  H24  1  0.66413186  0.59949443  0.97848986  1  -0.017446  -1e-06  0.081455  0.069453  -1e-06  1.020574  0.0
H  H25  1  0.57349935  0.36991988  0.96909750  1  0.017007  -0.0  0.081456  0.073648  1e-06  1.010668  0.0
H  H26  1  0.42651128  0.63008188  0.03089838  1  0.016855  -0.0  0.081466  0.073653  1e-06  1.010633  0.0
H  H27  1  0.71137740  0.87044315  0.70112653  1  0.088631  -2.3e-05  0.109461  0.030407  -6.1e-05  1.029184  0.0
H  H28  1  0.28860191  0.12954896  0.29887215  1  0.08885  -2.3e-05  0.109476  0.030396  -6.1e-05  1.029187  0.0
H  H29  1  0.42739226  0.88998439  0.91761884  1  0.061251  -8e-06  0.096026  0.10745  -8e-06  1.019605  0.0
H  H30  1  0.57261674  0.11001249  0.08238277  1  0.061156  -8e-06  0.096033  0.107446  -8e-06  1.019624  0.0
H  H31  1  0.64875144  0.93519201  0.93824728  1  0.062431  1.2e-05  0.098684  0.109623  8e-06  1.017951  0.0
H  H32  1  0.35126768  0.06481071  0.06174742  1  0.062276  1.2e-05  0.098703  0.10965  8e-06  1.018031  0.0
H  H33  1  0.63862210  0.81558148  0.85937795  1  0.073599  -9e-06  0.104011  0.112327  -7e-06  1.035738  0.0
H  H34  1  0.36138571  0.18442025  0.14062119  1  0.073627  -9e-06  0.104004  0.11231  -7e-06  1.035773  0.0
H  H35  1  0.60368596  0.19959672  0.74090167  1  0.11902  -1e-06  0.110223  0.135311  1.2e-05  1.019626  0.0
H  H36  1  0.39632446  0.80039930  0.25908900  1  0.119079  -0.0  0.110235  0.135266  1.2e-05  1.019634  0.0
H  H37  1  0.62705097  0.16677551  0.86726656  1  0.049901  -1e-05  0.099635  0.111613  -7e-06  1.010449  0.0
H  H38  1  0.37296514  0.83322240  0.13272753  1  0.050169  -1e-05  0.099591  0.11156  -7e-06  1.010558  0.0
H  H39  1  0.40454193  0.14029958  0.84077098  1  0.042483  4e-06  0.096159  0.108593  -0.0  1.021301  0.0
H  H40  1  0.59547017  0.85970318  0.15922173  1  0.04252  4e-06  0.096188  0.108589  -0.0  1.02121  0.0
H  H41  1  0.08386560  0.70266780  0.90767342  1  0.091905  2.4e-05  0.087953  0.083299  2.6e-05  1.078345  0.0
H  H42  1  0.91615504  0.29733872  0.09232794  1  0.091775  2.4e-05  0.087938  0.083297  2.6e-05  1.078351  0.0
H  H43  1  0.05441725  0.54319088  0.06157235  1  0.069799  -1.2e-05  0.10118  0.099956  -1.5e-05  1.012432  0.0
H  H44  1  0.94559649  0.45681854  0.93842965  1  0.069678  -1.2e-05  0.101137  0.09989  -1.5e-05  1.012371  0.0
H  H45  1  0.97666751  0.61559200  0.23036978  1  0.064018  -2.5e-05  0.093926  0.08869  -4.3e-05  1.055107  0.0
H  H46  1  0.02333733  0.38440678  0.76963580  1  0.06406  -2.5e-05  0.093926  0.088741  -4.3e-05  1.05503  0.0
H  H47  1  0.92905636  0.84655224  0.24886803  1  0.056015  -3.2e-05  0.101716  0.109277  -5.6e-05  1.011359  0.0
H  H48  1  0.07094990  0.15344656  0.75113520  1  0.056106  -3.2e-05  0.101701  0.109293  -5.6e-05  1.011353  0.0
H  H49  1  0.07942711  0.92714935  0.82969499  1  0.053561  -2e-05  0.100431  0.111279  -2.3e-05  1.018934  0.0
H  H50  1  0.92059051  0.07285234  0.17030794  1  0.05357  -2e-05  0.100395  0.111138  -2.3e-05  1.01903  0.0
C  C51  1  0.21152450  0.80838193  0.64806237  1  0.536739  0.002852  0.148522  0.279911  0.001406  4.318382  0.008
C  C52  1  0.78847123  0.19160136  0.35195016  1  0.536146  0.002851  0.148516  0.280031  0.00141  4.317982  0.008
C  C53  1  0.31025454  0.36379121  0.58641146  1  0.350401  0.007087  0.10432  0.208661  0.00466  4.0061  0.006
C  C54  1  0.68973907  0.63620668  0.41358627  1  0.350107  0.007088  0.104344  0.208734  0.004661  4.005957  0.006
C  C55  1  0.41657642  0.25567615  0.56066420  1  0.491849  -0.001119  0.037103  -0.024066  -0.001381  3.884369  -0.001
C  C56  1  0.58341008  0.74431980  0.43933463  1  0.491981  -0.001119  0.037105  -0.024191  -0.001382  3.88431  -0.001
C  C57  1  0.16048971  0.15451161  0.52640311  1  0.423122  -0.000821  0.038579  0.061387  -0.001311  3.948464  0.0
C  C58  1  0.83949262  0.84548623  0.47359970  1  0.423591  -0.000822  0.038443  0.061026  -0.00131  3.948774  0.0
C  C59  1  0.04832357  0.25976298  0.54843274  1  0.022453  0.00748  -0.079663  -0.103954  0.005046  3.980345  0.006
C  C60  1  0.95166448  0.74023770  0.45157556  1  0.021885  0.007482  -0.079582  -0.103761  0.005046  3.980142  0.006
C  C61  1  0.12342853  0.36557664  0.57789862  1  -0.037424  -0.00438  -0.069742  -0.129237  -0.004885  3.914525  -0.003
C  C62  1  0.87656403  0.63442993  0.42209916  1  -0.037044  -0.004379  -0.069777  -0.129319  -0.004884  3.914526  -0.003
C  C63  1  0.55533236  0.48177854  0.63881723  1  1.378997  0.000141  0.24245  0.536217  0.000105  4.057573  0.0
C  C64  1  0.44465999  0.51822319  0.36118247  1  1.378787  0.000141  0.242501  0.536371  0.000105  4.057447  0.0
C  C65  1  0.58448016  0.59646318  0.68990801  1  -0.067053  3.5e-05  -0.17205  -0.306958  0.0  3.936449  0.0
C  C66  1  0.41551502  0.40353857  0.31008916  1  -0.067057  3.5e-05  -0.171979  -0.306992  0.0  3.936499  0.0
C  C67  1  0.61723581  0.54963663  0.79380305  1  -0.006294  1e-05  -0.168502  -0.121012  9e-06  3.925188  0.0
C  C68  1  0.38276217  0.45036511  0.20619519  1  -0.006306  1e-05  -0.168522  -0.120979  9e-06  3.925  0.0
C  C69  1  0.43971284  0.49231283  0.86991336  1  0.002809  -4e-06  -0.172348  -0.143368  -9e-06  3.934422  0.0
C  C70  1  0.56029063  0.50768601  0.13008589  1  0.002858  -4e-06  -0.172331  -0.143301  -9e-06  3.934336  0.0
C  C71  1  0.46869480  0.44630126  0.97438976  1  -0.001326  -2e-06  -0.171088  -0.144089  -1e-06  3.936494  0.0
C  C72  1  0.53131154  0.55369856  0.02560686  1  -0.023752  -2e-06  -0.17114  -0.144169  -1e-06  3.936503  0.0
C  C73  1  0.67654247  0.97364851  0.70161117  1  1.361893  -0.00042  0.167175  0.304787  -0.000566  4.131499  0.0
C  C74  1  0.32345108  0.02634749  0.29838313  1  1.36117  -0.00042  0.167104  0.30483  -0.000566  4.131547  0.0
C  C75  1  0.57882933  0.90626179  0.88251094  1  0.240055  -1.4e-05  -0.132888  -0.270129  -1.8e-05  3.921602  0.0
C  C76  1  0.42117704  0.09373899  0.11748704  1  0.240203  -1.4e-05  -0.132908  -0.270137  -1.8e-05  3.921709  0.0
C  C77  1  0.55786827  0.13546372  0.81205349  1  0.259091  -1e-06  -0.137792  -0.265329  -5e-06  3.877464  0.0
C  C78  1  0.44214516  0.86453709  0.18793996  1  0.258606  -1e-06  -0.137839  -0.265272  -5e-06  3.877541  0.0
C  C79  1  0.02585042  0.86727349  0.98957811  1  -0.071681  -2e-06  -0.01352  0.063354  0.0  4.031429  0.0
C  C80  1  0.97416480  0.13273786  0.01042351  1  -0.071699  -2e-06  -0.013487  0.063146  1e-06  4.031874  0.0
C  C81  1  0.05070976  0.73302209  0.98245913  1  -0.05353  5.2e-05  -0.094888  -0.142336  3.6e-05  3.994604  0.0
C  C82  1  0.94930826  0.26698924  0.01754357  1  -0.053312  5.2e-05  -0.094879  -0.14235  3.6e-05  3.994776  0.0
C  C83  1  0.03339465  0.64545203  0.06746411  1  -0.046504  -1.5e-05  -0.091041  -0.078962  -2e-05  4.019242  0.0
C  C84  1  0.96663169  0.35455641  0.93253778  1  -0.046892  -1.5e-05  -0.090982  -0.078781  -2e-05  4.018876  0.0
C  C85  1  0.98901646  0.68685750  0.16420278  1  -0.036166  -3.7e-05  -0.095406  -0.092368  -5.6e-05  4.035043  0.0
C  C86  1  0.01098839  0.31314128  0.83580208  1  -0.035919  -3.7e-05  -0.09538  -0.092455  -5.6e-05  4.034848  0.0
C  C87  1  0.96259409  0.81490580  0.17455619  1  -0.077442  -1.5e-05  -0.089798  -0.130107  -2.6e-05  3.972996  0.0
C  C88  1  0.03742209  0.18509493  0.82544557  1  -0.077392  -1.5e-05  -0.08979  -0.130147  -2.6e-05  3.972989  0.0
C  C89  1  0.98019866  0.90932921  0.08816781  1  0.007716  1e-06  -0.012899  0.061218  4e-06  4.034544  0.0
C  C90  1  0.01981498  0.09067825  0.91183726  1  0.007616  1e-06  -0.012968  0.061332  3e-06  4.034742  0.0
C  C91  1  0.04492081  0.95908373  0.90399575  1  -0.0533  -1.3e-05  -0.088254  -0.184932  -1.3e-05  3.944951  0.0
C  C92  1  0.95509292  0.04092568  0.09600697  1  -0.05329  -1.3e-05  -0.088202  -0.184538  -1.3e-05  3.944841  0.0
S  S93  1  0.06017542  0.69396986  0.70666243  1  0.04415  0.008971  -0.139683  -0.329042  0.004287  2.340306  0.006
S  S94  1  0.93980258  0.30602598  0.29334835  1  0.04419  0.008994  -0.139585  -0.328905  0.0043  2.340265  0.006
N  N95  1  0.32348501  0.89203645  0.60743800  1  -1.27956  0.06955  -0.423257  -0.497792  0.046359  3.335238  0.058
N  N96  1  0.67646904  0.10795661  0.39256242  1  -1.278835  0.069564  -0.423319  -0.498056  0.046362  3.334944  0.058
N  N97  1  0.34056376  0.15505893  0.53181467  1  -1.208737  0.111009  -0.340438  -0.202183  0.072642  3.658421  0.096
N  N98  1  0.65942116  0.84493316  0.46818545  1  -1.208751  0.11101  -0.340389  -0.201968  0.072644  3.658317  0.096
N  N99  1  0.38018725  0.46761620  0.62201414  1  -1.256899  0.001437  -0.396336  -0.373323  0.000774  3.593129  0.001
N  N100  1  0.61980218  0.53238264  0.37798476  1  -1.256996  0.001437  -0.396373  -0.373277  0.000774  3.592923  0.001
N  N101  1  0.61038769  0.00447317  0.79525155  1  -1.199192  -3.9e-05  -0.287812  0.020744  -2.4e-05  3.710149  0.0
N  N102  1  0.38961288  0.99552282  0.20474329  1  -1.19868  -3.9e-05  -0.287811  0.020669  -2.4e-05  3.710295  0.0
O  O103  1  0.68246341  0.40449572  0.61671204  1  -1.156746  0.000821  -0.284445  -0.479567  0.000506  2.156806  0.001
O  O104  1  0.31752473  0.59550601  0.38328749  1  -1.156584  0.000821  -0.284493  -0.479685  0.000506  2.156814  0.001
O  O105  1  0.70005656  0.05022293  0.62254912  1  -1.164527  -0.000795  -0.306373  -0.487349  -0.000944  2.310353  0.0
O  O106  1  0.29992848  0.94977115  0.37744430  1  -1.164361  -0.000795  -0.306275  -0.487283  -0.000944  2.310381  0.0
