# generated using pymatgen
data_CuH14C17S(NO3)2
_symmetry_space_group_name_H-M   'P 1'
_cell_length_a   8.98325396
_cell_length_b   11.03079091
_cell_length_c   10.87901741
_cell_angle_alpha   106.65021987
_cell_angle_beta   107.37593669
_cell_angle_gamma   106.83425464
_symmetry_Int_Tables_number   1
_chemical_formula_structural   CuH14C17S(NO3)2
_chemical_formula_sum   'Cu2 H28 C34 S2 N4 O12'
_cell_volume   898.89884969
_cell_formula_units_Z   2
loop_
 _symmetry_equiv_pos_site_id
 _symmetry_equiv_pos_as_xyz
  1  'x, y, z'
loop_
 _atom_site_type_symbol
 _atom_site_label
 _atom_site_symmetry_multiplicity
 _atom_site_fract_x
 _atom_site_fract_y
 _atom_site_fract_z
 _atom_site_occupancy
 _atom_site_hle17_ddec_charge
 _atom_site_hle17_ddec_spin_density
 _atom_site_hle17_ddec_sum_bond_order
 _atom_site_hle17_magmom
 _atom_site_hse06_10hf_ddec_charge
 _atom_site_hse06_10hf_ddec_spin_density
 _atom_site_hse06_10hf_ddec_sum_bond_order
 _atom_site_hse06_10hf_magmom
 _atom_site_hse06_ddec_charge
 _atom_site_hse06_ddec_spin_density
 _atom_site_hse06_ddec_sum_bond_order
 _atom_site_hse06_magmom
 _atom_site_pbe_cm5_charge
 _atom_site_pbe_ddec_charge
 _atom_site_pbe_ddec_spin_density
 _atom_site_pbe_ddec_sum_bond_order
 _atom_site_pbe_magmom
Cu  Cu0  1  0.12441135  0.95027963  0.85365960  1  0.903805  -0.737092  1.750248  -0.521  0.888314  -0.818615  2.126872  -0.642  0.975879  -0.892261  2.06499  -0.728  0.756104  0.834  -0.75832  2.172415  -0.579
Cu  Cu1  1  0.87559006  0.04971721  0.14634172  1  0.903742  0.737105  1.750382  0.521  0.888273  0.818619  2.126993  0.642  0.97586  0.892274  2.065112  0.728  0.756145  0.833956  0.758327  2.172531  0.579
H  H2  1  0.08334012  0.86976349  0.59330212  1  0.420928  5.1e-05  0.888272  0.001  0.388673  -0.000387  0.955077  0.0  0.401063  -0.000211  0.937338  0.0  0.286018  0.37995  -0.000542  0.967563  0.0
H  H3  1  0.91666623  0.13023855  0.40669916  1  0.420922  -5e-05  0.888275  -0.001  0.388677  0.000387  0.955066  0.0  0.401068  0.00021  0.937325  0.0  0.286014  0.379953  0.000542  0.967553  0.0
H  H4  1  0.86815916  0.67275533  0.74039900  1  0.093548  -0.001217  0.974858  -0.002  0.098652  -0.000987  1.042267  -0.002  0.100765  -0.00072  1.039968  -0.001  0.120214  0.096927  -0.001089  1.044021  -0.002
H  H5  1  0.13184165  0.32724051  0.25958992  1  0.093528  0.001218  0.974907  0.002  0.098611  0.000987  1.042338  0.002  0.100721  0.00072  1.040044  0.001  0.120207  0.096884  0.001089  1.04409  0.002
H  H6  1  0.85324575  0.44016144  0.73162948  1  0.115926  -0.000588  0.939343  0.0  0.129406  -0.000531  0.991094  0.0  0.132304  -0.000374  0.990695  0.0  0.115214  0.127234  -0.000565  0.991825  -0.001
H  H7  1  0.14675290  0.55983230  0.26836658  1  0.115835  0.000591  0.939452  0.0  0.129302  0.000531  0.991227  0.0  0.132201  0.000374  0.990829  0.0  0.115188  0.12713  0.000565  0.991957  0.001
H  H8  1  0.39898965  0.63847687  0.98494898  1  0.097676  -0.00057  0.970563  0.0  0.10813  -0.000494  1.033967  0.0  0.110359  -0.000351  1.034482  0.0  0.105313  0.106525  -0.000508  1.033905  0.0
H  H9  1  0.60101141  0.36152620  0.01505409  1  0.097662  0.000569  0.97055  0.0  0.108111  0.000494  1.033974  0.0  0.110341  0.000351  1.034488  0.0  0.105292  0.106504  0.000508  1.033911  0.0
H  H10  1  0.39078141  0.86244316  0.98513571  1  0.127594  -0.000969  0.939813  -0.002  0.131818  -0.00074  1.003315  -0.001  0.135528  -0.000548  0.999055  -0.001  0.128804  0.128824  -0.000852  1.0067  -0.002
H  H11  1  0.60922569  0.13755577  0.01486300  1  0.127758  0.000969  0.939739  0.002  0.131842  0.00074  1.0034  0.001  0.135599  0.000548  0.999075  0.001  0.128818  0.128848  0.000851  1.006784  0.002
H  H12  1  0.86731123  0.30364972  0.85056589  1  0.111651  -0.00063  0.94229  0.0  0.122475  -0.000567  0.99978  0.0  0.125258  -0.0004  0.999768  0.0  0.112713  0.120472  -0.000602  1.000113  -0.001
H  H13  1  0.13268319  0.69634712  0.14943465  1  0.11165  0.00063  0.942335  0.0  0.122449  0.000567  0.999832  0.0  0.125232  0.0004  0.999822  0.0  0.112694  0.120445  0.000602  1.000164  0.001
H  H14  1  0.86949191  0.07818822  0.84115456  1  0.102884  -0.001246  0.963216  -0.002  0.107855  -0.00101  1.031067  -0.001  0.10989  -0.000762  1.02916  -0.001  0.124733  0.106004  -0.001111  1.032897  -0.002
H  H15  1  0.13052613  0.92181381  0.15885323  1  0.102853  0.001253  0.963182  0.002  0.107864  0.00101  1.03102  0.001  0.109874  0.000761  1.029137  0.001  0.124744  0.106009  0.001111  1.032848  0.002
H  H16  1  0.35198835  0.18512719  0.84333501  1  0.100107  -0.001066  0.958751  -0.002  0.10641  -0.000851  1.022215  -0.001  0.10891  -0.000605  1.019456  -0.001  0.122476  0.104367  -0.000963  1.02446  -0.002
H  H17  1  0.64802058  0.81487070  0.15666751  1  0.100174  0.00106  0.958808  0.002  0.106446  0.000851  1.022294  0.001  0.108945  0.000605  1.019536  0.001  0.122487  0.1044  0.000963  1.024539  0.002
H  H18  1  0.37231599  0.42110139  0.85411798  1  0.100445  -0.000493  0.971428  0.0  0.109926  -0.000424  1.035821  0.0  0.112543  -0.000296  1.035887  0.0  0.105467  0.107997  -0.000446  1.036127  0.0
H  H19  1  0.62767696  0.57889027  0.14587884  1  0.100443  0.000494  0.971353  0.0  0.109913  0.000423  1.03577  0.0  0.112528  0.000296  1.035838  0.0  0.105456  0.107979  0.000446  1.036077  0.0
H  H20  1  0.86664151  0.35241058  0.49231512  1  0.096757  -3.3e-05  0.971556  0.0  0.105555  2e-05  1.035938  0.0  0.108496  1.2e-05  1.034568  0.0  0.101526  0.103471  2.1e-05  1.036959  0.0
H  H21  1  0.13337533  0.64760083  0.50768136  1  0.09681  3.6e-05  0.971376  0.0  0.105611  -2.1e-05  1.035756  0.0  0.108551  -1.2e-05  1.034387  0.0  0.101526  0.103525  -2e-05  1.036781  0.0
H  H22  1  0.88173449  0.58930367  0.51867942  1  0.091158  5.7e-05  0.986628  0.0  0.099515  -7e-05  1.052279  0.0  0.10256  -2.6e-05  1.050732  0.0  0.096412  0.097317  -0.000111  1.053475  0.0
H  H23  1  0.11826980  0.41071293  0.48131280  1  0.091345  -5.6e-05  0.986534  0.0  0.099662  6.9e-05  1.052213  0.0  0.102707  2.6e-05  1.050668  0.0  0.09645  0.097463  0.000111  1.053409  0.0
H  H24  1  0.62491629  0.61575647  0.38651265  1  0.092842  -0.000246  0.934784  0.0  0.106609  -0.000203  0.985983  0.0  0.109792  -0.000121  0.984126  0.0  0.103695  0.104383  -0.000293  0.987341  0.0
H  H25  1  0.37505362  0.38424038  0.61347922  1  0.092909  0.000249  0.934633  0.0  0.106682  0.000203  0.985829  0.0  0.109869  0.00012  0.983966  0.0  0.103681  0.104454  0.000293  0.987189  0.0
H  H26  1  0.35798464  0.40475049  0.21631735  1  0.08834  0.000104  0.959517  0.0  0.09992  -5e-06  1.019124  0.0  0.102608  -0.0  1.018669  0.0  0.098692  0.098047  -1.1e-05  1.01956  0.0
H  H27  1  0.64198171  0.59522766  0.78367732  1  0.088372  -9.8e-05  0.959451  0.0  0.099943  6e-06  1.019056  0.0  0.102631  1e-06  1.018603  0.0  0.098701  0.098071  1.1e-05  1.019497  0.0
H  H28  1  0.91516948  0.89183459  0.59991728  1  0.427796  0.000311  0.806009  0.001  0.418387  -0.000334  0.848642  0.0  0.427342  -0.000142  0.839858  0.0  0.329013  0.411883  -0.00052  0.855328  0.0
H  H29  1  0.08483794  0.10816952  0.40008764  1  0.427829  -0.00031  0.80595  -0.001  0.418418  0.000334  0.848586  0.0  0.427376  0.000142  0.839797  0.0  0.329021  0.411919  0.000519  0.855266  0.0
C  C30  1  0.98123423  0.65884123  0.79382870  1  0.125777  0.005134  3.70676  0.006  0.09745  3.4e-05  3.962507  0.001  0.106565  0.001166  3.981974  0.002  0.045843  0.091085  -0.000774  3.950288  0.0
C  C31  1  0.01876416  0.34115667  0.20616576  1  0.125657  -0.00514  3.706905  -0.006  0.097353  -3.5e-05  3.962685  -0.001  0.106471  -0.001166  3.982148  -0.002  0.045774  0.090991  0.000774  3.950466  0.0
C  C32  1  0.97449716  0.53113562  0.79170909  1  -0.165799  -0.008528  3.714146  -0.009  -0.183383  -0.003616  3.961452  -0.004  -0.192396  -0.003252  3.982704  -0.004  -0.080935  -0.177587  -0.00389  3.948066  -0.005
C  C33  1  0.02550007  0.46886228  0.20828510  1  -0.165643  0.008526  3.714237  0.009  -0.183254  0.003618  3.961477  0.004  -0.19227  0.003252  3.982728  0.004  -0.080899  -0.177458  0.00389  3.948091  0.005
C  C34  1  0.12567718  0.51965309  0.86007916  1  0.093529  0.006431  3.778135  0.006  0.102612  0.002214  4.011361  0.002  0.10773  0.002403  4.032265  0.002  0.011785  0.098823  0.002172  3.998247  0.002
C  C35  1  0.87431945  0.48034583  0.13992162  1  0.093457  -0.006439  3.778366  -0.006  0.102656  -0.002215  4.011419  -0.002  0.107782  -0.002403  4.032317  -0.002  0.011791  0.098869  -0.002172  3.998306  -0.002
C  C36  1  0.27755445  0.64064328  0.92970719  1  -0.155556  -0.00829  3.687969  -0.009  -0.172754  -0.003301  3.93376  -0.004  -0.181525  -0.00302  3.954586  -0.004  -0.078834  -0.166999  -0.0035  3.920493  -0.004
C  C37  1  0.72244359  0.35935149  0.07029362  1  -0.15541  0.008296  3.687911  0.009  -0.172638  0.003301  3.933608  0.004  -0.181416  0.003019  3.95445  0.004  -0.078783  -0.166881  0.003499  3.92034  0.004
C  C38  1  0.27505143  0.76623484  0.92982680  1  0.150857  0.006805  3.621765  0.007  0.121691  0.001208  3.876597  0.002  0.132758  0.002083  3.892097  0.003  0.060787  0.113976  0.000561  3.867089  0.001
C  C39  1  0.72494945  0.23376096  0.07017408  1  0.150654  -0.006811  3.621738  -0.007  0.121604  -0.001209  3.87656  -0.002  0.132638  -0.002083  3.892047  -0.003  0.060761  0.11389  -0.000561  3.867052  -0.001
C  C40  1  0.12234299  0.38422085  0.85606257  1  0.098189  0.005851  3.761337  0.005  0.111753  0.001829  3.987671  0.002  0.116167  0.002112  4.008295  0.002  0.015365  0.108455  0.001725  3.974625  0.002
C  C41  1  0.87765665  0.61577701  0.14394505  1  0.098019  -0.00584  3.761655  -0.005  0.11155  -0.001829  3.987951  -0.002  0.11596  -0.002112  4.008577  -0.002  0.015298  0.10825  -0.001726  3.974906  -0.002
C  C42  1  0.97918799  0.28416939  0.84998880  1  -0.128057  -0.008089  3.65993  -0.008  -0.1472  -0.003325  3.903996  -0.004  -0.15436  -0.003025  3.923222  -0.004  -0.070214  -0.142472  -0.003586  3.891844  -0.004
C  C43  1  0.02081431  0.71583364  0.15002559  1  -0.128018  0.008074  3.659867  0.008  -0.147109  0.003327  3.90392  0.004  -0.154268  0.003025  3.923141  0.004  -0.070139  -0.14238  0.003587  3.891764  0.004
C  C44  1  0.97898507  0.15704133  0.84539991  1  0.159726  0.005305  3.636922  0.006  0.128159  5.4e-05  3.893634  0.001  0.138392  0.001071  3.910001  0.002  0.060752  0.120763  -0.000895  3.883778  0.0
C  C45  1  0.02102586  0.84296277  0.15460769  1  0.159858  -0.005306  3.636525  -0.006  0.128213  -5.5e-05  3.893271  -0.001  0.138465  -0.001072  3.909654  -0.002  0.060702  0.120823  0.000895  3.883409  0.0
C  C46  1  0.25088285  0.21958391  0.84845886  1  0.119749  0.006036  3.691514  0.006  0.092686  0.000798  3.942901  0.002  0.101557  0.001772  3.961301  0.003  0.043163  0.086207  0.000289  3.931762  0.001
C  C47  1  0.74912099  0.78041087  0.15153875  1  0.119768  -0.00602  3.691658  -0.006  0.092725  -0.000798  3.943031  -0.002  0.101597  -0.001774  3.961432  -0.003  0.043155  0.086242  -0.00029  3.931898  -0.001
C  C48  1  0.26048244  0.34922195  0.85498740  1  -0.169419  -0.007333  3.727089  -0.008  -0.185605  -0.002815  3.970077  -0.003  -0.19381  -0.002588  3.991117  -0.003  -0.085646  -0.180196  -0.002974  3.956778  -0.004
C  C49  1  0.73951796  0.65077281  0.14501765  1  -0.169361  0.007325  3.7271  0.008  -0.185538  0.002815  3.970084  0.003  -0.193741  0.002588  3.991122  0.003  -0.085624  -0.18013  0.002974  3.956792  0.004
C  C50  1  0.29696547  0.14225693  0.14882816  1  0.651805  0.004517  3.907228  0.009  0.610148  -0.001067  4.218687  0.002  0.64977  -0.000443  4.208598  0.002  0.210493  0.583368  -0.001761  4.22405  0.002
C  C51  1  0.70302834  0.85774094  0.85117713  1  0.65185  -0.004509  3.907475  -0.009  0.610286  0.001067  4.218806  -0.002  0.649908  0.000442  4.208723  -0.002  0.210626  0.583519  0.001762  4.224169  -0.002
C  C52  1  0.46313187  0.26132254  0.25792886  1  -0.034518  -0.013083  3.711879  -0.014  -0.017719  -0.006645  3.937133  -0.008  -0.021057  -0.00424  3.956696  -0.005  -0.00732  -0.015661  -0.009011  3.924285  -0.01
C  C53  1  0.53686291  0.73867743  0.74206626  1  -0.034464  0.013079  3.711839  0.014  -0.017701  0.00665  3.937125  0.008  -0.021044  0.004242  3.956687  0.005  -0.007283  -0.015651  0.009016  3.924293  0.01
C  C54  1  0.60748147  0.24691069  0.33674029  1  -0.120044  -0.00201  3.673926  -0.002  -0.102232  -0.000502  3.914152  0.0  -0.107893  -0.00019  3.935485  0.0  -0.015301  -0.098737  -0.000873  3.900244  -0.001
C  C55  1  0.39252543  0.75310174  0.66325960  1  -0.119942  0.002019  3.673923  0.002  -0.102192  0.000497  3.914265  0.0  -0.107851  0.000188  3.935594  0.0  -0.015301  -0.098694  0.000873  3.900358  0.001
C  C56  1  0.75719934  0.36536048  0.43008816  1  -0.074524  0.001218  3.762586  0.001  -0.09979  0.000113  4.01715  0.0  -0.100199  9.3e-05  4.039071  0.0  -0.092504  -0.09918  7.4e-05  4.002038  0.0
C  C57  1  0.24281236  0.63464986  0.56991504  1  -0.074615  -0.001232  3.762527  -0.001  -0.099862  -0.000112  4.017122  0.0  -0.100271  -9.3e-05  4.039041  0.0  -0.092522  -0.099245  -7.3e-05  4.002003  0.0
C  C58  1  0.76499805  0.49738160  0.44573977  1  -0.070257  -0.003577  3.763552  -0.003  -0.088193  -0.000828  4.023646  -0.001  -0.091165  -0.00038  4.045137  0.0  -0.096543  -0.085955  -0.001339  4.008564  -0.001
C  C59  1  0.23499334  0.50262769  0.55426372  1  -0.070556  0.003582  3.763579  0.003  -0.088459  0.000827  4.023678  0.001  -0.091435  0.00038  4.045168  0.0  -0.096657  -0.086218  0.001339  4.008592  0.001
C  C60  1  0.62072645  0.51239892  0.37058956  1  -0.064129  3.8e-05  3.784678  0.0  -0.080687  -0.000345  4.04298  0.0  -0.080557  -0.000187  4.06263  0.0  -0.094138  -0.080424  -0.000545  4.02914  -0.001
C  C61  1  0.37925669  0.48760105  0.62940550  1  -0.064141  -4.9e-05  3.784527  0.0  -0.080703  0.000345  4.042804  0.0  -0.080575  0.000186  4.062454  0.0  -0.094072  -0.08044  0.000545  4.028965  0.001
C  C62  1  0.47126012  0.39470801  0.27701636  1  -0.099327  -0.002774  3.756203  -0.003  -0.121309  -0.00137  4.006171  -0.001  -0.12427  -0.000773  4.027191  -0.001  -0.093722  -0.119231  -0.001966  3.991935  -0.002
C  C63  1  0.52872314  0.60528988  0.72297811  1  -0.099351  0.00277  3.756124  0.003  -0.121305  0.001368  4.006088  0.001  -0.12427  0.000771  4.027116  0.001  -0.093777  -0.119224  0.001965  3.991859  0.002
S  S64  1  0.60269151  0.07937411  0.32670967  1  1.287907  -0.0001  5.662646  0.0  1.195637  -0.000203  6.186858  0.0  1.244558  -0.000149  6.162001  0.0  0.49568  1.161866  -0.000277  6.202641  0.0
S  S65  1  0.39732134  0.92063625  0.67328921  1  1.288063  0.0001  5.66284  0.0  1.195821  0.000204  6.187044  0.0  1.244746  0.000148  6.162177  0.0  0.495766  1.162054  0.000277  6.202834  0.0
N  N66  1  0.12815851  0.77413543  0.86214991  1  -0.291324  -0.074134  3.318813  -0.09  -0.242394  -0.049489  3.609477  -0.065  -0.273966  -0.041227  3.632166  -0.057  -0.347484  -0.222354  -0.054556  3.595871  -0.069
N  N67  1  0.87184649  0.22585935  0.13784706  1  -0.291194  0.074141  3.318754  0.09  -0.242289  0.049487  3.609371  0.065  -0.273866  0.041223  3.632079  0.057  -0.347448  -0.222247  0.054552  3.595761  0.069
N  N68  1  0.11292152  0.12555920  0.84517074  1  -0.30555  -0.072594  3.337851  -0.089  -0.255066  -0.048488  3.627779  -0.064  -0.285333  -0.040142  3.649246  -0.055  -0.347596  -0.23583  -0.053583  3.614953  -0.068
N  N69  1  0.88708325  0.87443973  0.15482832  1  -0.305667  0.072592  3.337784  0.089  -0.255177  0.048492  3.627747  0.064  -0.285444  0.040144  3.649203  0.055  -0.34757  -0.235938  0.053586  3.614917  0.068
O  O70  1  0.31113877  0.06154018  0.04549654  1  -0.554525  -0.132949  2.081757  -0.172  -0.548937  -0.071121  2.381505  -0.103  -0.596831  -0.050918  2.377443  -0.078  -0.304369  -0.516235  -0.086154  2.383728  -0.119
O  O71  1  0.68885835  0.93845043  0.95450465  1  -0.55447  0.132938  2.081997  0.172  -0.548919  0.071117  2.381685  0.103  -0.596833  0.050914  2.377663  0.078  -0.304398  -0.516223  0.086145  2.383909  0.119
O  O72  1  0.16132534  0.13681502  0.16123563  1  -0.630915  -0.002522  2.041333  -0.003  -0.613964  -0.000985  2.31981  -0.002  -0.642999  -0.000101  2.306309  0.0  -0.318739  -0.593211  -0.00188  2.328048  -0.003
O  O73  1  0.83865229  0.86316937  0.83875718  1  -0.631069  0.002523  2.041333  0.003  -0.614148  0.000986  2.319808  0.002  -0.643168  0.000101  2.306276  0.0  -0.31887  -0.593395  0.001882  2.328047  0.003
O  O74  1  0.44192395  0.00608527  0.32985001  1  -0.623784  -0.000536  1.901323  -0.001  -0.584004  -0.000112  2.131614  0.0  -0.603872  -6.5e-05  2.11778  0.0  -0.345818  -0.569588  -0.000223  2.140564  0.0
O  O75  1  0.55808328  0.99391158  0.67014996  1  -0.623853  0.000541  1.901644  0.001  -0.584065  0.000112  2.131933  0.0  -0.603935  6.7e-05  2.118101  0.0  -0.34583  -0.569641  0.000223  2.140878  0.0
O  O76  1  0.61772383  0.01375629  0.19476647  1  -0.696326  -0.001639  2.050504  -0.001  -0.653944  -0.000996  2.327505  0.0  -0.676641  -0.000941  2.310214  0.0  -0.347266  -0.637632  -0.001136  2.338848  0.0
O  O77  1  0.38228876  0.98624886  0.80523725  1  -0.696416  0.001634  2.050355  0.001  -0.654072  0.000997  2.327383  0.0  -0.676771  0.00094  2.310089  0.0  -0.347324  -0.637767  0.001136  2.338745  0.0
O  O78  1  0.75876376  0.11209881  0.45078367  1  -0.680579  6.2e-05  1.924504  0.0  -0.628156  8e-05  2.151265  0.0  -0.648302  2.8e-05  2.134797  0.0  -0.362208  -0.613576  0.00017  2.162147  0.0
O  O79  1  0.24123933  0.88791983  0.54922172  1  -0.680578  -5.8e-05  1.924485  0.0  -0.628132  -8e-05  2.151219  0.0  -0.648281  -2.5e-05  2.134751  0.0  -0.362155  -0.613556  -0.00017  2.162101  0.0
O  O80  1  0.99137617  0.84878389  0.63061313  1  -0.794373  -0.047727  1.912257  -0.06  -0.756433  -0.039452  2.106938  -0.053  -0.785607  -0.031086  2.078469  -0.044  -0.561635  -0.737064  -0.045273  2.127646  -0.058
O  O81  1  0.00862786  0.15121815  0.36938943  1  -0.7944  0.047721  1.912256  0.06  -0.756461  0.039449  2.106939  0.053  -0.785643  0.031083  2.078466  0.044  -0.561638  -0.737098  0.04527  2.127643  0.058
