# generated using pymatgen
data_U2NiH34C20(N2O7)2
_symmetry_space_group_name_H-M   'P 1'
_cell_length_a   8.43065103
_cell_length_b   8.78558228
_cell_length_c   10.73056246
_cell_angle_alpha   83.85690183
_cell_angle_beta   70.59927702
_cell_angle_gamma   80.87322520
_symmetry_Int_Tables_number   1
_chemical_formula_structural   U2NiH34C20(N2O7)2
_chemical_formula_sum   'U2 Ni1 H34 C20 N4 O14'
_cell_volume   738.91241824
_cell_formula_units_Z   1
loop_
 _symmetry_equiv_pos_site_id
 _symmetry_equiv_pos_as_xyz
  1  'x, y, z'
loop_
 _atom_site_type_symbol
 _atom_site_label
 _atom_site_symmetry_multiplicity
 _atom_site_fract_x
 _atom_site_fract_y
 _atom_site_fract_z
 _atom_site_occupancy
 _atom_site_hle17_bader_spin_density
 _atom_site_hle17_ddec_charge
 _atom_site_hle17_ddec_spin_density
 _atom_site_hle17_ddec_sum_bond_order
 _atom_site_hle17_magmom
 _atom_site_hse06_10hf_bader_spin_density
 _atom_site_hse06_10hf_ddec_charge
 _atom_site_hse06_10hf_ddec_spin_density
 _atom_site_hse06_10hf_ddec_sum_bond_order
 _atom_site_hse06_10hf_magmom
 _atom_site_hse06_bader_spin_density
 _atom_site_hse06_ddec_charge
 _atom_site_hse06_ddec_spin_density
 _atom_site_hse06_ddec_sum_bond_order
 _atom_site_hse06_magmom
 _atom_site_pbe_bader_spin_density
 _atom_site_pbe_cm5_charge
 _atom_site_pbe_ddec_charge
 _atom_site_pbe_ddec_spin_density
 _atom_site_pbe_ddec_sum_bond_order
 _atom_site_pbe_magmom
U  U0  1  0.53620611  0.12377035  0.96963038  1  0  2.483359  0  4.129866  0  0  2.559248  0  4.777899  0  0  2.67221  0  4.7403  0  0  2.15299  2.478421  0  4.805329  0
U  U1  1  0.91185793  0.96459710  0.10149090  1  0  2.483962  0  4.134468  0  0  2.558344  0  4.783346  0  0  2.671121  0  4.745551  0  0  2.154243  2.477314  0  4.810965  0
Ni  Ni2  1  0.72426687  0.54090984  0.52607142  1  0  0.447439  0  2.175822  0  0  0.376573  0  2.615509  0  0  0.450742  0  2.548362  0  0  0.590546  0.336513  0  2.658034  0
H  H3  1  0.75242452  0.39172967  0.35301349  1  0  0.274376  0  0.917218  0  0  0.265866  0  0.969466  0  0  0.272982  0  0.965254  0  0  0.299215  0.260794  0  0.972515  0
H  H4  1  0.51489183  0.43880639  0.71137969  1  0  0.272797  0  0.897089  0  0  0.263137  0  0.952213  0  0  0.270605  0  0.947417  0  0  0.302826  0.257854  0  0.955954  0
H  H5  1  0.68481116  0.69537754  0.69957224  1  0  0.269867  0  0.88084  0  0  0.264393  0  0.928567  0  0  0.270033  0  0.926391  0  0  0.308824  0.260174  0  0.930536  0
H  H6  1  0.92937300  0.65066662  0.34193363  1  0  0.270041  0  0.912458  0  0  0.259085  0  0.971251  0  0  0.266495  0  0.966402  0  0  0.300158  0.253854  0  0.975055  0
H  H7  1  0.05718191  0.44765275  0.84900809  1  0  0.119423  0  0.951688  0  0  0.131025  0  1.012304  0  0  0.133682  0  1.010708  0  0  0.102222  0.129152  0  1.013522  0
H  H8  1  0.90499821  0.41914060  0.00872280  1  0  0.139622  0  0.911227  0  0  0.154207  0  0.964904  0  0  0.156631  0  0.964275  0  0  0.117492  0.152603  0  0.96515  0
H  H9  1  0.12642746  0.09376080  0.78261555  1  0  0.126746  0  0.955385  0  0  0.146853  0  1.014093  0  0  0.148711  0  1.013508  0  0  0.102145  0.145713  0  1.014304  0
H  H10  1  0.09436757  0.25163516  0.66935576  1  0  0.103529  0  0.972555  0  0  0.121362  0  1.042699  0  0  0.123035  0  1.042425  0  0  0.086563  0.120098  0  1.042949  0
H  H11  1  0.96067897  0.10170893  0.71358911  1  0  0.118436  0  0.945625  0  0  0.138883  0  1.006759  0  0  0.140944  0  1.005438  0  0  0.09928  0.137503  0  1.007631  0
H  H12  1  0.37808628  0.68420637  0.26886467  1  0  0.11497  0  0.963864  0  0  0.125635  0  1.03003  0  0  0.128562  0  1.028584  0  0  0.10198  0.123506  0  1.031221  0
H  H13  1  0.41718380  0.87199778  0.28787674  1  0  0.128792  0  0.903166  0  0  0.145598  0  0.956081  0  0  0.148353  0  0.95442  0  0  0.118886  0.143649  0  0.957403  0
H  H14  1  0.74363766  0.65137110  0.93767960  1  0  0.123254  0  0.945871  0  0  0.144728  0  1.003869  0  0  0.146438  0  1.003304  0  0  0.098771  0.143476  0  1.004292  0
H  H15  1  0.53323437  0.72884638  0.94476904  1  0  0.119676  0  0.966096  0  0  0.13751  0  1.03037  0  0  0.139971  0  1.02901  0  0  0.096469  0.135842  0  1.031275  0
H  H16  1  0.57006125  0.55430509  0.03928056  1  0  0.131123  0  0.939411  0  0  0.151423  0  0.996964  0  0  0.152931  0  0.99685  0  0  0.101591  0.150089  0  0.997567  0
H  H17  1  0.68176414  0.19107397  0.60118885  1  0  0.081142  0  0.94052  0  0  0.093848  0  1.008095  0  0  0.094264  0  1.007999  0  0  0.112722  0.093425  0  1.008529  0
H  H18  1  0.64993623  0.15380601  0.45083547  1  0  0.09589  0  0.940866  0  0  0.114703  0  0.994403  0  0  0.114601  0  0.994551  0  0  0.115105  0.11502  0  0.99454  0
H  H19  1  0.44197668  0.38954970  0.46928924  1  0  0.079974  0  0.91373  0  0  0.098956  0  0.97087  0  0  0.099131  0  0.971211  0  0  0.115951  0.098695  0  0.970724  0
H  H20  1  0.38060220  0.28104002  0.62534995  1  0  0.074693  0  0.925389  0  0  0.092278  0  0.985573  0  0  0.09195  0  0.986387  0  0  0.111767  0.092399  0  0.985009  0
H  H21  1  0.23698013  0.53923478  0.69538083  1  0  0.062412  0  0.935726  0  0  0.079261  0  0.999532  0  0  0.078635  0  0.999997  0  0  0.106023  0.079881  0  0.999018  0
H  H22  1  0.34021200  0.63611578  0.54261330  1  0  0.05624  0  0.925017  0  0  0.073375  0  0.992525  0  0  0.072812  0  0.993136  0  0  0.10533  0.073491  0  0.992458  0
H  H23  1  0.23540200  0.80368390  0.74104682  1  0  0.108593  0  0.928846  0  0  0.132493  0  0.974317  0  0  0.133003  0  0.974849  0  0  0.10926  0.13214  0  0.974113  0
H  H24  1  0.37564047  0.68773447  0.81074744  1  0  0.096689  0  0.907707  0  0  0.117294  0  0.958617  0  0  0.118144  0  0.959129  0  0  0.109494  0.116658  0  0.958324  0
H  H25  1  0.49106411  0.92790210  0.68912148  1  0  0.086223  0  0.935846  0  0  0.102773  0  0.994663  0  0  0.102136  0  0.995462  0  0  0.114746  0.103272  0  0.994453  0
H  H26  1  0.48234174  0.86581815  0.53866392  1  0  0.060751  0  0.911251  0  0  0.080621  0  0.968909  0  0  0.08026  0  0.968968  0  0  0.107415  0.0806  0  0.969164  0
H  H27  1  0.79960231  0.92523730  0.60773953  1  0  0.08566  0  0.933036  0  0  0.103691  0  0.989573  0  0  0.103677  0  0.989633  0  0  0.112257  0.104034  0  0.989584  0
H  H28  1  0.77322492  0.89430364  0.45410628  1  0  0.086088  0  0.946419  0  0  0.100269  0  1.012234  0  0  0.100843  0  1.011799  0  0  0.116222  0.099672  0  1.01303  0
H  H29  1  0.07025074  0.79606858  0.43602063  1  0  0.077653  0  0.936721  0  0  0.093672  0  0.996986  0  0  0.093794  0  0.997383  0  0  0.108431  0.093504  0  0.996713  0
H  H30  1  0.00122309  0.68129283  0.58889400  1  0  0.081416  0  0.930124  0  0  0.098293  0  0.990055  0  0  0.098728  0  0.990314  0  0  0.112352  0.097852  0  0.989973  0
H  H31  1  0.11303117  0.44290866  0.49758789  1  0  0.055984  0  0.938911  0  0  0.070966  0  1.010599  0  0  0.070493  0  1.011388  0  0  0.103484  0.071143  0  1.010175  0
H  H32  1  0.20814522  0.54649614  0.34577704  1  0  0.058768  0  0.942609  0  0  0.077152  0  1.003455  0  0  0.075738  0  1.004687  0  0  0.105455  0.078333  0  1.002411  0
H  H33  1  0.05684121  0.40790778  0.23361139  1  0  0.096492  0  0.908607  0  0  0.115854  0  0.96041  0  0  0.116717  0  0.961131  0  0  0.107219  0.11515  0  0.960018  0
H  H34  1  0.20721580  0.28739305  0.29145052  1  0  0.113351  0  0.937576  0  0  0.135761  0  0.984576  0  0  0.136612  0  0.984353  0  0  0.109387  0.135279  0  0.984857  0
H  H35  1  0.95202058  0.16149432  0.34984567  1  0  0.081525  0  0.937357  0  0  0.094855  0  1.001353  0  0  0.093729  0  1.002494  0  0  0.116139  0.095694  0  1.000821  0
H  H36  1  0.97286987  0.21557132  0.49856914  1  0  0.053463  0  0.935512  0  0  0.072206  0  0.998538  0  0  0.070978  0  1.00013  0  0  0.102731  0.072815  0  0.997668  0
C  C37  1  0.78561347  0.38024554  0.80885401  1  0  0.614465  0  3.819089  0  0  0.577324  0  4.117317  0  0  0.611132  0  4.109044  0  0  0.221729  0.553792  0  4.122711  0
C  C38  1  0.90672189  0.26367548  0.86518176  1  0  0.294096  0  3.635646  0  0  0.308893  0  3.880853  0  0  0.316077  0  3.893766  0  0  0.074862  0.303588  0  3.87185  0
C  C39  1  0.99980650  0.36078365  0.92443367  1  0  -0.355476  0  3.619354  0  0  -0.398757  0  3.849386  0  0  -0.406344  0  3.853951  0  0  -0.158315  -0.393552  0  3.846483  0
C  C40  1  0.13082386  0.25997274  0.97416211  1  0  0.759095  0  3.78767  0  0  0.732908  0  4.076829  0  0  0.772694  0  4.062612  0  0  0.245648  0.705259  0  4.085963  0
C  C41  1  0.03103895  0.17202719  0.74989127  1  0  -0.379745  0  3.65997  0  0  -0.465634  0  3.900519  0  0  -0.468998  0  3.907984  0  0  -0.240139  -0.462923  0  3.895047  0
C  C42  1  0.70764577  0.66138263  0.19657227  1  0  0.613777  0  3.823992  0  0  0.574344  0  4.127467  0  0  0.607803  0  4.117932  0  0  0.22146  0.551164  0  4.133803  0
C  C43  1  0.59954658  0.76161659  0.11844921  1  0  0.295576  0  3.646262  0  0  0.315506  0  3.881277  0  0  0.322676  0  3.894208  0  0  0.072162  0.310188  0  3.872089  0
C  C44  1  0.41701167  0.79241541  0.21501976  1  0  -0.357366  0  3.642935  0  0  -0.405903  0  3.881568  0  0  -0.413832  0  3.887319  0  0  -0.154941  -0.400312  0  3.877769  0
C  C45  1  0.28939100  0.86674294  0.14813013  1  0  0.758443  0  3.771237  0  0  0.729195  0  4.060744  0  0  0.768714  0  4.047282  0  0  0.247658  0.701815  0  4.069369  0
C  C46  1  0.61151577  0.66760849  0.00260625  1  0  -0.378512  0  3.638654  0  0  -0.46512  0  3.876283  0  0  -0.467985  0  3.883325  0  0  -0.245828  -0.462807  0  3.871417  0
C  C47  1  0.64894735  0.24470322  0.51407886  1  0  -0.015015  0  3.621709  0  0  -0.072015  0  3.882883  0  0  -0.067709  0  3.89627  0  0  -0.070647  -0.075423  0  3.874799  0
C  C48  1  0.48015958  0.34438311  0.55614922  1  0  0.004887  0  3.626114  0  0  -0.056642  0  3.894292  0  0  -0.05194  0  3.906535  0  0  -0.065172  -0.059711  0  3.886411  0
C  C49  1  0.35010989  0.59566329  0.64086609  1  0  0.037168  0  3.641725  0  0  -0.026141  0  3.91926  0  0  -0.020131  0  3.932313  0  0  -0.065647  -0.029854  0  3.910247  0
C  C50  1  0.35832327  0.72989528  0.71502425  1  0  -0.15749  0  3.681462  0  0  -0.197524  0  3.940655  0  0  -0.199629  0  3.953754  0  0  -0.157433  -0.196057  0  3.931339  0
C  C51  1  0.49673417  0.82588975  0.63571480  1  0  0.026722  0  3.627057  0  0  -0.032841  0  3.898253  0  0  -0.027214  0  3.912067  0  0  -0.065611  -0.036433  0  3.888993  0
C  C52  1  0.80147996  0.83685503  0.54188392  1  0  -0.009692  0  3.613186  0  0  -0.068363  0  3.877154  0  0  -0.063961  0  3.889905  0  0  -0.068059  -0.071793  0  3.869326  0
C  C53  1  0.96799945  0.73321775  0.50165769  1  0  -0.00597  0  3.63112  0  0  -0.066564  0  3.897817  0  0  -0.062249  0  3.910535  0  0  -0.072133  -0.0693  0  3.889484  0
C  C54  1  0.09703805  0.48851275  0.40228796  1  0  0.04054  0  3.630987  0  0  -0.021025  0  3.902888  0  0  -0.015079  0  3.91711  0  0  -0.06547  -0.024665  0  3.893036  0
C  C55  1  0.08370929  0.35970157  0.32463379  1  0  -0.160301  0  3.676502  0  0  -0.197687  0  3.931454  0  0  -0.200046  0  3.944765  0  0  -0.158378  -0.196123  0  3.922111  0
C  C56  1  0.94966000  0.26039795  0.40550157  1  0  0.034777  0  3.618653  0  0  -0.023052  0  3.88409  0  0  -0.017013  0  3.898634  0  0  -0.065372  -0.026883  0  3.874335  0
N  N57  1  0.77707673  0.34735251  0.43993356  1  0  -0.321717  0  3.258351  0  0  -0.262445  0  3.527751  0  0  -0.291947  0  3.54057  0  0  -0.485106  -0.243937  0  3.519461  0
N  N58  1  0.50166462  0.47820050  0.61998553  1  0  -0.328456  0  3.263208  0  0  -0.269269  0  3.53928  0  0  -0.296701  0  3.548859  0  0  -0.482532  -0.252854  0  3.533763  0
N  N59  1  0.66782059  0.73703929  0.61059534  1  0  -0.315872  0  3.261094  0  0  -0.256908  0  3.532048  0  0  -0.284456  0  3.543785  0  0  -0.483111  -0.239621  0  3.524619  0
N  N60  1  0.94500435  0.60578980  0.43149824  1  0  -0.320066  0  3.259518  0  0  -0.261872  0  3.533196  0  0  -0.290234  0  3.54454  0  0  -0.483022  -0.244911  0  3.526745  0
O  O61  1  0.44860205  0.20935860  0.12897184  1  0  -0.721663  0  1.513172  0  0  -0.73075  0  1.778638  0  0  -0.749043  0  1.763509  0  0  -0.759343  -0.72099  0  1.790621  0
O  O62  1  0.61759273  0.03715842  0.80901002  1  0  -0.763369  0  1.551167  0  0  -0.766162  0  1.837481  0  0  -0.786027  0  1.82244  0  0  -0.76771  -0.754858  0  1.849015  0
O  O63  1  0.78170439  0.04143942  0.26035008  1  0  -0.751508  0  1.563951  0  0  -0.759458  0  1.850025  0  0  -0.778608  0  1.833641  0  0  -0.763716  -0.747905  0  1.86146  0
O  O64  1  0.04669768  0.87736280  0.94955536  1  0  -0.725408  0  1.53818  0  0  -0.73457  0  1.812141  0  0  -0.753812  0  1.797979  0  0  -0.764677  -0.723626  0  1.823127  0
O  O65  1  0.62976996  0.35282493  0.84512992  1  0  -0.66728  0  2.043108  0  0  -0.64682  0  2.307057  0  0  -0.679822  0  2.300437  0  0  -0.37554  -0.623159  0  2.311202  0
O  O66  1  0.84242253  0.49033830  0.73239385  1  0  -0.588528  0  1.984063  0  0  -0.555241  0  2.224274  0  0  -0.579919  0  2.212726  0  0  -0.303715  -0.537621  0  2.23164  0
O  O67  1  0.07203275  0.16758904  0.07376297  1  0  -0.672126  0  2.066094  0  0  -0.662722  0  2.343913  0  0  -0.698895  0  2.338163  0  0  -0.37039  -0.636231  0  2.346177  0
O  O68  1  0.28789821  0.26782178  0.91697465  1  0  -0.655588  0  1.945011  0  0  -0.637268  0  2.194239  0  0  -0.668216  0  2.184345  0  0  -0.347182  -0.614906  0  2.200231  0
O  O69  1  0.80974779  0.16409048  0.96425201  1  0  -0.788974  0  2.065496  0  0  -0.804852  0  2.380519  0  0  -0.847976  0  2.387015  0  0  -0.49232  -0.771668  0  2.373041  0
O  O70  1  0.84016314  0.71754093  0.19796197  1  0  -0.67285  0  2.057006  0  0  -0.651513  0  2.320741  0  0  -0.683899  0  2.312711  0  0  -0.378362  -0.628425  0  2.32572  0
O  O71  1  0.66426641  0.53477864  0.25010987  1  0  -0.566418  0  1.936098  0  0  -0.537356  0  2.162795  0  0  -0.560035  0  2.150945  0  0  -0.301052  -0.520979  0  2.169892  0
O  O72  1  0.34604097  0.94361480  0.03841113  1  0  -0.669913  0  2.121726  0  0  -0.653439  0  2.393557  0  0  -0.690442  0  2.389256  0  0  -0.366275  -0.626756  0  2.395242  0
O  O73  1  0.13372392  0.85082318  0.20176364  1  0  -0.653239  0  1.96827  0  0  -0.626986  0  2.214698  0  0  -0.657498  0  2.205778  0  0  -0.342109  -0.605027  0  2.220038  0
O  O74  1  0.66567679  0.90368339  0.07228589  1  0  -0.797421  0  2.090754  0  0  -0.815464  0  2.406062  0  0  -0.859127  0  2.41308  0  0  -0.499903  -0.782109  0  2.398928  0
