# generated using pymatgen
data_BaH4C7NO5
_symmetry_space_group_name_H-M   'P 1'
_cell_length_a   9.84500347
_cell_length_b   13.31321506
_cell_length_c   14.68704058
_cell_angle_alpha   115.90478844
_cell_angle_beta   109.58674047
_cell_angle_gamma   90.00816270
_symmetry_Int_Tables_number   1
_chemical_formula_structural   BaH4C7NO5
_chemical_formula_sum   'Ba8 H32 C56 N8 O40'
_cell_volume   1606.79610139
_cell_formula_units_Z   8
loop_
 _symmetry_equiv_pos_site_id
 _symmetry_equiv_pos_as_xyz
  1  'x, y, z'
loop_
 _atom_site_type_symbol
 _atom_site_label
 _atom_site_symmetry_multiplicity
 _atom_site_fract_x
 _atom_site_fract_y
 _atom_site_fract_z
 _atom_site_occupancy
 _atom_site_hle17_bader_spin_density
 _atom_site_hle17_ddec_charge
 _atom_site_hle17_ddec_spin_density
 _atom_site_hle17_ddec_sum_bond_order
 _atom_site_hle17_magmom
 _atom_site_hse06_10hf_bader_spin_density
 _atom_site_hse06_10hf_ddec_charge
 _atom_site_hse06_10hf_ddec_spin_density
 _atom_site_hse06_10hf_ddec_sum_bond_order
 _atom_site_hse06_10hf_magmom
 _atom_site_hse06_bader_spin_density
 _atom_site_hse06_ddec_charge
 _atom_site_hse06_ddec_spin_density
 _atom_site_hse06_ddec_sum_bond_order
 _atom_site_hse06_magmom
 _atom_site_pbe_bader_spin_density
 _atom_site_pbe_cm5_charge
 _atom_site_pbe_ddec_charge
 _atom_site_pbe_ddec_spin_density
 _atom_site_pbe_ddec_sum_bond_order
 _atom_site_pbe_magmom
Ba  Ba0  1  0.70147413  0.08521434  0.66367429  1  0  1.60127  0  1.210746  0  0  1.434294  0  1.621242  0  0  1.477992  0  1.577014  0  0  0.981968  1.402509  0  1.652946  0
Ba  Ba1  1  0.03763364  0.41481131  0.33620537  1  0  1.600937  0  1.212037  0  0  1.434313  0  1.621982  0  0  1.477603  0  1.578443  0  0  0.98256  1.402498  0  1.653665  0
Ba  Ba2  1  0.29852421  0.91478708  0.33632484  1  0  1.601286  0  1.21076  0  0  1.434314  0  1.621248  0  0  1.478008  0  1.577026  0  0  0.981981  1.40253  0  1.652954  0
Ba  Ba3  1  0.96236777  0.58518927  0.66379547  1  0  1.600927  0  1.212062  0  0  1.434317  0  1.621976  0  0  1.477605  0  1.578437  0  0  0.982562  1.402507  0  1.653661  0
Ba  Ba4  1  0.78689206  0.39219903  0.95967115  1  0  1.683206  0  1.094758  0  0  1.54216  0  1.485393  0  0  1.582597  0  1.440738  0  0  0.962416  1.511647  0  1.518656  0
Ba  Ba5  1  0.82734807  0.10778942  0.04034121  1  0  1.682339  0  1.095174  0  0  1.540581  0  1.48646  0  0  1.581244  0  1.441483  0  0  0.961406  1.510009  0  1.519822  0
Ba  Ba6  1  0.21310699  0.60780069  0.04032816  1  0  1.683214  0  1.094732  0  0  1.542158  0  1.485377  0  0  1.582597  0  1.44072  0  0  0.962423  1.511645  0  1.518639  0
Ba  Ba7  1  0.17265099  0.89221031  0.95965878  1  0  1.682354  0  1.095182  0  0  1.540607  0  1.486427  0  0  1.581255  0  1.441473  0  0  0.961417  1.510042  0  1.519789  0
H  H8  1  0.77712175  0.12652712  0.29555954  1  0  0.117937  0  0.983506  0  0  0.120791  0  1.058622  0  0  0.126194  0  1.053918  0  0  0.117012  0.116785  0  1.06235  0
H  H9  1  0.48129427  0.37389730  0.70449430  1  0  0.118044  0  0.983265  0  0  0.120951  0  1.058225  0  0  0.126401  0  1.053564  0  0  0.117141  0.116992  0  1.061834  0
H  H10  1  0.22287926  0.87347175  0.70443919  1  0  0.117939  0  0.983536  0  0  0.120791  0  1.058651  0  0  0.126194  0  1.053946  0  0  0.117005  0.116797  0  1.06237  0
H  H11  1  0.51870909  0.62610243  0.29550597  1  0  0.118056  0  0.98325  0  0  0.12096  0  1.058215  0  0  0.126409  0  1.053556  0  0  0.117128  0.116999  0  1.061824  0
H  H12  1  0.19943085  0.15495623  0.52740845  1  0  0.104782  0  0.957188  0  0  0.115838  0  1.019537  0  0  0.119345  0  1.017431  0  0  0.119135  0.113331  0  1.02112  0
H  H13  1  0.67170144  0.34502588  0.47255485  1  0  0.104467  0  0.957368  0  0  0.115733  0  1.019562  0  0  0.119285  0  1.017355  0  0  0.119185  0.113257  0  1.021091  0
H  H14  1  0.80057181  0.84504519  0.47259165  1  0  0.104804  0  0.957209  0  0  0.115903  0  1.019511  0  0  0.119412  0  1.017398  0  0  0.11915  0.113376  0  1.021123  0
H  H15  1  0.32829925  0.65497640  0.52744651  1  0  0.104489  0  0.957325  0  0  0.115734  0  1.019537  0  0  0.119286  0  1.01733  0  0  0.119204  0.113257  0  1.021066  0
H  H16  1  0.31254682  0.16984100  0.67159878  1  0  0.111424  0  0.955491  0  0  0.121182  0  1.018252  0  0  0.125478  0  1.014863  0  0  0.118866  0.117909  0  1.021173  0
H  H17  1  0.64057208  0.32982996  0.32823127  1  0  0.111212  0  0.95562  0  0  0.121222  0  1.018132  0  0  0.12546  0  1.014819  0  0  0.119282  0.117966  0  1.02106  0
H  H18  1  0.68745351  0.83015958  0.32840182  1  0  0.111423  0  0.955496  0  0  0.121179  0  1.01826  0  0  0.125475  0  1.014873  0  0  0.118867  0.117907  0  1.021178  0
H  H19  1  0.35942751  0.67016723  0.67176921  1  0  0.111224  0  0.955665  0  0  0.121239  0  1.01817  0  0  0.125477  0  1.014857  0  0  0.119303  0.117986  0  1.021092  0
H  H20  1  0.29917989  0.13859575  0.94702349  1  0  0.121928  0  0.943958  0  0  0.132247  0  1.003451  0  0  0.136024  0  1.001489  0  0  0.125475  0.129398  0  1.005216  0
H  H21  1  0.35195539  0.36120429  0.05280839  1  0  0.121116  0  0.944042  0  0  0.131165  0  1.003828  0  0  0.135051  0  1.001693  0  0  0.125047  0.128319  0  1.005648  0
H  H22  1  0.70081612  0.86140482  0.05297615  1  0  0.121936  0  0.943962  0  0  0.132255  0  1.00344  0  0  0.136026  0  1.001496  0  0  0.125484  0.129393  0  1.005223  0
H  H23  1  0.64804583  0.63879545  0.94719345  1  0  0.121116  0  0.943931  0  0  0.131164  0  1.003736  0  0  0.135051  0  1.0016  0  0  0.125061  0.12832  0  1.005557  0
H  H24  1  0.46118559  0.50755675  0.90386551  1  0  0.425625  0  0.880811  0  0  0.395103  0  0.944374  0  0  0.405812  0  0.928775  0  0  0.297419  0.387467  0  0.955494  0
H  H25  1  0.55728764  0.99247695  0.09605475  1  0  0.425908  0  0.880538  0  0  0.395539  0  0.944107  0  0  0.406279  0  0.928443  0  0  0.297236  0.387899  0  0.955241  0
H  H26  1  0.53881474  0.49244383  0.09613509  1  0  0.425634  0  0.8808  0  0  0.395111  0  0.944361  0  0  0.405819  0  0.928764  0  0  0.297427  0.387476  0  0.955481  0
H  H27  1  0.44271034  0.00752277  0.90394500  1  0  0.425907  0  0.880542  0  0  0.395539  0  0.944109  0  0  0.406278  0  0.928446  0  0  0.297241  0.387898  0  0.955244  0
H  H28  1  0.42645568  0.37520202  0.83701014  1  0  0.421937  0  0.841325  0  0  0.399862  0  0.907087  0  0  0.407795  0  0.897884  0  0  0.314974  0.39414  0  0.913799  0
H  H29  1  0.58968874  0.12485051  0.16298250  1  0  0.422029  0  0.841481  0  0  0.399973  0  0.907072  0  0  0.407906  0  0.897856  0  0  0.314664  0.394263  0  0.913754  0
H  H30  1  0.57354482  0.62479939  0.16298878  1  0  0.421929  0  0.841331  0  0  0.399855  0  0.907095  0  0  0.407787  0  0.897893  0  0  0.314965  0.394133  0  0.913809  0
H  H31  1  0.41031070  0.87515092  0.83701893  1  0  0.422003  0  0.84153  0  0  0.399952  0  0.90712  0  0  0.407883  0  0.897901  0  0  0.314657  0.394244  0  0.913811  0
H  H32  1  0.83482012  0.57917970  0.21665604  1  0  0.423691  0  0.884392  0  0  0.393785  0  0.948197  0  0  0.404553  0  0.932261  0  0  0.295986  0.38605  0  0.959694  0
H  H33  1  0.61816407  0.92065484  0.78341416  1  0  0.421836  0  0.886771  0  0  0.39193  0  0.950583  0  0  0.402705  0  0.934647  0  0  0.294187  0.384176  0  0.962094  0
H  H34  1  0.16517875  0.42081919  0.78334426  1  0  0.42367  0  0.884438  0  0  0.39376  0  0.948247  0  0  0.404528  0  0.932312  0  0  0.295974  0.386024  0  0.959746  0
H  H35  1  0.38183498  0.07934488  0.21658514  1  0  0.42185  0  0.886754  0  0  0.391943  0  0.950568  0  0  0.402719  0  0.934631  0  0  0.29419  0.384189  0  0.962079  0
H  H36  1  0.98240805  0.59971747  0.20898959  1  0  0.418894  0  0.872165  0  0  0.390316  0  0.938634  0  0  0.401311  0  0.922229  0  0  0.304764  0.382319  0  0.950583  0
H  H37  1  0.77345997  0.90028519  0.79102050  1  0  0.418042  0  0.872344  0  0  0.388912  0  0.940277  0  0  0.399902  0  0.923928  0  0  0.304017  0.380908  0  0.952206  0
H  H38  1  0.01759011  0.40028309  0.79100917  1  0  0.418887  0  0.872192  0  0  0.390312  0  0.938644  0  0  0.401306  0  0.922239  0  0  0.304776  0.382317  0  0.950589  0
H  H39  1  0.22653927  0.09971539  0.20897986  1  0  0.418072  0  0.872269  0  0  0.388927  0  0.940251  0  0  0.399918  0  0.923901  0  0  0.304018  0.380924  0  0.952179  0
C  C40  1  0.78456641  0.11960542  0.44134421  1  0  0.096053  0  3.755115  0  0  0.105119  0  4.002643  0  0  0.105134  0  4.021807  0  0  0.116199  0.104969  0  3.990003  0
C  C41  1  0.34297341  0.38070131  0.55864067  1  0  0.097854  0  3.754776  0  0  0.104775  0  4.005178  0  0  0.104879  0  4.024236  0  0  0.116298  0.104613  0  3.992494  0
C  C42  1  0.21543334  0.88039261  0.55865391  1  0  0.096006  0  3.755158  0  0  0.105096  0  4.002658  0  0  0.105099  0  4.021837  0  0  0.116189  0.104946  0  3.990019  0
C  C43  1  0.65702673  0.61929843  0.44136025  1  0  0.097883  0  3.754706  0  0  0.104719  0  4.005211  0  0  0.104822  0  4.02427  0  0  0.116278  0.104559  0  3.992521  0
C  C44  1  0.84676741  0.13261595  0.37363492  1  0  -0.112772  0  3.666993  0  0  -0.146407  0  3.911572  0  0  -0.149082  0  3.929737  0  0  -0.063957  -0.145329  0  3.900697  0
C  C45  1  0.47284342  0.36773053  0.62639899  1  0  -0.114233  0  3.668672  0  0  -0.146914  0  3.914451  0  0  -0.14968  0  3.932454  0  0  -0.064642  -0.145661  0  3.903402  0
C  C46  1  0.15323360  0.86738292  0.62636381  1  0  -0.112806  0  3.667085  0  0  -0.146443  0  3.911649  0  0  -0.149114  0  3.929814  0  0  -0.063952  -0.145377  0  3.900757  0
C  C47  1  0.52715798  0.63227005  0.37360117  1  0  -0.114309  0  3.668674  0  0  -0.146953  0  3.914458  0  0  -0.149719  0  3.932461  0  0  -0.064666  -0.145698  0  3.9034  0
C  C48  1  0.99819474  0.14314513  0.40375769  1  0  -0.012706  0  3.723138  0  0  0.008879  0  3.962009  0  0  0.006389  0  3.980707  0  0  0.011365  0.010341  0  3.949739  0
C  C49  1  0.59411269  0.35705708  0.59625757  1  0  -0.012266  0  3.725067  0  0  0.00815  0  3.965532  0  0  0.005662  0  3.984236  0  0  0.010956  0.00957  0  3.953196  0
C  C50  1  0.00180666  0.85685545  0.59624247  1  0  -0.012615  0  3.723178  0  0  0.008989  0  3.962059  0  0  0.006502  0  3.980755  0  0  0.01139  0.010452  0  3.949782  0
C  C51  1  0.40589016  0.64294520  0.40374358  1  0  -0.012263  0  3.725003  0  0  0.00815  0  3.965467  0  0  0.005662  0  3.984172  0  0  0.010997  0.009572  0  3.953127  0
C  C52  1  0.08125149  0.14758409  0.50358159  1  0  -0.125731  0  3.65666  0  0  -0.162526  0  3.911444  0  0  -0.165388  0  3.928998  0  0  -0.061074  -0.160081  0  3.899272  0
C  C53  1  0.57738928  0.35249747  0.49641688  1  0  -0.12293  0  3.657569  0  0  -0.160153  0  3.912543  0  0  -0.162938  0  3.930048  0  0  -0.059151  -0.157635  0  3.900242  0
C  C54  1  0.91875098  0.85241649  0.49641881  1  0  -0.125799  0  3.656768  0  0  -0.162659  0  3.911521  0  0  -0.165523  0  3.929077  0  0  -0.061116  -0.160204  0  3.899353  0
C  C55  1  0.42261358  0.64750481  0.50358564  1  0  -0.122933  0  3.65754  0  0  -0.160116  0  3.912498  0  0  -0.162898  0  3.930007  0  0  -0.059191  -0.1576  0  3.900196  0
C  C56  1  0.01150327  0.14186841  0.57071231  1  0  0.194072  0  3.725918  0  0  0.193436  0  3.97464  0  0  0.199133  0  3.992403  0  0  0.134598  0.189406  0  3.962582  0
C  C57  1  0.44050346  0.35816890  0.42924920  1  0  0.192246  0  3.72954  0  0  0.193168  0  3.976783  0  0  0.198743  0  3.994656  0  0  0.13305  0.189151  0  3.964652  0
C  C58  1  0.98849812  0.85813216  0.42928716  1  0  0.19398  0  3.726015  0  0  0.193407  0  3.974652  0  0  0.199107  0  3.992416  0  0  0.134581  0.189365  0  3.962586  0
C  C59  1  0.55949669  0.64183084  0.57075240  1  0  0.192237  0  3.729588  0  0  0.193137  0  3.976832  0  0  0.198701  0  3.994721  0  0  0.133067  0.189116  0  3.964703  0
C  C60  1  0.09684841  0.14795096  0.67824322  1  0  0.195278  0  3.742014  0  0  0.194611  0  3.990559  0  0  0.199973  0  4.008941  0  0  0.134836  0.190775  0  3.977989  0
C  C61  1  0.41830131  0.35195087  0.32166687  1  0  0.19669  0  3.738056  0  0  0.194645  0  3.987676  0  0  0.200143  0  4.005877  0  0  0.135894  0.190807  0  3.975046  0
C  C62  1  0.90315153  0.85204791  0.32175527  1  0  0.195228  0  3.741991  0  0  0.19457  0  3.990482  0  0  0.199922  0  4.008879  0  0  0.13479  0.190772  0  3.97786  0
C  C63  1  0.58169902  0.64804971  0.67833510  1  0  0.196696  0  3.738102  0  0  0.194685  0  3.987672  0  0  0.200187  0  4.005874  0  0  0.13591  0.19085  0  3.975045  0
C  C64  1  0.25002362  0.15946679  0.71642736  1  0  -0.131303  0  3.656912  0  0  -0.165407  0  3.908013  0  0  -0.168213  0  3.924925  0  0  -0.065363  -0.163118  0  3.896491  0
C  C65  1  0.53324793  0.34028003  0.28343230  1  0  -0.132942  0  3.656047  0  0  -0.16691  0  3.908194  0  0  -0.169676  0  3.925063  0  0  -0.065542  -0.164694  0  3.896634  0
C  C66  1  0.74997454  0.84053377  0.28357208  1  0  -0.131347  0  3.656937  0  0  -0.165455  0  3.908041  0  0  -0.168256  0  3.924951  0  0  -0.06538  -0.163173  0  3.896503  0
C  C67  1  0.46675222  0.65971971  0.71656930  1  0  -0.13301  0  3.656092  0  0  -0.166996  0  3.908242  0  0  -0.169762  0  3.925112  0  0  -0.065564  -0.164777  0  3.896675  0
C  C68  1  0.32574515  0.15462991  0.81295684  1  0  -0.010207  0  3.70404  0  0  0.011424  0  3.940729  0  0  0.008963  0  3.958658  0  0  0.009199  0.01284  0  3.928717  0
C  C69  1  0.51251150  0.34510454  0.18690591  1  0  -0.009947  0  3.70552  0  0  0.010688  0  3.943126  0  0  0.008107  0  3.961208  0  0  0.008248  0.012224  0  3.93103  0
C  C70  1  0.67425339  0.84537236  0.18704404  1  0  -0.010168  0  3.704129  0  0  0.011458  0  3.940828  0  0  0.009  0  3.958755  0  0  0.009189  0.012874  0  3.928817  0
C  C71  1  0.48749061  0.65489435  0.81309579  1  0  -0.00994  0  3.705495  0  0  0.010686  0  3.943102  0  0  0.008107  0  3.961182  0  0  0.008217  0.012224  0  3.931009  0
C  C72  1  0.24572021  0.14286047  0.87127124  1  0  -0.104237  0  3.658056  0  0  -0.138407  0  3.904958  0  0  -0.140171  0  3.922619  0  0  -0.057252  -0.137517  0  3.894139  0
C  C73  1  0.37421213  0.35695229  0.12857023  1  0  -0.100704  0  3.656584  0  0  -0.134209  0  3.903394  0  0  -0.135987  0  3.921046  0  0  -0.054387  -0.133425  0  3.892567  0
C  C74  1  0.75427865  0.85713840  0.12872769  1  0  -0.104332  0  3.658042  0  0  -0.138456  0  3.904968  0  0  -0.140223  0  3.922623  0  0  -0.05725  -0.137556  0  3.894162  0
C  C75  1  0.62579035  0.64304830  0.87143154  1  0  -0.100641  0  3.656443  0  0  -0.134151  0  3.903264  0  0  -0.13593  0  3.920919  0  0  -0.054372  -0.133365  0  3.892439  0
C  C76  1  0.09443366  0.13770406  0.83094519  1  0  0.113392  0  3.730076  0  0  0.120461  0  3.977705  0  0  0.121119  0  3.994743  0  0  0.132496  0.119613  0  3.966473  0
C  C77  1  0.26329996  0.36227024  0.16896715  1  0  0.112213  0  3.729224  0  0  0.119248  0  3.976694  0  0  0.119901  0  3.993734  0  0  0.129877  0.118387  0  3.965473  0
C  C78  1  0.90556576  0.86229735  0.16905418  1  0  0.113496  0  3.729963  0  0  0.120457  0  3.97774  0  0  0.121116  0  3.994774  0  0  0.132473  0.119608  0  3.966511  0
C  C79  1  0.73670163  0.63773118  0.83103407  1  0  0.112281  0  3.729144  0  0  0.119317  0  3.976631  0  0  0.119971  0  3.993671  0  0  0.12991  0.118455  0  3.965415  0
C  C80  1  0.00446898  0.12692176  0.89295279  1  0  0.647395  0  3.920113  0  0  0.596776  0  4.212372  0  0  0.630322  0  4.204251  0  0  0.226773  0.574017  0  4.216934  0
C  C81  1  0.11137185  0.37310711  0.10696195  1  0  0.646758  0  3.918932  0  0  0.596289  0  4.210826  0  0  0.629836  0  4.202676  0  0  0.227835  0.573558  0  4.215386  0
C  C82  1  0.99552664  0.87307711  0.10704474  1  0  0.647395  0  3.920057  0  0  0.596813  0  4.212303  0  0  0.630359  0  4.204178  0  0  0.226787  0.574055  0  4.216869  0
C  C83  1  0.88862899  0.62689092  0.89303709  1  0  0.646706  0  3.918998  0  0  0.596222  0  4.21093  0  0  0.629769  0  4.202778  0  0  0.227816  0.573494  0  4.215488  0
C  C84  1  0.48964889  0.15792769  0.85041522  1  0  0.681958  0  3.901654  0  0  0.627003  0  4.201989  0  0  0.661464  0  4.192454  0  0  0.234832  0.603674  0  4.207757  0
C  C85  1  0.63910746  0.34177571  0.14958142  1  0  0.681597  0  3.9031  0  0  0.6273  0  4.202944  0  0  0.661794  0  4.193353  0  0  0.234321  0.60392  0  4.208769  0
C  C86  1  0.51035035  0.84207288  0.14958514  1  0  0.682069  0  3.901542  0  0  0.627092  0  4.201908  0  0  0.661551  0  4.192373  0  0  0.234878  0.603765  0  4.207679  0
C  C87  1  0.36089231  0.65822233  0.85041874  1  0  0.681368  0  3.903202  0  0  0.627095  0  4.203025  0  0  0.661587  0  4.193438  0  0  0.234239  0.603717  0  4.208847  0
C  C88  1  0.06802910  0.14205851  0.32613363  1  0  0.685643  0  3.905881  0  0  0.630461  0  4.207069  0  0  0.664149  0  4.198419  0  0  0.234953  0.607473  0  4.21221  0
C  C89  1  0.74149115  0.35805250  0.67389041  1  0  0.682651  0  3.907043  0  0  0.628121  0  4.20788  0  0  0.661782  0  4.199293  0  0  0.233916  0.605145  0  4.213006  0
C  C90  1  0.93197014  0.85794205  0.67386537  1  0  0.685601  0  3.905901  0  0  0.630371  0  4.207174  0  0  0.664056  0  4.198528  0  0  0.234903  0.607383  0  4.21231  0
C  C91  1  0.25851044  0.64194893  0.32611081  1  0  0.682698  0  3.906991  0  0  0.628143  0  4.207866  0  0  0.661804  0  4.199277  0  0  0.233908  0.605166  0  4.212991  0
C  C92  1  0.61914772  0.09096393  0.40151739  1  0  0.629097  0  3.951938  0  0  0.576652  0  4.253188  0  0  0.608687  0  4.247061  0  0  0.214762  0.554925  0  4.256528  0
C  C93  1  0.21739401  0.40934375  0.59838925  1  0  0.628224  0  3.953549  0  0  0.576148  0  4.255333  0  0  0.608153  0  4.249154  0  0  0.21461  0.554413  0  4.258735  0
C  C94  1  0.38085203  0.90903410  0.59848073  1  0  0.629074  0  3.952024  0  0  0.576588  0  4.253342  0  0  0.608626  0  4.247212  0  0  0.214683  0.554861  0  4.25668  0
C  C95  1  0.78260593  0.59065513  0.40160992  1  0  0.628196  0  3.953621  0  0  0.576166  0  4.255364  0  0  0.60817  0  4.249187  0  0  0.214627  0.554429  0  4.258763  0
N  N96  1  0.86428224  0.12454843  0.53790645  1  0  -0.373986  0  3.130689  0  0  -0.337687  0  3.388383  0  0  -0.348597  0  3.405152  0  0  -0.326625  -0.329806  0  3.376992  0
N  N97  1  0.32610462  0.37559404  0.46202610  1  0  -0.374662  0  3.133259  0  0  -0.337854  0  3.390982  0  0  -0.348743  0  3.407779  0  0  -0.326993  -0.329993  0  3.379585  0
N  N98  1  0.13571769  0.87545044  0.46209135  1  0  -0.373902  0  3.130661  0  0  -0.337643  0  3.388347  0  0  -0.348547  0  3.405115  0  0  -0.326613  -0.329764  0  3.376959  0
N  N99  1  0.67389552  0.62440569  0.53797481  1  0  -0.374602  0  3.133203  0  0  -0.337773  0  3.39096  0  0  -0.348658  0  3.407763  0  0  -0.326968  -0.329914  0  3.379566  0
N  N100  1  0.02104842  0.13880572  0.73622275  1  0  -0.376066  0  3.15017  0  0  -0.339496  0  3.409649  0  0  -0.34995  0  3.425232  0  0  -0.333668  -0.331252  0  3.398411  0
N  N101  1  0.28461245  0.36124222  0.26371056  1  0  -0.376259  0  3.148549  0  0  -0.339392  0  3.408344  0  0  -0.349843  0  3.423888  0  0  -0.333807  -0.331153  0  3.397079  0
N  N102  1  0.97895025  0.86119230  0.26377444  1  0  -0.376021  0  3.150155  0  0  -0.33944  0  3.409689  0  0  -0.349891  0  3.425274  0  0  -0.333609  -0.331206  0  3.398439  0
N  N103  1  0.71538787  0.63875835  0.73629005  1  0  -0.376323  0  3.1486  0  0  -0.339468  0  3.408398  0  0  -0.349919  0  3.423941  0  0  -0.333848  -0.331226  0  3.397134  0
O  O104  1  0.88484971  0.16608076  0.88179458  1  0  -0.759706  0  2.046528  0  0  -0.69603  0  2.298995  0  0  -0.722931  0  2.289128  0  0  -0.382665  -0.677454  0  2.306715  0
O  O105  1  0.00284681  0.33411853  0.11821156  1  0  -0.759688  0  2.044708  0  0  -0.696295  0  2.297656  0  0  -0.723155  0  2.287748  0  0  -0.38316  -0.677733  0  2.305388  0
O  O106  1  0.11514736  0.83391979  0.11820257  1  0  -0.759695  0  2.046462  0  0  -0.695999  0  2.298868  0  0  -0.722895  0  2.288998  0  0  -0.382633  -0.677422  0  2.306591  0
O  O107  1  0.99715402  0.66587950  0.88178748  1  0  -0.759708  0  2.04474  0  0  -0.696294  0  2.297694  0  0  -0.723151  0  2.287785  0  0  -0.383157  -0.67773  0  2.305427  0
O  O108  1  0.05324508  0.07920492  0.95274348  1  0  -0.705258  0  1.970338  0  0  -0.642748  0  2.211272  0  0  -0.670168  0  2.20376  0  0  -0.3723  -0.622963  0  2.21574  0
O  O109  1  0.10037708  0.42069023  0.04706487  1  0  -0.704736  0  1.970768  0  0  -0.642646  0  2.212031  0  0  -0.669995  0  2.204459  0  0  -0.37304  -0.622877  0  2.216479  0
O  O110  1  0.94675143  0.92079309  0.04725391  1  0  -0.705285  0  1.970409  0  0  -0.642783  0  2.211312  0  0  -0.670205  0  2.203799  0  0  -0.372315  -0.622995  0  2.215781  0
O  O111  1  0.89962413  0.57930950  0.95293492  1  0  -0.704682  0  1.970781  0  0  -0.642597  0  2.212054  0  0  -0.669955  0  2.204501  0  0  -0.37303  -0.622824  0  2.216499  0
O  O112  1  0.54656131  0.12359636  0.92055968  1  0  -0.682063  0  2.021919  0  0  -0.620388  0  2.260466  0  0  -0.646915  0  2.250961  0  0  -0.333441  -0.60135  0  2.266867  0
O  O113  1  0.62614922  0.37625526  0.07957177  1  0  -0.683361  0  2.022742  0  0  -0.621437  0  2.26012  0  0  -0.647901  0  2.250557  0  0  -0.333911  -0.60243  0  2.266605  0
O  O114  1  0.45343705  0.87640506  0.07944150  1  0  -0.682112  0  2.021936  0  0  -0.620416  0  2.260426  0  0  -0.646943  0  2.250928  0  0  -0.333441  -0.601379  0  2.266823  0
O  O115  1  0.37385307  0.62374448  0.92042962  1  0  -0.683248  0  2.022744  0  0  -0.621316  0  2.260112  0  0  -0.64778  0  2.250555  0  0  -0.33387  -0.602305  0  2.26659  0
O  O116  1  0.55855496  0.19516640  0.80879599  1  0  -0.733017  0  1.976169  0  0  -0.669441  0  2.228517  0  0  -0.696098  0  2.218027  0  0  -0.37624  -0.651356  0  2.236931  0
O  O117  1  0.74948939  0.30440627  0.19119322  1  0  -0.732667  0  1.977124  0  0  -0.669068  0  2.228744  0  0  -0.695708  0  2.218269  0  0  -0.375758  -0.650963  0  2.237143  0
O  O118  1  0.44144448  0.80483502  0.19120543  1  0  -0.733061  0  1.976105  0  0  -0.669479  0  2.22848  0  0  -0.696136  0  2.217993  0  0  -0.376257  -0.65139  0  2.236892  0
O  O119  1  0.25051203  0.69559432  0.80880968  1  0  -0.732583  0  1.977159  0  0  -0.668996  0  2.228745  0  0  -0.695632  0  2.218269  0  0  -0.375724  -0.65089  0  2.237145  0
O  O120  1  0.18271544  0.09861851  0.32857648  1  0  -0.677161  0  1.973957  0  0  -0.614669  0  2.213619  0  0  -0.641358  0  2.204012  0  0  -0.350489  -0.595986  0  2.22007  0
O  O121  1  0.85384828  0.40148573  0.67156518  1  0  -0.675768  0  1.97417  0  0  -0.613383  0  2.213242  0  0  -0.640067  0  2.203711  0  0  -0.349472  -0.59459  0  2.219511  0
O  O122  1  0.81728398  0.90138290  0.67142153  1  0  -0.677134  0  1.973908  0  0  -0.614633  0  2.213621  0  0  -0.641321  0  2.204015  0  0  -0.350475  -0.595955  0  2.220082  0
O  O123  1  0.14615331  0.59851570  0.32843604  1  0  -0.675784  0  1.974244  0  0  -0.61341  0  2.213289  0  0  -0.640098  0  2.203761  0  0  -0.349481  -0.594617  0  2.219558  0
O  O124  1  0.00537482  0.18306015  0.26208094  1  0  -0.74126  0  1.981513  0  0  -0.674572  0  2.237083  0  0  -0.701383  0  2.225997  0  0  -0.393989  -0.65492  0  2.243875  0
O  O125  1  0.74269472  0.31696572  0.73784689  1  0  -0.740543  0  1.981205  0  0  -0.673975  0  2.236615  0  0  -0.700802  0  2.225554  0  0  -0.394396  -0.654298  0  2.243385  0
O  O126  1  0.99462461  0.81694127  0.73791911  1  0  -0.741244  0  1.981541  0  0  -0.674546  0  2.237098  0  0  -0.701354  0  2.226014  0  0  -0.39397  -0.654895  0  2.243892  0
O  O127  1  0.25730795  0.68303571  0.26215457  1  0  -0.740591  0  1.981168  0  0  -0.67399  0  2.236598  0  0  -0.700817  0  2.225536  0  0  -0.394406  -0.654317  0  2.243369  0
O  O128  1  0.54638019  0.09437878  0.31455290  1  0  -0.626368  0  1.994902  0  0  -0.571556  0  2.224793  0  0  -0.596042  0  2.217672  0  0  -0.298377  -0.554337  0  2.229507  0
O  O129  1  0.23153371  0.40611812  0.68542216  1  0  -0.626743  0  1.995436  0  0  -0.57188  0  2.225322  0  0  -0.59633  0  2.218163  0  0  -0.299567  -0.554746  0  2.230138  0
O  O130  1  0.45361885  0.90562094  0.68544573  1  0  -0.626388  0  1.994863  0  0  -0.571521  0  2.224775  0  0  -0.596009  0  2.217656  0  0  -0.298333  -0.554303  0  2.229493  0
O  O131  1  0.76846567  0.59387822  0.31457589  1  0  -0.62671  0  1.995521  0  0  -0.57186  0  2.225387  0  0  -0.596298  0  2.218204  0  0  -0.299552  -0.554725  0  2.230201  0
O  O132  1  0.56647145  0.06200769  0.45705304  1  0  -0.748154  0  2.002311  0  0  -0.677896  0  2.248063  0  0  -0.705611  0  2.23923  0  0  -0.416996  -0.658158  0  2.253806  0
O  O133  1  0.10915346  0.43810566  0.54269379  1  0  -0.747338  0  2.004049  0  0  -0.67702  0  2.249839  0  0  -0.704624  0  2.241029  0  0  -0.416263  -0.657245  0  2.255528  0
O  O134  1  0.43352614  0.93799033  0.54294459  1  0  -0.748085  0  2.002405  0  0  -0.677838  0  2.248164  0  0  -0.705553  0  2.239328  0  0  -0.416946  -0.658101  0  2.253907  0
O  O135  1  0.89084542  0.56189322  0.45730719  1  0  -0.747363  0  2.004099  0  0  -0.677037  0  2.24984  0  0  -0.704652  0  2.241056  0  0  -0.416275  -0.657264  0  2.255531  0
O  O136  1  0.50716923  0.43823411  0.88722482  1  0  -0.870291  0  1.822756  0  0  -0.818935  0  2.011561  0  0  -0.837519  0  1.985171  0  0  -0.62217  -0.80539  0  2.030254  0
O  O137  1  0.62001069  0.06177212  0.11270172  1  0  -0.870893  0  1.822408  0  0  -0.819608  0  2.010757  0  0  -0.838186  0  1.984257  0  0  -0.621807  -0.806056  0  2.02958  0
O  O138  1  0.49283110  0.56176647  0.11277578  1  0  -0.870299  0  1.822748  0  0  -0.818938  0  2.011573  0  0  -0.837526  0  1.985194  0  0  -0.622179  -0.805394  0  2.030268  0
O  O139  1  0.37998748  0.93822845  0.88729909  1  0  -0.870865  0  1.822474  0  0  -0.819598  0  2.010805  0  0  -0.838171  0  1.984307  0  0  -0.621807  -0.806052  0  2.029635  0
O  O140  1  0.87710634  0.57794175  0.16373044  1  0  -0.882182  0  1.772754  0  0  -0.832889  0  1.945816  0  0  -0.851769  0  1.915243  0  0  -0.63165  -0.819323  0  1.967875  0
O  O141  1  0.71349749  0.92203837  0.83632600  1  0  -0.879579  0  1.774773  0  0  -0.829451  0  1.949181  0  0  -0.848426  0  1.918549  0  0  -0.629617  -0.81584  0  1.971324  0
O  O142  1  0.12289037  0.42205712  0.83626870  1  0  -0.882156  0  1.772819  0  0  -0.832868  0  1.945858  0  0  -0.851748  0  1.915287  0  0  -0.631651  -0.819297  0  1.967918  0
O  O143  1  0.28650156  0.07796135  0.16367331  1  0  -0.879646  0  1.774695  0  0  -0.829503  0  1.949136  0  0  -0.848477  0  1.918505  0  0  -0.629628  -0.815894  0  1.971277  0
