# generated using pymatgen
data_AgH7C7NClO6
_symmetry_space_group_name_H-M   'P 1'
_cell_length_a   5.23210159
_cell_length_b   13.07773266
_cell_length_c   15.39245691
_cell_angle_alpha   89.99970645
_cell_angle_beta   90.00045130
_cell_angle_gamma   103.30293110
_symmetry_Int_Tables_number   1
_chemical_formula_structural   AgH7C7NClO6
_chemical_formula_sum   'Ag4 H28 C28 N4 Cl4 O24'
_cell_volume   1024.95309074
_cell_formula_units_Z   4
loop_
 _symmetry_equiv_pos_site_id
 _symmetry_equiv_pos_as_xyz
  1  'x, y, z'
loop_
 _atom_site_type_symbol
 _atom_site_label
 _atom_site_symmetry_multiplicity
 _atom_site_fract_x
 _atom_site_fract_y
 _atom_site_fract_z
 _atom_site_occupancy
 _atom_site_hle17_bader_spin_density
 _atom_site_hle17_ddec_charge
 _atom_site_hle17_ddec_spin_density
 _atom_site_hle17_ddec_sum_bond_order
 _atom_site_hle17_magmom
 _atom_site_hse06_10hf_bader_spin_density
 _atom_site_hse06_10hf_ddec_charge
 _atom_site_hse06_10hf_ddec_spin_density
 _atom_site_hse06_10hf_ddec_sum_bond_order
 _atom_site_hse06_10hf_magmom
 _atom_site_hse06_bader_spin_density
 _atom_site_hse06_ddec_charge
 _atom_site_hse06_ddec_spin_density
 _atom_site_hse06_ddec_sum_bond_order
 _atom_site_hse06_magmom
 _atom_site_pbe_bader_spin_density
 _atom_site_pbe_cm5_charge
 _atom_site_pbe_ddec_charge
 _atom_site_pbe_ddec_spin_density
 _atom_site_pbe_ddec_sum_bond_order
 _atom_site_pbe_magmom
Ag  Ag0  1  0.76498697  0.95485604  0.96176102  1  0  0.604711  0  1.418335  0  0  0.485418  0  1.894943  0  0  0.52151  0  1.828079  0  0  0.417045  0.460097  0  1.941372  0
Ag  Ag1  1  0.23512871  0.54516094  0.46176477  1  0  0.604729  0  1.418413  0  0  0.485424  0  1.895044  0  0  0.521516  0  1.828174  0  0  0.417007  0.460102  0  1.941488  0
Ag  Ag2  1  0.23524318  0.04518032  0.03824461  1  0  0.60476  0  1.418166  0  0  0.485552  0  1.894717  0  0  0.521637  0  1.827858  0  0  0.417048  0.460233  0  1.94114  0
Ag  Ag3  1  0.76486224  0.45485203  0.53823566  1  0  0.60461  0  1.418333  0  0  0.485382  0  1.894917  0  0  0.521469  0  1.828059  0  0  0.417026  0.460062  0  1.941346  0
H  H4  1  0.55155507  0.94276807  0.76956631  1  0  0.133516  0  0.921653  0  0  0.143462  0  0.98527  0  0  0.146343  0  0.983268  0  0  0.125559  0.141373  0  0.986776  0
H  H5  1  0.44852790  0.55724545  0.26957770  1  0  0.133731  0  0.921956  0  0  0.143687  0  0.985672  0  0  0.146572  0  0.983666  0  0  0.125625  0.141591  0  0.98718  0
H  H6  1  0.44856445  0.05724579  0.23040684  1  0  0.133808  0  0.92221  0  0  0.143624  0  0.985995  0  0  0.146505  0  0.983993  0  0  0.125588  0.141531  0  0.987506  0
H  H7  1  0.55142781  0.44273897  0.73041689  1  0  0.133905  0  0.922178  0  0  0.14374  0  0.985874  0  0  0.146624  0  0.983871  0  0  0.125638  0.141646  0  0.98738  0
H  H8  1  0.45222174  0.05429518  0.72818771  1  0  0.134488  0  0.954605  0  0  0.143285  0  1.019186  0  0  0.146022  0  1.017282  0  0  0.123001  0.141274  0  1.020611  0
H  H9  1  0.54783036  0.44569427  0.22818319  1  0  0.134345  0  0.954128  0  0  0.143292  0  1.018774  0  0  0.146035  0  1.016869  0  0  0.122937  0.141274  0  1.020183  0
H  H10  1  0.54783174  0.94568973  0.27180753  1  0  0.13424  0  0.95413  0  0  0.143196  0  1.018702  0  0  0.145938  0  1.016797  0  0  0.122918  0.141173  0  1.020123  0
H  H11  1  0.45216887  0.55429306  0.77181400  1  0  0.134205  0  0.954144  0  0  0.143104  0  1.018742  0  0  0.145851  0  1.016835  0  0  0.12288  0.141079  0  1.020166  0
H  H12  1  0.07743958  0.03577641  0.64349147  1  0  0.112935  0  0.935  0  0  0.117917  0  1.002673  0  0  0.121  0  0.999339  0  0  0.13121  0.115587  0  1.005169  0
H  H13  1  0.92255933  0.46424238  0.14347568  1  0  0.112963  0  0.935188  0  0  0.117948  0  1.002878  0  0  0.12103  0  0.999545  0  0  0.131211  0.115622  0  1.005363  0
H  H14  1  0.92262189  0.96424762  0.35649987  1  0  0.113022  0  0.935088  0  0  0.117889  0  1.00287  0  0  0.12097  0  0.99954  0  0  0.131174  0.115555  0  1.005368  0
H  H15  1  0.07740730  0.53576012  0.85650267  1  0  0.112929  0  0.935113  0  0  0.117959  0  1.002753  0  0  0.121045  0  0.99942  0  0  0.131205  0.115622  0  1.005254  0
H  H16  1  0.74884842  0.92143683  0.54495562  1  0  0.135162  0  0.940357  0  0  0.141738  0  1.000697  0  0  0.145157  0  1.000013  0  0  0.116534  0.139268  0  1.001383  0
H  H17  1  0.25110787  0.57856513  0.04493392  1  0  0.135182  0  0.940597  0  0  0.141757  0  1.000912  0  0  0.145172  0  1.000225  0  0  0.116522  0.13929  0  1.001605  0
H  H18  1  0.25117372  0.07857732  0.45504417  1  0  0.135138  0  0.940778  0  0  0.141777  0  1.000988  0  0  0.145195  0  1.000301  0  0  0.116529  0.139304  0  1.001687  0
H  H19  1  0.74885111  0.42144509  0.95504832  1  0  0.135156  0  0.940782  0  0  0.141765  0  1.001021  0  0  0.145181  0  1.000334  0  0  0.116541  0.139297  0  1.001715  0
H  H20  1  0.71314182  0.72737479  0.54571053  1  0  0.114231  0  0.944422  0  0  0.123713  0  1.005852  0  0  0.126817  0  1.002338  0  0  0.11331  0.121315  0  1.008557  0
H  H21  1  0.28685599  0.77262615  0.04569339  1  0  0.114193  0  0.944207  0  0  0.12368  0  1.005733  0  0  0.126815  0  1.002187  0  0  0.113364  0.121282  0  1.008437  0
H  H22  1  0.28686029  0.27263754  0.45430419  1  0  0.114208  0  0.9442  0  0  0.123683  0  1.005705  0  0  0.12682  0  1.00216  0  0  0.113296  0.121284  0  1.008409  0
H  H23  1  0.71310495  0.22738799  0.95430185  1  0  0.114213  0  0.944399  0  0  0.12366  0  1.005878  0  0  0.126702  0  1.00245  0  0  0.113291  0.121266  0  1.008577  0
H  H24  1  0.00163720  0.65285317  0.64712381  1  0  0.110818  0  0.968227  0  0  0.117059  0  1.032849  0  0  0.120565  0  1.031475  0  0  0.109527  0.11446  0  1.034181  0
H  H25  1  0.99838954  0.84714846  0.14711842  1  0  0.110902  0  0.968414  0  0  0.117157  0  1.033004  0  0  0.12066  0  1.031635  0  0  0.109519  0.114551  0  1.034332  0
H  H26  1  0.99833253  0.34715172  0.35289351  1  0  0.110771  0  0.968252  0  0  0.117068  0  1.032825  0  0  0.120568  0  1.031464  0  0  0.109536  0.114466  0  1.034146  0
H  H27  1  0.00155047  0.15284668  0.85289241  1  0  0.110846  0  0.968403  0  0  0.11713  0  1.032978  0  0  0.120632  0  1.031616  0  0  0.109535  0.114528  0  1.034302  0
H  H28  1  0.31860563  0.77732072  0.74323847  1  0  0.11913  0  0.954434  0  0  0.128278  0  1.015359  0  0  0.130957  0  1.012816  0  0  0.131229  0.126192  0  1.017367  0
H  H29  1  0.68144391  0.72269561  0.24324598  1  0  0.119193  0  0.954207  0  0  0.128395  0  1.015061  0  0  0.13107  0  1.012524  0  0  0.131298  0.126305  0  1.017071  0
H  H30  1  0.68139642  0.22268381  0.25676132  1  0  0.119145  0  0.954184  0  0  0.128334  0  1.01507  0  0  0.131014  0  1.01252  0  0  0.131278  0.126246  0  1.017081  0
H  H31  1  0.31850909  0.27728722  0.75676030  1  0  0.119099  0  0.95414  0  0  0.128309  0  1.015041  0  0  0.130986  0  1.012499  0  0  0.131204  0.126226  0  1.017055  0
C  C32  1  0.23706045  0.98795520  0.84096478  1  0  0.686642  0  3.861993  0  0  0.639108  0  4.147201  0  0  0.673514  0  4.144284  0  0  0.215144  0.615595  0  4.148271  0
C  C33  1  0.76303987  0.51207071  0.34096540  1  0  0.686638  0  3.862041  0  0  0.639202  0  4.147213  0  0  0.67361  0  4.144303  0  0  0.215354  0.615689  0  4.148272  0
C  C34  1  0.76307417  0.01206978  0.15902851  1  0  0.686995  0  3.861683  0  0  0.639269  0  4.147205  0  0  0.673707  0  4.144254  0  0  0.215298  0.615743  0  4.148285  0
C  C35  1  0.23691969  0.48791377  0.65902854  1  0  0.686642  0  3.861977  0  0  0.638784  0  4.147654  0  0  0.673219  0  4.144714  0  0  0.215113  0.615252  0  4.148733  0
C  C36  1  0.38107651  0.97588379  0.75661204  1  0  -0.186052  0  3.576461  0  0  -0.244292  0  3.818293  0  0  -0.246741  0  3.824788  0  0  -0.052386  -0.242443  0  3.813952  0
C  C37  1  0.61895575  0.52414161  0.25663357  1  0  -0.185717  0  3.575784  0  0  -0.244466  0  3.818059  0  0  -0.246929  0  3.824569  0  0  -0.052408  -0.242617  0  3.813737  0
C  C38  1  0.61896115  0.02414617  0.24336241  1  0  -0.185945  0  3.576109  0  0  -0.244299  0  3.818217  0  0  -0.246771  0  3.824721  0  0  -0.05232  -0.242433  0  3.813866  0
C  C39  1  0.38103458  0.47583936  0.74336687  1  0  -0.186041  0  3.576362  0  0  -0.24433  0  3.818333  0  0  -0.246802  0  3.824834  0  0  -0.052352  -0.242461  0  3.813993  0
C  C40  1  0.05188576  0.95079610  0.64117117  1  0  0.109958  0  3.555331  0  0  0.065518  0  3.808813  0  0  0.074769  0  3.823129  0  0  0.071297  0.059521  0  3.799381  0
C  C41  1  0.94813283  0.54919999  0.14114184  1  0  0.110058  0  3.554851  0  0  0.065515  0  3.808367  0  0  0.074756  0  3.822683  0  0  0.071211  0.059533  0  3.798922  0
C  C42  1  0.94817515  0.04920373  0.35883836  1  0  0.110164  0  3.554948  0  0  0.065822  0  3.808418  0  0  0.075057  0  3.822739  0  0  0.071244  0.059827  0  3.798993  0
C  C43  1  0.05178755  0.45079412  0.85885794  1  0  0.110394  0  3.55446  0  0  0.065837  0  3.807956  0  0  0.075067  0  3.822283  0  0  0.071303  0.059856  0  3.798518  0
C  C44  1  0.87207671  0.88641975  0.58727334  1  0  -0.097021  0  3.67206  0  0  -0.11201  0  3.929651  0  0  -0.120773  0  3.950657  0  0  -0.067767  -0.106632  0  3.91587  0
C  C45  1  0.12792119  0.61356695  0.08725831  1  0  -0.097069  0  3.672761  0  0  -0.112013  0  3.930378  0  0  -0.120764  0  3.951388  0  0  -0.067722  -0.106649  0  3.916613  0
C  C46  1  0.12793442  0.11356461  0.41273359  1  0  -0.097326  0  3.672832  0  0  -0.112268  0  3.930295  0  0  -0.121021  0  3.95131  0  0  -0.067751  -0.106901  0  3.916534  0
C  C47  1  0.87200650  0.38642647  0.91272848  1  0  -0.097341  0  3.673216  0  0  -0.112328  0  3.930792  0  0  -0.121075  0  3.951773  0  0  -0.067844  -0.106957  0  3.917018  0
C  C48  1  0.85264709  0.77818547  0.58842232  1  0  0.037857  0  3.646478  0  0  0.011733  0  3.899826  0  0  0.018678  0  3.914884  0  0  -0.044199  0.007511  0  3.88967  0
C  C49  1  0.14734535  0.72180194  0.08840981  1  0  0.038107  0  3.646086  0  0  0.011957  0  3.899347  0  0  0.018866  0  3.914415  0  0  -0.044207  0.007725  0  3.889193  0
C  C50  1  0.14739610  0.22181335  0.41158006  1  0  0.038197  0  3.646136  0  0  0.012048  0  3.899486  0  0  0.018973  0  3.914509  0  0  -0.044175  0.007818  0  3.889339  0
C  C51  1  0.85262151  0.27818185  0.91158868  1  0  0.038166  0  3.646538  0  0  0.012147  0  3.899806  0  0  0.019133  0  3.914884  0  0  -0.044166  0.007921  0  3.889642  0
C  C52  1  0.01347645  0.73691451  0.64406747  1  0  -0.086103  0  3.704642  0  0  -0.098308  0  3.960351  0  0  -0.106497  0  3.980342  0  0  -0.068999  -0.093345  0  3.947272  0
C  C53  1  0.98655243  0.76309107  0.14405748  1  0  -0.086503  0  3.704897  0  0  -0.098701  0  3.96069  0  0  -0.106899  0  3.980691  0  0  -0.069133  -0.093729  0  3.9476  0
C  C54  1  0.98656025  0.26309047  0.35595635  1  0  -0.086487  0  3.704597  0  0  -0.098745  0  3.960457  0  0  -0.10694  0  3.980461  0  0  -0.069164  -0.093775  0  3.947368  0
C  C55  1  0.01340496  0.23691210  0.85594685  1  0  -0.086612  0  3.7051  0  0  -0.098918  0  3.960971  0  0  -0.107114  0  3.980939  0  0  -0.069169  -0.093942  0  3.947885  0
C  C56  1  0.19006538  0.80375453  0.69696492  1  0  0.101407  0  3.553771  0  0  0.058382  0  3.798113  0  0  0.066652  0  3.814234  0  0  0.070772  0.053125  0  3.787334  0
C  C57  1  0.80998332  0.69623937  0.19696316  1  0  0.101511  0  3.554708  0  0  0.058437  0  3.799014  0  0  0.06672  0  3.815134  0  0  0.070925  0.053172  0  3.788226  0
C  C58  1  0.80993968  0.19624068  0.30304396  1  0  0.101776  0  3.553888  0  0  0.058746  0  3.798317  0  0  0.067037  0  3.814422  0  0  0.070953  0.053472  0  3.787541  0
C  C59  1  0.18999606  0.30376955  0.80303923  1  0  0.101883  0  3.554525  0  0  0.058764  0  3.798948  0  0  0.06706  0  3.815051  0  0  0.071119  0.053476  0  3.788184  0
N  N60  1  0.20702269  0.90867333  0.69434444  1  0  0.026776  0  3.562823  0  0  0.120359  0  3.769075  0  0  0.10727  0  3.795555  0  0  -0.204267  0.128756  0  3.75128  0
N  N61  1  0.79300986  0.59135313  0.19434146  1  0  0.026399  0  3.56271  0  0  0.120226  0  3.768902  0  0  0.107131  0  3.795382  0  0  -0.204398  0.128623  0  3.751095  0
N  N62  1  0.79301147  0.09135346  0.30565340  1  0  0.026354  0  3.563045  0  0  0.11995  0  3.76933  0  0  0.106854  0  3.795809  0  0  -0.204354  0.128346  0  3.751536  0
N  N63  1  0.20694555  0.40864221  0.80564923  1  0  0.026336  0  3.563176  0  0  0.120104  0  3.7693  0  0  0.107011  0  3.795782  0  0  -0.204339  0.1285  0  3.751499  0
Cl  Cl64  1  0.71954463  0.69325030  0.89558534  1  0  1.391775  0  6.18915  0  0  1.330572  0  6.75001  0  0  1.383467  0  6.727538  0  0  0.724777  1.294126  0  6.763961  0
Cl  Cl65  1  0.28041818  0.80674002  0.39557756  1  0  1.391944  0  6.189294  0  0  1.330777  0  6.750085  0  0  1.383684  0  6.727613  0  0  0.724966  1.29432  0  6.764048  0
Cl  Cl66  1  0.28034823  0.30671926  0.10443328  1  0  1.392524  0  6.189062  0  0  1.331218  0  6.749926  0  0  1.384116  0  6.727472  0  0  0.725313  1.29475  0  6.763878  0
Cl  Cl67  1  0.71958501  0.19326296  0.60440923  1  0  1.391621  0  6.189731  0  0  1.330565  0  6.75041  0  0  1.383468  0  6.727945  0  0  0.724839  1.294101  0  6.764361  0
O  O68  1  0.65193722  0.76098534  0.96420916  1  0  -0.573689  0  1.949597  0  0  -0.531985  0  2.226378  0  0  -0.552145  0  2.210462  0  0  -0.324642  -0.517724  0  2.236836  0
O  O69  1  0.34805201  0.73902375  0.46421643  1  0  -0.573756  0  1.949556  0  0  -0.531909  0  2.226126  0  0  -0.552078  0  2.210205  0  0  -0.324586  -0.51765  0  2.23659  0
O  O70  1  0.34800790  0.23902391  0.03577568  1  0  -0.573799  0  1.949208  0  0  -0.532105  0  2.226017  0  0  -0.552251  0  2.210075  0  0  -0.324577  -0.517828  0  2.236475  0
O  O71  1  0.65196625  0.26098646  0.53577686  1  0  -0.573521  0  1.949736  0  0  -0.531913  0  2.226519  0  0  -0.552088  0  2.210603  0  0  -0.324567  -0.517637  0  2.236968  0
O  O72  1  0.60639742  0.71656102  0.81281935  1  0  -0.553486  0  1.856661  0  0  -0.524035  0  2.096358  0  0  -0.540252  0  2.08396  0  0  -0.319616  -0.512578  0  2.104406  0
O  O73  1  0.39359149  0.78342221  0.31281638  1  0  -0.553574  0  1.856599  0  0  -0.524233  0  2.096404  0  0  -0.54043  0  2.083946  0  0  -0.319783  -0.512768  0  2.104447  0
O  O74  1  0.39348615  0.28340140  0.18719408  1  0  -0.553742  0  1.856843  0  0  -0.524254  0  2.096512  0  0  -0.540479  0  2.084119  0  0  -0.319814  -0.512776  0  2.10455  0
O  O75  1  0.60641817  0.21657071  0.68716717  1  0  -0.55344  0  1.856764  0  0  -0.523992  0  2.096396  0  0  -0.540211  0  2.083992  0  0  -0.31958  -0.512525  0  2.104446  0
O  O76  1  0.60918487  0.58392048  0.91969633  1  0  -0.545156  0  1.849742  0  0  -0.516676  0  2.093114  0  0  -0.533354  0  2.081889  0  0  -0.310778  -0.504781  0  2.100189  0
O  O77  1  0.39073688  0.91607466  0.41967720  1  0  -0.545052  0  1.850284  0  0  -0.516535  0  2.093584  0  0  -0.533222  0  2.082353  0  0  -0.310718  -0.504648  0  2.100666  0
O  O78  1  0.39061578  0.41607129  0.08036387  1  0  -0.545597  0  1.850532  0  0  -0.516742  0  2.093625  0  0  -0.533404  0  2.082359  0  0  -0.310857  -0.504906  0  2.10083  0
O  O79  1  0.60927632  0.08392923  0.58030049  1  0  -0.545024  0  1.850201  0  0  -0.516532  0  2.093477  0  0  -0.533211  0  2.082237  0  0  -0.31073  -0.504663  0  2.100601  0
O  O80  1  0.00400914  0.71186613  0.88733018  1  0  -0.535723  0  1.837854  0  0  -0.511496  0  2.080499  0  0  -0.528605  0  2.068929  0  0  -0.31126  -0.499351  0  2.08777  0
O  O81  1  0.99593363  0.78810602  0.38732398  1  0  -0.535897  0  1.837713  0  0  -0.511691  0  2.080335  0  0  -0.528791  0  2.068741  0  0  -0.311389  -0.499553  0  2.087632  0
O  O82  1  0.99587846  0.28806981  0.11270079  1  0  -0.535855  0  1.837602  0  0  -0.511732  0  2.080344  0  0  -0.528839  0  2.068758  0  0  -0.311544  -0.499606  0  2.087677  0
O  O83  1  0.00406686  0.21189537  0.61268165  1  0  -0.535859  0  1.837675  0  0  -0.511707  0  2.080329  0  0  -0.528796  0  2.068721  0  0  -0.311463  -0.499573  0  2.087645  0
O  O84  1  0.98972200  0.97073307  0.83838108  1  0  -0.604436  0  2.094163  0  0  -0.537284  0  2.360962  0  0  -0.568612  0  2.350906  0  0  -0.31565  -0.515488  0  2.367109  0
O  O85  1  0.01039637  0.52926734  0.33836019  1  0  -0.604504  0  2.093895  0  0  -0.537434  0  2.360797  0  0  -0.568761  0  2.350734  0  0  -0.315841  -0.515634  0  2.366949  0
O  O86  1  0.01042618  0.02925385  0.16163560  1  0  -0.604608  0  2.093802  0  0  -0.537453  0  2.360772  0  0  -0.568791  0  2.350692  0  0  -0.315794  -0.515652  0  2.366928  0
O  O87  1  0.98959182  0.47073623  0.66163244  1  0  -0.604391  0  2.094345  0  0  -0.537144  0  2.361345  0  0  -0.568478  0  2.351274  0  0  -0.315694  -0.515346  0  2.367504  0
O  O88  1  0.38521253  0.01923685  0.90594856  1  0  -0.637753  0  2.159064  0  0  -0.550561  0  2.442455  0  0  -0.585851  0  2.428898  0  0  -0.32983  -0.525911  0  2.450873  0
O  O89  1  0.61489155  0.48079695  0.40595168  1  0  -0.637708  0  2.159024  0  0  -0.550444  0  2.442311  0  0  -0.585736  0  2.428769  0  0  -0.329756  -0.52579  0  2.450703  0
O  O90  1  0.61496448  0.98079648  0.09403953  1  0  -0.637852  0  2.159029  0  0  -0.550492  0  2.442485  0  0  -0.585788  0  2.428919  0  0  -0.329832  -0.525849  0  2.450918  0
O  O91  1  0.38507583  0.51920323  0.59404096  1  0  -0.637769  0  2.158907  0  0  -0.550395  0  2.442413  0  0  -0.585696  0  2.428855  0  0  -0.32979  -0.525737  0  2.450827  0
