# generated using pymatgen
data_ZnH14C18I2(NO2)2
_symmetry_space_group_name_H-M   'P 1'
_cell_length_a   12.32965891
_cell_length_b   13.45355788
_cell_length_c   15.55790879
_cell_angle_alpha   89.99988930
_cell_angle_beta   90.00013203
_cell_angle_gamma   89.99995957
_symmetry_Int_Tables_number   1
_chemical_formula_structural   ZnH14C18I2(NO2)2
_chemical_formula_sum   'Zn4 H56 C72 I8 N8 O16'
_cell_volume   2580.71136699
_cell_formula_units_Z   4
loop_
 _symmetry_equiv_pos_site_id
 _symmetry_equiv_pos_as_xyz
  1  'x, y, z'
loop_
 _atom_site_type_symbol
 _atom_site_label
 _atom_site_symmetry_multiplicity
 _atom_site_fract_x
 _atom_site_fract_y
 _atom_site_fract_z
 _atom_site_occupancy
 _atom_site_pbe_bader_charge
 _atom_site_pbe_bader_spin_density
 _atom_site_pbe_cm5_charge
 _atom_site_pbe_ddec_charge
 _atom_site_pbe_ddec_spin_density
 _atom_site_pbe_ddec_sum_bond_order
 _atom_site_pbe_magmom
Zn  Zn0  1  0.85227851  0.24999949  0.25000075  1  1.251649  0  0.683371  0.748798  0  2.419429  0
Zn  Zn1  1  0.64772034  0.74999889  0.24999949  1  1.251684  0  0.683363  0.748794  0  2.419457  0
Zn  Zn2  1  0.14772183  0.74999850  0.74999875  1  1.2518  0  0.683334  0.748693  0  2.419633  0
Zn  Zn3  1  0.35227675  0.24999985  0.75000194  1  1.25184  0  0.68337  0.748748  0  2.419468  0
H  H4  1  0.08388136  0.34407623  0.01203418  1  0.069612  0  0.098345  0.114037  0  1.016335  0
H  H5  1  0.41611833  0.65592003  0.01203422  1  0.06968  0  0.098367  0.114055  0  1.016372  0
H  H6  1  0.41611732  0.84407568  0.48796306  1  0.069648  0  0.09835  0.11402  0  1.016341  0
H  H7  1  0.08387969  0.15592102  0.48796527  1  0.069696  0  0.098354  0.114038  0  1.016377  0
H  H8  1  0.91611655  0.65592325  0.98796789  1  0.06958  0  0.098335  0.114031  0  1.016306  0
H  H9  1  0.58388363  0.34407425  0.98796400  1  0.069627  0  0.098339  0.114037  0  1.016258  0
H  H10  1  0.58388058  0.15592232  0.51203773  1  0.069744  0  0.098381  0.11405  0  1.016366  0
H  H11  1  0.91611903  0.84407326  0.51203616  1  0.069647  0  0.098351  0.114049  0  1.016265  0
H  H12  1  0.91532288  0.49729856  0.07502399  1  0.085535  0  0.102648  0.105379  0  0.995263  0
H  H13  1  0.58468032  0.50269872  0.07502176  1  0.085555  0  0.102626  0.105356  0  0.995304  0
H  H14  1  0.58467820  0.99729985  0.42497904  1  0.085557  0  0.102664  0.105418  0  0.995264  0
H  H15  1  0.91532034  0.00269890  0.42497762  1  0.085553  0  0.102629  0.105345  0  0.995313  0
H  H16  1  0.08467421  0.50269944  0.92497679  1  0.085484  0  0.102663  0.105456  0  0.99525  0
H  H17  1  0.41532488  0.49730002  0.92497710  1  0.085474  0  0.102668  0.105443  0  0.995256  0
H  H18  1  0.41532214  0.00269666  0.57502239  1  0.085463  0  0.102623  0.105362  0  0.995315  0
H  H19  1  0.08467432  0.99729984  0.57502317  1  0.085471  0  0.102659  0.105429  0  0.995249  0
H  H20  1  0.77883067  0.25830938  0.43592090  1  0.103899  0  0.113334  0.082847  0  1.005289  0
H  H21  1  0.72116628  0.74169083  0.43591980  1  0.103913  0  0.113298  0.08281  0  1.005352  0
H  H22  1  0.72116735  0.75830766  0.06407932  1  0.103849  0  0.113312  0.082813  0  1.005291  0
H  H23  1  0.77883257  0.24168891  0.06407853  1  0.103861  0  0.113306  0.082796  0  1.00532  0
H  H24  1  0.22116885  0.74169456  0.56407667  1  0.103901  0  0.113271  0.082792  0  1.005327  0
H  H25  1  0.27882838  0.25830717  0.56408227  1  0.104056  0  0.113326  0.082836  0  1.005325  0
H  H26  1  0.27883704  0.24169108  0.93592532  1  0.103838  0  0.11326  0.082786  0  1.005305  0
H  H27  1  0.22116776  0.75830760  0.93592033  1  0.103955  0  0.113311  0.082826  0  1.005326  0
H  H28  1  0.64686442  0.35500420  0.52338811  1  0.089045  0  0.111582  0.127647  0  1.010347  0
H  H29  1  0.85313279  0.64499805  0.52338934  1  0.089006  0  0.111602  0.127656  0  1.010314  0
H  H30  1  0.85313498  0.85500148  0.97661203  1  0.089033  0  0.111617  0.127698  0  1.01029  0
H  H31  1  0.64686678  0.14499605  0.97660987  1  0.088983  0  0.11158  0.127615  0  1.010346  0
H  H32  1  0.35313673  0.64500049  0.47660817  1  0.088944  0  0.11156  0.127612  0  1.010339  0
H  H33  1  0.14686269  0.35500143  0.47661273  1  0.089063  0  0.111603  0.127672  0  1.010285  0
H  H34  1  0.14686535  0.14499652  0.02339262  1  0.088953  0  0.111581  0.127662  0  1.010319  0
H  H35  1  0.35313437  0.85500194  0.02338899  1  0.089022  0  0.111589  0.127634  0  1.010298  0
H  H36  1  0.56169540  0.51441881  0.29034180  1  0.129007  0  0.112675  0.133356  0  0.995775  0
H  H37  1  0.93830599  0.48558023  0.29034538  1  0.129031  0  0.112696  0.133429  0  0.995771  0
H  H38  1  0.93830687  0.01441870  0.20965756  1  0.129009  0  0.112683  0.133362  0  0.995811  0
H  H39  1  0.56169429  0.98558126  0.20965446  1  0.129051  0  0.112651  0.133395  0  0.995897  0
H  H40  1  0.43830737  0.48558290  0.70965256  1  0.129068  0  0.112641  0.133387  0  0.99592  0
H  H41  1  0.06169353  0.51442149  0.70965669  1  0.129018  0  0.112678  0.133349  0  0.995848  0
H  H42  1  0.06169347  0.98558449  0.79034644  1  0.129066  0  0.112645  0.133366  0  0.995899  0
H  H43  1  0.43830524  0.01441823  0.79034440  1  0.129042  0  0.112663  0.13339  0  0.995834  0
H  H44  1  0.69392851  0.40683914  0.21265226  1  0.106903  0  0.116779  0.088186  0  0.990425  0
H  H45  1  0.80607347  0.59315933  0.21265285  1  0.106925  0  0.116772  0.088146  0  0.990477  0
H  H46  1  0.80607265  0.90683984  0.28734964  1  0.106888  0  0.116771  0.08818  0  0.990419  0
H  H47  1  0.69392955  0.09315921  0.28734637  1  0.106957  0  0.116753  0.088171  0  0.990371  0
H  H48  1  0.30606939  0.59315737  0.78734467  1  0.106982  0  0.11679  0.088212  0  0.990399  0
H  H49  1  0.19392525  0.40684164  0.78734987  1  0.106882  0  0.116767  0.088178  0  0.990412  0
H  H50  1  0.19392850  0.09316187  0.71265565  1  0.106994  0  0.116763  0.088177  0  0.990384  0
H  H51  1  0.30607079  0.90684028  0.71265184  1  0.106923  0  0.116765  0.088173  0  0.990371  0
H  H52  1  0.48560588  0.57088182  0.42226815  1  0.125547  0  0.107937  0.126683  0  1.024633  0
H  H53  1  0.01439257  0.42911873  0.42227427  1  0.125649  0  0.107961  0.126737  0  1.024568  0
H  H54  1  0.01439464  0.07087930  0.07772955  1  0.125582  0  0.107942  0.126665  0  1.024601  0
H  H55  1  0.48560605  0.92911904  0.07772797  1  0.125622  0  0.107948  0.126692  0  1.024603  0
H  H56  1  0.51439852  0.42912435  0.57772621  1  0.125588  0  0.107957  0.126694  0  1.024595  0
H  H57  1  0.98560452  0.57088149  0.57772909  1  0.125573  0  0.107937  0.126669  0  1.024624  0
H  H58  1  0.98560569  0.92912241  0.92227316  1  0.125648  0  0.107962  0.126725  0  1.024603  0
H  H59  1  0.51439510  0.07087821  0.92227089  1  0.125596  0  0.107952  0.126686  0  1.024612  0
C  C60  1  0.97576671  0.31362589  0.12107410  1  1.537343  0  0.185034  0.592977  0  4.245105  0
C  C61  1  0.52423825  0.68637055  0.12107401  1  1.537505  0  0.184937  0.592955  0  4.245245  0
C  C62  1  0.52423858  0.81362806  0.37892411  1  1.537958  0  0.184992  0.592945  0  4.245308  0
C  C63  1  0.97576064  0.18637153  0.37892505  1  1.537506  0  0.184927  0.592914  0  4.245378  0
C  C64  1  0.02423282  0.68637508  0.87892733  1  1.537362  0  0.185039  0.593011  0  4.245184  0
C  C65  1  0.47576208  0.31362744  0.87892421  1  1.537964  0  0.184987  0.592958  0  4.245276  0
C  C66  1  0.47575852  0.18637217  0.62107411  1  1.537427  0  0.184929  0.592839  0  4.245434  0
C  C67  1  0.02423808  0.81362869  0.62107573  1  1.537961  0  0.18499  0.592977  0  4.24524  0
C  C68  1  0.01885852  0.37649365  0.05061447  1  0.034906  0  -0.096001  -0.221012  0  3.889409  0
C  C69  1  0.48114372  0.62350400  0.05061404  1  0.034857  0  -0.096068  -0.221118  0  3.88957  0
C  C70  1  0.48114338  0.87649240  0.44938400  1  0.034831  0  -0.095998  -0.220948  0  3.889433  0
C  C71  1  0.01885433  0.12350512  0.44938550  1  0.035082  0  -0.09603  -0.2211  0  3.889471  0
C  C72  1  0.98113939  0.62350583  0.94938632  1  0.034891  0  -0.095999  -0.220996  0  3.889377  0
C  C73  1  0.51885906  0.37649176  0.94938418  1  0.034663  0  -0.096061  -0.221042  0  3.889344  0
C  C74  1  0.51885614  0.12350485  0.55061614  1  0.03462  0  -0.096076  -0.221032  0  3.889435  0
C  C75  1  0.98114195  0.87649213  0.55061593  1  0.034612  0  -0.096048  -0.221047  0  3.889397  0
C  C76  1  0.98022974  0.46869946  0.03396457  1  -0.166741  0  -0.085982  -0.042612  0  4.031498  0
C  C77  1  0.51977091  0.53129866  0.03396474  1  -0.166891  0  -0.085981  -0.042584  0  4.031531  0
C  C78  1  0.51976893  0.96869847  0.46603465  1  -0.109894  0  -0.086058  -0.042788  0  4.031589  0
C  C79  1  0.98022892  0.03129796  0.46603587  1  -0.167087  0  -0.085977  -0.042534  0  4.031498  0
C  C80  1  0.01976654  0.53129928  0.96603557  1  -0.109654  0  -0.086095  -0.042853  0  4.031564  0
C  C81  1  0.48023348  0.46869859  0.96603347  1  -0.109511  0  -0.086003  -0.04277  0  4.031551  0
C  C82  1  0.48023059  0.03129804  0.53396613  1  -0.166749  0  -0.085987  -0.042652  0  4.03144  0
C  C83  1  0.01976737  0.96869855  0.53396620  1  -0.10953  0  -0.086015  -0.042778  0  4.031568  0
C  C84  1  0.72786651  0.31531814  0.40667266  1  0.461338  0  0.039666  0.085431  0  3.978335  0
C  C85  1  0.77213361  0.68468362  0.40667303  1  0.4613  0  0.039673  0.085416  0  3.978346  0
C  C86  1  0.77213310  0.81531781  0.09332682  1  0.461314  0  0.039672  0.085449  0  3.978397  0
C  C87  1  0.72786773  0.18468167  0.09332539  1  0.461515  0  0.0397  0.085442  0  3.978376  0
C  C88  1  0.27213059  0.68468208  0.59332491  1  0.461418  0  0.039698  0.085348  0  3.978437  0
C  C89  1  0.22786511  0.31531810  0.59332775  1  0.461171  0  0.039666  0.08541  0  3.978406  0
C  C90  1  0.22787211  0.18467945  0.90667589  1  0.461507  0  0.039797  0.085467  0  3.978264  0
C  C91  1  0.27213342  0.81531707  0.90667347  1  0.461239  0  0.039665  0.085405  0  3.978358  0
C  C92  1  0.65506405  0.37012666  0.45485576  1  0.002796  0  -0.079652  -0.172807  0  3.918858  0
C  C93  1  0.84493376  0.62987499  0.45485700  1  0.002763  0  -0.079615  -0.172712  0  3.918869  0
C  C94  1  0.84493551  0.87012416  0.04514299  1  0.00281  0  -0.079671  -0.172834  0  3.918843  0
C  C95  1  0.65506761  0.12987542  0.04514152  1  0.002512  0  -0.079661  -0.172734  0  3.918912  0
C  C96  1  0.34493547  0.62988025  0.54514181  1  0.002818  0  -0.079631  -0.172662  0  3.918828  0
C  C97  1  0.15506171  0.37012523  0.54514572  1  0.002816  0  -0.079648  -0.172796  0  3.918894  0
C  C98  1  0.15506483  0.12987384  0.95485844  1  0.002643  0  -0.07967  -0.172773  0  3.918854  0
C  C99  1  0.34493516  0.87012480  0.95485606  1  0.002798  0  -0.079613  -0.172721  0  3.918788  0
C  C100  1  0.59277108  0.44437251  0.41400503  1  -0.028186  0  0.010693  0.156304  0  4.010653  0
C  C101  1  0.90722743  0.55562997  0.41400716  1  -0.028138  0  0.010672  0.156367  0  4.010671  0
C  C102  1  0.90723004  0.94436988  0.08599359  1  -0.02792  0  0.010685  0.156317  0  4.010553  0
C  C103  1  0.59277319  0.05563035  0.08599149  1  -0.028135  0  0.010725  0.15637  0  4.010573  0
C  C104  1  0.40723169  0.55563366  0.58598932  1  -0.028476  0  0.010763  0.156375  0  4.010668  0
C  C105  1  0.09276967  0.44437100  0.58599492  1  -0.028297  0  0.01066  0.156298  0  4.010668  0
C  C106  1  0.09277030  0.05562737  0.91400912  1  -0.028413  0  0.010717  0.156279  0  4.010759  0
C  C107  1  0.40722877  0.94437136  0.91400609  1  -0.027923  0  0.010665  0.156334  0  4.010698  0
C  C108  1  0.60686299  0.45744127  0.32505414  1  -0.019847  0  -0.080419  -0.172405  0  3.920346  0
C  C109  1  0.89313770  0.54255993  0.32505625  1  -0.020018  0  -0.080429  -0.17256  0  3.920517  0
C  C110  1  0.89313732  0.95743994  0.17494575  1  -0.020131  0  -0.080388  -0.172402  0  3.920418  0
C  C111  1  0.60686455  0.04256010  0.17494370  1  -0.020314  0  -0.080451  -0.172594  0  3.920703  0
C  C112  1  0.39313735  0.54255821  0.67494022  1  -0.020182  0  -0.080405  -0.172526  0  3.920465  0
C  C113  1  0.10686264  0.45744327  0.67494582  1  -0.019875  0  -0.080425  -0.172452  0  3.920462  0
C  C114  1  0.10686302  0.04255806  0.82505889  1  -0.020125  0  -0.080394  -0.17241  0  3.920501  0
C  C115  1  0.39313579  0.95744012  0.82505580  1  -0.020186  0  -0.080415  -0.172482  0  3.92063  0
C  C116  1  0.68054382  0.39823019  0.28153041  1  0.459255  0  0.041883  0.087149  0  3.986402  0
C  C117  1  0.81945755  0.60176961  0.28153101  1  0.459822  0  0.041904  0.087226  0  3.986467  0
C  C118  1  0.81945654  0.89822955  0.21846958  1  0.459851  0  0.04191  0.087207  0  3.986416  0
C  C119  1  0.68054384  0.10177039  0.21846691  1  0.459149  0  0.041957  0.087218  0  3.986433  0
C  C120  1  0.31945652  0.60176929  0.71846652  1  0.459283  0  0.041874  0.087103  0  3.986072  0
C  C121  1  0.18054035  0.39823061  0.71847042  1  0.459837  0  0.041944  0.087216  0  3.98639  0
C  C122  1  0.18054299  0.10176919  0.78153313  1  0.459063  0  0.0419  0.087146  0  3.986163  0
C  C123  1  0.31945650  0.89822983  0.78153130  1  0.459843  0  0.041881  0.087124  0  3.986365  0
C  C124  1  0.51609828  0.50751118  0.45901160  1  0.014697  0  -0.07912  -0.117473  0  3.927891  0
C  C125  1  0.98390279  0.49249270  0.45901718  1  0.014671  0  -0.079094  -0.117468  0  3.927866  0
C  C126  1  0.98390319  0.00750918  0.04098519  1  0.014742  0  -0.079121  -0.117445  0  3.927902  0
C  C127  1  0.51609667  0.99249115  0.04098329  1  -0.08793  0  -0.079072  -0.117402  0  3.927847  0
C  C128  1  0.48390530  0.49249351  0.54098147  1  -0.087755  0  -0.079088  -0.117395  0  3.927885  0
C  C129  1  0.01609511  0.50750902  0.54098617  1  -0.088197  0  -0.079122  -0.117478  0  3.927925  0
C  C130  1  0.01609634  0.99249030  0.95901688  1  -0.087959  0  -0.079103  -0.117449  0  3.927915  0
C  C131  1  0.48390367  0.00750759  0.95901429  1  0.014738  0  -0.079121  -0.117494  0  3.92796  0
I  I132  1  0.91308231  0.28964188  0.82978049  1  0.00381  0  0.043691  0.013849  0  1.37405  0
I  I133  1  0.58689794  0.71036787  0.82977726  1  0.003722  0  0.043747  0.013898  0  1.374175  0
I  I134  1  0.58689768  0.78963109  0.67022233  1  0.000108  0  0.043751  0.013917  0  1.37418  0
I  I135  1  0.91308617  0.21039387  0.67021412  1  0.0  0  0.043789  0.013956  0  1.37406  0
I  I136  1  0.08692857  0.71037247  0.17022094  1  0.003732  0  0.043741  0.013905  0  1.374155  0
I  I137  1  0.41310240  0.28963087  0.17022160  1  0.000115  0  0.043737  0.013892  0  1.374146  0
I  I138  1  0.41310266  0.21036765  0.32977781  1  0.003714  0  0.043754  0.013914  0  1.374138  0
I  I139  1  0.08692877  0.78962716  0.32977895  1  0.000138  0  0.043739  0.013895  0  1.374154  0
N  N140  1  0.74112384  0.32905437  0.32143177  1  -1.277224  0  -0.338691  -0.246465  0  3.601774  0
N  N141  1  0.75887602  0.67094534  0.32143214  1  -1.277196  0  -0.338698  -0.246489  0  3.601696  0
N  N142  1  0.75887657  0.82905460  0.17856641  1  -1.277206  0  -0.338686  -0.24648  0  3.601731  0
N  N143  1  0.74112532  0.17094394  0.17856502  1  -1.27698  0  -0.338719  -0.246449  0  3.601802  0
N  N144  1  0.25887650  0.67094511  0.67856451  1  -1.277111  0  -0.338675  -0.246345  0  3.601725  0
N  N145  1  0.24112026  0.32905414  0.67856864  1  -1.277229  0  -0.338699  -0.246426  0  3.601681  0
N  N146  1  0.24112540  0.17094265  0.82143567  1  -1.27695  0  -0.338735  -0.246451  0  3.601715  0
N  N147  1  0.25887502  0.82905406  0.82143255  1  -1.277206  0  -0.338656  -0.246392  0  3.601637  0
O  O148  1  0.90299508  0.35438385  0.17075548  1  -1.168129  0  -0.342898  -0.56464  0  2.292227  0
O  O149  1  0.59700921  0.64561323  0.17075624  1  -1.168181  0  -0.342828  -0.56456  0  2.292273  0
O  O150  1  0.59701260  0.85438608  0.32924587  1  -1.168294  0  -0.342818  -0.56454  0  2.292278  0
O  O151  1  0.90298728  0.14561288  0.32924675  1  -1.168164  0  -0.342825  -0.564532  0  2.29229  0
O  O152  1  0.09700607  0.64561712  0.82924659  1  -1.168076  0  -0.342881  -0.564639  0  2.292345  0
O  O153  1  0.40298707  0.35438551  0.82924648  1  -1.168286  0  -0.342797  -0.564512  0  2.292291  0
O  O154  1  0.40298449  0.14561415  0.67075235  1  -1.168021  0  -0.342816  -0.564498  0  2.292166  0
O  O155  1  0.09701549  0.85438586  0.67075211  1  -1.16829  0  -0.34278  -0.564492  0  2.292236  0
O  O156  1  0.00773430  0.22556844  0.12938674  1  -1.164907  0  -0.32324  -0.550881  0  2.095841  0
O  O157  1  0.49226979  0.77442904  0.12938672  1  -1.164845  0  -0.3232  -0.55088  0  2.095862  0
O  O158  1  0.49226691  0.72557107  0.37060813  1  -1.165132  0  -0.323264  -0.550928  0  2.095899  0
O  O159  1  0.00772814  0.27443034  0.37061257  1  -1.164872  0  -0.323214  -0.550895  0  2.09592  0
O  O160  1  0.99226442  0.77443327  0.87061662  1  -1.164954  0  -0.323225  -0.550874  0  2.095824  0
O  O161  1  0.50773136  0.22556969  0.87060828  1  -1.16525  0  -0.323266  -0.550936  0  2.09593  0
O  O162  1  0.50772694  0.27443064  0.62938880  1  -1.164918  0  -0.323208  -0.550863  0  2.095983  0
O  O163  1  0.99226896  0.72557137  0.62939401  1  -1.165219  0  -0.323283  -0.550945  0  2.095898  0
