# generated using pymatgen
data_AgH5C4S2N2O3
_symmetry_space_group_name_H-M   'P 1'
_cell_length_a   7.80404117
_cell_length_b   10.25570128
_cell_length_c   10.67685479
_cell_angle_alpha   107.43623041
_cell_angle_beta   90.00006949
_cell_angle_gamma   90.00014738
_symmetry_Int_Tables_number   1
_chemical_formula_structural   AgH5C4S2N2O3
_chemical_formula_sum   'Ag4 H20 C16 S8 N8 O12'
_cell_volume   815.26699532
_cell_formula_units_Z   4
loop_
 _symmetry_equiv_pos_site_id
 _symmetry_equiv_pos_as_xyz
  1  'x, y, z'
loop_
 _atom_site_type_symbol
 _atom_site_label
 _atom_site_symmetry_multiplicity
 _atom_site_fract_x
 _atom_site_fract_y
 _atom_site_fract_z
 _atom_site_occupancy
 _atom_site_hle17_bader_spin_density
 _atom_site_hle17_ddec_charge
 _atom_site_hle17_ddec_spin_density
 _atom_site_hle17_ddec_sum_bond_order
 _atom_site_hle17_magmom
 _atom_site_hse06_10hf_bader_spin_density
 _atom_site_hse06_10hf_ddec_charge
 _atom_site_hse06_10hf_ddec_spin_density
 _atom_site_hse06_10hf_ddec_sum_bond_order
 _atom_site_hse06_10hf_magmom
 _atom_site_hse06_bader_spin_density
 _atom_site_hse06_ddec_charge
 _atom_site_hse06_ddec_spin_density
 _atom_site_hse06_ddec_sum_bond_order
 _atom_site_hse06_magmom
 _atom_site_pbe_bader_spin_density
 _atom_site_pbe_cm5_charge
 _atom_site_pbe_ddec_charge
 _atom_site_pbe_ddec_spin_density
 _atom_site_pbe_ddec_sum_bond_order
 _atom_site_pbe_magmom
Ag  Ag0  1  0.43214719  0.91555869  0.37461499  1  0  0.445753  0  1.587062  0  0  0.316371  0  2.064195  0  0  0.344201  0  2.013223  0  0  0.400175  0.296347  0  2.100497  0
Ag  Ag1  1  0.93214679  0.08444163  0.12538423  1  0  0.445741  0  1.587055  0  0  0.316355  0  2.064184  0  0  0.344189  0  2.013213  0  0  0.40018  0.296341  0  2.100467  0
Ag  Ag2  1  0.56785261  0.08444259  0.62538587  1  0  0.445738  0  1.587077  0  0  0.316364  0  2.064205  0  0  0.344196  0  2.013234  0  0  0.400179  0.296346  0  2.1005  0
Ag  Ag3  1  0.06785301  0.91555863  0.87461446  1  0  0.44577  0  1.587047  0  0  0.3164  0  2.064176  0  0  0.344231  0  2.013206  0  0  0.400192  0.296374  0  2.100482  0
H  H4  1  0.54840017  0.90605403  0.86276004  1  0  0.152746  0  0.951671  0  0  0.172605  0  1.007369  0  0  0.174349  0  1.00718  0  0  0.100527  0.171215  0  1.007817  0
H  H5  1  0.04840125  0.09394613  0.63724184  1  0  0.152766  0  0.951662  0  0  0.172627  0  1.007361  0  0  0.174371  0  1.00717  0  0  0.100532  0.171237  0  1.007812  0
H  H6  1  0.45160091  0.09394521  0.13724024  1  0  0.152752  0  0.951663  0  0  0.172611  0  1.007364  0  0  0.174355  0  1.007174  0  0  0.100528  0.17122  0  1.007812  0
H  H7  1  0.95159983  0.90605311  0.36276031  1  0  0.152763  0  0.951692  0  0  0.172625  0  1.007379  0  0  0.174368  0  1.00719  0  0  0.100542  0.171236  0  1.00783  0
H  H8  1  0.58892624  0.72893170  0.77823948  1  0  0.130168  0  0.960001  0  0  0.144791  0  1.025619  0  0  0.145594  0  1.028053  0  0  0.090998  0.144047  0  1.024352  0
H  H9  1  0.08892806  0.27106754  0.72175936  1  0  0.130178  0  0.959985  0  0  0.144805  0  1.025601  0  0  0.145607  0  1.028036  0  0  0.09102  0.144062  0  1.024335  0
H  H10  1  0.41107356  0.27106754  0.22175986  1  0  0.130162  0  0.959981  0  0  0.144806  0  1.025573  0  0  0.145608  0  1.028008  0  0  0.091012  0.144062  0  1.024307  0
H  H11  1  0.91107302  0.72893170  0.27823998  1  0  0.130176  0  0.960006  0  0  0.144805  0  1.025615  0  0  0.145607  0  1.028049  0  0  0.09101  0.144062  0  1.024349  0
H  H12  1  0.41468329  0.81697041  0.72725591  1  0  0.132626  0  0.977953  0  0  0.146411  0  1.047337  0  0  0.148221  0  1.046898  0  0  0.092106  0.145107  0  1.04759  0
H  H13  1  0.91468346  0.18302861  0.77274596  1  0  0.13263  0  0.977951  0  0  0.146417  0  1.047332  0  0  0.148226  0  1.046893  0  0  0.09209  0.145113  0  1.047586  0
H  H14  1  0.58531780  0.18302883  0.27274436  1  0  0.132606  0  0.97796  0  0  0.146387  0  1.047353  0  0  0.148197  0  1.046915  0  0  0.092083  0.145082  0  1.047607  0
H  H15  1  0.08531634  0.81696961  0.22725589  1  0  0.132629  0  0.977949  0  0  0.146419  0  1.04732  0  0  0.148229  0  1.04688  0  0  0.092099  0.145115  0  1.047574  0
H  H16  1  0.51619147  0.60879941  0.22638764  1  0  0.106218  0  0.979712  0  0  0.113413  0  1.046793  0  0  0.11602  0  1.044683  0  0  0.113674  0.11153  0  1.048396  0
H  H17  1  0.01619506  0.39120295  0.27361461  1  0  0.106227  0  0.979715  0  0  0.113428  0  1.046787  0  0  0.116035  0  1.044677  0  0  0.113657  0.111545  0  1.048391  0
H  H18  1  0.48380321  0.39120187  0.77361415  1  0  0.106212  0  0.9797  0  0  0.113388  0  1.046798  0  0  0.115995  0  1.044688  0  0  0.11364  0.111504  0  1.048398  0
H  H19  1  0.98380859  0.60879833  0.72638719  1  0  0.106199  0  0.979736  0  0  0.113405  0  1.046802  0  0  0.116012  0  1.044692  0  0  0.11366  0.111522  0  1.048405  0
H  H20  1  0.70139781  0.41922292  0.29311678  1  0  0.161791  0  0.967755  0  0  0.170763  0  1.024846  0  0  0.17399  0  1.023216  0  0  0.119023  0.168699  0  1.02564  0
H  H21  1  0.20139681  0.58078194  0.20688355  1  0  0.161737  0  0.967772  0  0  0.170753  0  1.024805  0  0  0.173982  0  1.023174  0  0  0.119026  0.168689  0  1.025598  0
H  H22  1  0.29859943  0.58077938  0.70688157  1  0  0.161772  0  0.96774  0  0  0.17079  0  1.024773  0  0  0.174018  0  1.023141  0  0  0.119045  0.168726  0  1.025565  0
H  H23  1  0.79860171  0.41922139  0.79311603  1  0  0.161755  0  0.967761  0  0  0.170777  0  1.024783  0  0  0.174006  0  1.023151  0  0  0.119042  0.168713  0  1.025576  0
C  C24  1  0.54407015  0.82634691  0.76802998  1  0  -0.326734  0  3.576604  0  0  -0.401718  0  3.825091  0  0  -0.403026  0  3.832149  0  0  -0.235671  -0.400704  0  3.820402  0
C  C25  1  0.04406909  0.17365323  0.73197095  1  0  -0.326789  0  3.576596  0  0  -0.401783  0  3.825096  0  0  -0.403093  0  3.832158  0  0  -0.235686  -0.400773  0  3.820414  0
C  C26  1  0.45593222  0.17365233  0.23197029  1  0  -0.326721  0  3.576583  0  0  -0.401727  0  3.825078  0  0  -0.403033  0  3.832132  0  0  -0.235661  -0.400714  0  3.820392  0
C  C27  1  0.95592943  0.82634601  0.26803026  1  0  -0.326794  0  3.576656  0  0  -0.401786  0  3.825147  0  0  -0.403095  0  3.832208  0  0  -0.2357  -0.400776  0  3.820466  0
C  C28  1  0.66948560  0.74577477  0.51787223  1  0  0.067971  0  3.720496  0  0  0.069076  0  4.002297  0  0  0.077151  0  4.023309  0  0  0.106122  0.064061  0  3.98712  0
C  C29  1  0.16948523  0.25422773  0.98212855  1  0  0.068043  0  3.720549  0  0  0.069149  0  4.002338  0  0  0.077224  0  4.023354  0  0  0.106152  0.064134  0  3.987153  0
C  C30  1  0.33051164  0.25422447  0.48212804  1  0  0.068009  0  3.72051  0  0  0.069119  0  4.002306  0  0  0.077193  0  4.023322  0  0  0.106147  0.064103  0  3.987128  0
C  C31  1  0.83051586  0.74577355  0.01787231  1  0  0.06802  0  3.720463  0  0  0.0691  0  4.002309  0  0  0.077171  0  4.023327  0  0  0.106148  0.064089  0  3.987115  0
C  C32  1  0.58465610  0.62206625  0.31789492  1  0  0.066902  0  3.729684  0  0  0.031091  0  3.994065  0  0  0.033803  0  4.014673  0  0  0.002115  0.029476  0  3.979889  0
C  C33  1  0.08465693  0.37793628  0.18210651  1  0  0.066809  0  3.729747  0  0  0.030981  0  3.994155  0  0  0.033695  0  4.014764  0  0  0.00209  0.029362  0  3.979981  0
C  C34  1  0.41534371  0.37793605  0.68210342  1  0  0.066845  0  3.72975  0  0  0.03105  0  3.994154  0  0  0.033762  0  4.014762  0  0  0.002106  0.029438  0  3.979972  0
C  C35  1  0.91534544  0.62206501  0.81789342  1  0  0.066872  0  3.729602  0  0  0.031049  0  3.994012  0  0  0.03376  0  4.014619  0  0  0.002082  0.029433  0  3.979833  0
C  C36  1  0.67827028  0.52428681  0.35102364  1  0  -0.197413  0  3.646279  0  0  -0.213392  0  3.920382  0  0  -0.216286  0  3.938512  0  0  -0.09116  -0.211809  0  3.909002  0
C  C37  1  0.17826754  0.47571697  0.14897635  1  0  -0.197309  0  3.646244  0  0  -0.213273  0  3.920257  0  0  -0.216168  0  3.938383  0  0  -0.091129  -0.21169  0  3.908874  0
C  C38  1  0.32173337  0.47571447  0.64897441  1  0  -0.197388  0  3.646301  0  0  -0.213381  0  3.920347  0  0  -0.216275  0  3.938473  0  0  -0.091169  -0.211797  0  3.908964  0
C  C39  1  0.82172970  0.52428431  0.85102357  1  0  -0.197368  0  3.646173  0  0  -0.213345  0  3.92021  0  0  -0.216239  0  3.938335  0  0  -0.091152  -0.211762  0  3.908826  0
S  S40  1  0.69239075  0.88223051  0.66312625  1  0  0.096267  0  2.787899  0  0  0.12634  0  3.217886  0  0  0.12172  0  3.207067  0  0  0.021227  0.129716  0  3.225088  0
S  S41  1  0.19239096  0.11777205  0.83687550  1  0  0.096276  0  2.787884  0  0  0.126353  0  3.217865  0  0  0.121729  0  3.207057  0  0  0.021223  0.129729  0  3.225063  0
S  S42  1  0.30760905  0.11776975  0.33687338  1  0  0.096277  0  2.787884  0  0  0.12635  0  3.217879  0  0  0.121727  0  3.207067  0  0  0.021229  0.129725  0  3.22508  0
S  S43  1  0.80761013  0.88222924  0.16312630  1  0  0.096289  0  2.787843  0  0  0.126372  0  3.217845  0  0  0.121751  0  3.20703  0  0  0.02123  0.129745  0  3.225041  0
S  S44  1  0.76421061  0.59046344  0.50396041  1  0  0.217992  0  2.670359  0  0  0.221865  0  3.009199  0  0  0.22077  0  3.016275  0  0  0.144475  0.220492  0  3.00631  0
S  S45  1  0.26420694  0.40954031  0.99603988  1  0  0.217887  0  2.670418  0  0  0.221743  0  3.009279  0  0  0.220648  0  3.016358  0  0  0.144409  0.22037  0  3.006382  0
S  S46  1  0.23579176  0.40953784  0.49603764  1  0  0.217931  0  2.670417  0  0  0.2218  0  3.009272  0  0  0.220705  0  3.016351  0  0  0.144439  0.220426  0  3.006381  0
S  S47  1  0.73579030  0.59046199  0.00396034  1  0  0.217949  0  2.670397  0  0  0.221819  0  3.009267  0  0  0.220724  0  3.016346  0  0  0.14445  0.220441  0  3.006371  0
N  N48  1  0.32875154  0.77989511  0.04436770  1  0  0.687634  0  4.147647  0  0  0.721604  0  4.435383  0  0  0.748066  0  4.442948  0  0  0.091053  0.702307  0  4.430017  0
N  N49  1  0.82875342  0.22010496  0.45563324  1  0  0.687653  0  4.147579  0  0  0.721644  0  4.435289  0  0  0.748104  0  4.442855  0  0  0.091071  0.702349  0  4.42993  0
N  N50  1  0.67124698  0.22010516  0.95563287  1  0  0.68767  0  4.147554  0  0  0.721647  0  4.435284  0  0  0.748107  0  4.442851  0  0  0.091058  0.702351  0  4.429921  0
N  N51  1  0.17124766  0.77989530  0.54436733  1  0  0.687644  0  4.147655  0  0  0.721626  0  4.435374  0  0  0.748085  0  4.442938  0  0  0.091049  0.702331  0  4.430016  0
N  N52  1  0.57976020  0.74715826  0.41251392  1  0  -0.29573  0  3.326415  0  0  -0.218174  0  3.599589  0  0  -0.23677  0  3.618542  0  0  -0.349727  -0.205059  0  3.586035  0
N  N53  1  0.07976046  0.25284426  0.08748749  1  0  -0.295685  0  3.326478  0  0  -0.21813  0  3.599646  0  0  -0.236725  0  3.618595  0  0  -0.349689  -0.205015  0  3.586091  0
N  N54  1  0.42023960  0.25284303  0.58748694  1  0  -0.295664  0  3.326405  0  0  -0.218114  0  3.599574  0  0  -0.236708  0  3.618526  0  0  -0.349681  -0.204999  0  3.586019  0
N  N55  1  0.92024063  0.74715805  0.91251366  1  0  -0.295719  0  3.326382  0  0  -0.218162  0  3.599565  0  0  -0.236758  0  3.618524  0  0  -0.349706  -0.205047  0  3.586003  0
O  O56  1  0.36676648  0.74438464  0.14608763  1  0  -0.499978  0  1.85545  0  0  -0.481749  0  2.109046  0  0  -0.498423  0  2.099741  0  0  -0.210032  -0.469101  0  2.115445  0
O  O57  1  0.86676576  0.25561757  0.35391396  1  0  -0.499973  0  1.855417  0  0  -0.481743  0  2.108993  0  0  -0.498419  0  2.099689  0  0  -0.210033  -0.469097  0  2.115393  0
O  O58  1  0.63323460  0.25561767  0.85391353  1  0  -0.499988  0  1.855401  0  0  -0.481768  0  2.108995  0  0  -0.498444  0  2.099693  0  0  -0.21003  -0.469121  0  2.115393  0
O  O59  1  0.13323405  0.74438474  0.64608720  1  0  -0.499968  0  1.855438  0  0  -0.481764  0  2.109066  0  0  -0.498438  0  2.099763  0  0  -0.210038  -0.469116  0  2.115466  0
O  O60  1  0.29434779  0.90470105  0.05761849  1  0  -0.499001  0  1.824172  0  0  -0.477248  0  2.068721  0  0  -0.494532  0  2.060121  0  0  -0.206548  -0.464703  0  2.075037  0
O  O61  1  0.79434667  0.09529893  0.44238145  1  0  -0.498996  0  1.824133  0  0  -0.477261  0  2.068695  0  0  -0.494537  0  2.060076  0  0  -0.206548  -0.464711  0  2.075004  0
O  O62  1  0.70565329  0.09529921  0.94238114  1  0  -0.499004  0  1.824155  0  0  -0.477243  0  2.06869  0  0  -0.494527  0  2.060091  0  0  -0.206544  -0.464705  0  2.075023  0
O  O63  1  0.20565185  0.90470134  0.55761818  1  0  -0.499017  0  1.824162  0  0  -0.477266  0  2.068706  0  0  -0.494546  0  2.060104  0  0  -0.206556  -0.46472  0  2.075027  0
O  O64  1  0.32400715  0.69168363  0.93363523  1  0  -0.4472  0  1.770684  0  0  -0.442063  0  1.994392  0  0  -0.454864  0  1.99017  0  0  -0.188368  -0.431641  0  1.996725  0
O  O65  1  0.82401125  0.30831619  0.56636585  1  0  -0.447222  0  1.770684  0  0  -0.442087  0  1.994377  0  0  -0.454881  0  1.990147  0  0  -0.188379  -0.431659  0  1.996699  0
O  O66  1  0.67598881  0.30831561  0.06636598  1  0  -0.447217  0  1.770675  0  0  -0.442073  0  1.99437  0  0  -0.454867  0  1.99014  0  0  -0.18837  -0.431641  0  1.996682  0
O  O67  1  0.17599368  0.69168408  0.43363565  1  0  -0.447174  0  1.770681  0  0  -0.442046  0  1.994391  0  0  -0.454844  0  1.990167  0  0  -0.188339  -0.431612  0  1.996704  0
