# generated using pymatgen
data_ZnH11C19NO4
_symmetry_space_group_name_H-M   'P 1'
_cell_length_a   8.39206205
_cell_length_b   10.75931778
_cell_length_c   10.75961699
_cell_angle_alpha   87.88962438
_cell_angle_beta   74.18918741
_cell_angle_gamma   74.19119005
_symmetry_Int_Tables_number   1
_chemical_formula_structural   ZnH11C19NO4
_chemical_formula_sum   'Zn2 H22 C38 N2 O8'
_cell_volume   898.67024693
_cell_formula_units_Z   2
loop_
 _symmetry_equiv_pos_site_id
 _symmetry_equiv_pos_as_xyz
  1  'x, y, z'
loop_
 _atom_site_type_symbol
 _atom_site_label
 _atom_site_symmetry_multiplicity
 _atom_site_fract_x
 _atom_site_fract_y
 _atom_site_fract_z
 _atom_site_occupancy
 _atom_site_pbe_bader_charge
 _atom_site_pbe_bader_spin_density
 _atom_site_pbe_cm5_charge
 _atom_site_pbe_ddec_charge
 _atom_site_pbe_ddec_spin_density
 _atom_site_pbe_ddec_sum_bond_order
 _atom_site_pbe_magmom
Zn  Zn0  1  0.74998562  0.01817228  0.98183691  1  1.326099  0  0.700589  0.918885  0  2.183776  0
Zn  Zn1  1  0.25000763  0.98183620  0.01816538  1  1.326125  0  0.700567  0.918892  0  2.183653  0
H  H2  1  0.56001013  0.57522456  0.01900335  1  0.111519  0  0.104131  0.106857  0  1.018174  0
H  H3  1  0.78555553  0.36604866  0.96330262  1  0.096796  0  0.107898  0.119859  0  1.007135  0
H  H4  1  0.12810352  0.56560428  0.71602668  1  0.053358  0  0.101015  0.101241  0  1.009127  0
H  H5  1  0.89409174  0.77027779  0.76466514  1  0.127203  0  0.103607  0.109221  0  1.023501  0
H  H6  1  0.01883385  0.23942122  0.98601298  1  0.160758  0  0.117704  0.098167  0  1.057155  0
H  H7  1  0.94000758  0.98100687  0.42475116  1  0.111017  0  0.104211  0.106912  0  1.018079  0
H  H8  1  0.71447769  0.03671097  0.63394000  1  0.09657  0  0.107966  0.119791  0  1.007066  0
H  H9  1  0.37189378  0.28397085  0.43440640  1  0.05342  0  0.100968  0.101169  0  1.009165  0
H  H10  1  0.60589377  0.23533333  0.22972384  1  0.127186  0  0.10361  0.109261  0  1.02362  0
H  H11  1  0.48119007  0.01399179  0.76058047  1  0.16105  0  0.117756  0.098211  0  1.05731  0
H  H12  1  0.43999933  0.42477464  0.98099867  1  0.111629  0  0.104195  0.10703  0  1.018163  0
H  H13  1  0.21445490  0.63395460  0.03670355  1  0.096585  0  0.107929  0.119898  0  1.007114  0
H  H14  1  0.87190234  0.43440629  0.28396700  1  0.05351  0  0.101025  0.101226  0  1.009178  0
H  H15  1  0.10589971  0.22972850  0.23533121  1  0.127296  0  0.103622  0.109255  0  1.023537  0
H  H16  1  0.98116918  0.76059192  0.01400441  1  0.160704  0  0.117679  0.098129  0  1.057285  0
H  H17  1  0.06000309  0.01899799  0.57524275  1  0.111049  0  0.104181  0.106888  0  1.018274  0
H  H18  1  0.28553591  0.96329312  0.36605795  1  0.096512  0  0.107908  0.119807  0  1.007163  0
H  H19  1  0.62809305  0.71600707  0.56559394  1  0.053535  0  0.101018  0.101224  0  1.009033  0
H  H20  1  0.39409792  0.76466043  0.77027799  1  0.127229  0  0.103585  0.109205  0  1.023448  0
H  H21  1  0.51879964  0.98599823  0.23942952  1  0.161031  0  0.117704  0.09812  0  1.057088  0
H  H22  1  0.25001669  0.38036934  0.61964550  1  0.060152  0  0.109292  0.106759  0  1.011613  0
H  H23  1  0.74999048  0.61961997  0.38035496  1  0.060001  0  0.109319  0.106809  0  1.011547  0
C  C24  1  0.57957757  0.81209400  0.92809195  1  1.548018  0  0.206457  0.563711  0  4.221251  0
C  C25  1  0.71286262  0.68496834  0.89463330  1  0.014327  0  -0.023649  -0.046685  0  3.992876  0
C  C26  1  0.68419384  0.57071960  0.95070461  1  -0.13531  0  -0.082159  -0.085366  0  3.972098  0
C  C27  1  0.81253242  0.45426479  0.92067511  1  -0.002161  0  -0.085446  -0.128837  0  3.941387  0
C  C28  1  0.97464459  0.44992804  0.83524097  1  0.028076  0  -0.002349  0.076064  0  3.996113  0
C  C29  1  0.00227602  0.56528599  0.77940131  1  -0.06394  0  -0.091094  -0.133633  0  3.979985  0
C  C30  1  0.87281718  0.68077586  0.80741689  1  -0.117529  0  -0.08681  -0.090799  0  3.983626  0
C  C31  1  0.12044516  0.23118265  0.89650993  1  0.483599  0  0.052418  0.051554  0  3.876972  0
C  C32  1  0.11514359  0.32867300  0.80663288  1  -0.011168  0  -1.5e-05  0.036  0  3.994965  0
C  C33  1  0.92041653  0.07191543  0.18789108  1  1.547828  0  0.206268  0.563594  0  4.221405  0
C  C34  1  0.78712404  0.10537350  0.31501807  1  0.014563  0  -0.023637  -0.046795  0  3.992817  0
C  C35  1  0.81581810  0.04930092  0.42926340  1  -0.135099  0  -0.082202  -0.085303  0  3.97162  0
C  C36  1  0.68748639  0.07933107  0.54572127  1  -0.001686  0  -0.085585  -0.128816  0  3.941299  0
C  C37  1  0.52536652  0.16476072  0.55007370  1  0.028485  0  -0.002408  0.075965  0  3.995743  0
C  C38  1  0.49773001  0.22060193  0.43470635  1  -0.064377  0  -0.09091  -0.133391  0  3.979393  0
C  C39  1  0.62717975  0.19257350  0.31920705  1  -0.117349  0  -0.086869  -0.090893  0  3.983996  0
C  C40  1  0.37957888  0.10349401  0.76882053  1  0.484365  0  0.052257  0.05133  0  3.877651  0
C  C41  1  0.38486973  0.19337532  0.67133256  1  -0.012271  0  -7.5e-05  0.035961  0  3.995074  0
C  C42  1  0.42042506  0.18791279  0.07190924  1  1.548092  0  0.206404  0.563562  0  4.221287  0
C  C43  1  0.28713304  0.31503730  0.10536957  1  0.01482  0  -0.023656  -0.046627  0  3.992723  0
C  C44  1  0.31581808  0.42928250  0.04929386  1  -0.135729  0  -0.08217  -0.08553  0  3.972068  0
C  C45  1  0.18748074  0.54573738  0.07932400  1  -0.00204  0  -0.085549  -0.128929  0  3.941375  0
C  C46  1  0.02536501  0.55007707  0.16476246  1  0.028065  0  -0.002348  0.07608  0  3.996184  0
C  C47  1  0.99772976  0.43471878  0.22059465  1  -0.063974  0  -0.091128  -0.133621  0  3.98026  0
C  C48  1  0.12717744  0.31922844  0.19257515  1  -0.117511  0  -0.08681  -0.09085  0  3.983765  0
C  C49  1  0.87955390  0.76882424  0.10349858  1  0.48405  0  0.052411  0.051555  0  3.877339  0
C  C50  1  0.88485823  0.67133285  0.19337043  1  -0.01147  0  6e-06  0.035943  0  3.994898  0
C  C51  1  0.07957849  0.92808791  0.81210094  1  1.547587  0  0.206258  0.563541  0  4.22136  0
C  C52  1  0.21287448  0.89462399  0.68497077  1  0.014451  0  -0.023614  -0.046789  0  3.992824  0
C  C53  1  0.18417777  0.95070063  0.57073320  1  -0.134951  0  -0.082172  -0.085298  0  3.971994  0
C  C54  1  0.31251019  0.92066559  0.45427459  1  -0.001792  0  -0.085522  -0.128861  0  3.941213  0
C  C55  1  0.47463390  0.83522051  0.44992516  1  0.028355  0  -0.002383  0.076011  0  3.996195  0
C  C56  1  0.50225007  0.77939222  0.56528787  1  -0.064537  0  -0.09098  -0.133587  0  3.979803  0
C  C57  1  0.37280920  0.80741687  0.68078262  1  -0.117324  0  -0.086876  -0.090739  0  3.983819  0
C  C58  1  0.62041890  0.89648849  0.23119093  1  0.484519  0  0.052177  0.051323  0  3.877017  0
C  C59  1  0.61511185  0.80661930  0.32867617  1  -0.012446  0  4e-05  0.03615  0  3.99515  0
C  C60  1  0.25000949  0.30737362  0.69263735  1  -0.027427  0  -0.061734  -0.124123  0  3.893989  0
C  C61  1  0.74998476  0.69262037  0.30736946  1  -0.027302  0  -0.061782  -0.124202  0  3.89351  0
N  N62  1  0.25001700  0.12181812  0.87818472  1  -1.253734  0  -0.324066  -0.235735  0  3.59149  0
N  N63  1  0.74999245  0.87818390  0.12181339  1  -1.25367  0  -0.323988  -0.235619  0  3.590954  0
O  O64  1  0.42887444  0.81189041  0.99827382  1  -1.151199  0  -0.313366  -0.524997  0  2.283453  0
O  O65  1  0.62101346  0.91349317  0.88456135  1  -1.194973  0  -0.320291  -0.585151  0  2.361058  0
O  O66  1  0.07113566  0.00172989  0.18810288  1  -1.150951  0  -0.313399  -0.5251  0  2.283271  0
O  O67  1  0.87898690  0.11543498  0.08650532  1  -1.195206  0  -0.320075  -0.5849  0  2.361516  0
O  O68  1  0.57113632  0.18811744  0.00172172  1  -1.151423  0  -0.31339  -0.525013  0  2.283404  0
O  O69  1  0.37900186  0.08651584  0.11543585  1  -1.19523  0  -0.320216  -0.585022  0  2.361195  0
O  O70  1  0.92886056  0.99826779  0.81189484  1  -1.151116  0  -0.313342  -0.524992  0  2.283336  0
O  O71  1  0.12099687  0.88457221  0.91349644  1  -1.194641  0  -0.320113  -0.584953  0  2.361404  0
