# generated using pymatgen
data_Zr3H16C20(N3O8)2
_symmetry_space_group_name_H-M   'P 1'
_cell_length_a   15.88730856
_cell_length_b   15.90614805
_cell_length_c   34.39267780
_cell_angle_alpha   89.70622132
_cell_angle_beta   90.06084339
_cell_angle_gamma   89.80949865
_symmetry_Int_Tables_number   1
_chemical_formula_structural   Zr3H16C20(N3O8)2
_chemical_formula_sum   'Zr12 H64 C80 N24 O64'
_cell_volume   8691.06463418
_cell_formula_units_Z   4
loop_
 _symmetry_equiv_pos_site_id
 _symmetry_equiv_pos_as_xyz
  1  'x, y, z'
loop_
 _atom_site_type_symbol
 _atom_site_label
 _atom_site_symmetry_multiplicity
 _atom_site_fract_x
 _atom_site_fract_y
 _atom_site_fract_z
 _atom_site_occupancy
 _atom_site_pbe_bader_charge
 _atom_site_pbe_bader_spin_density
 _atom_site_pbe_cm5_charge
 _atom_site_pbe_ddec_charge
 _atom_site_pbe_ddec_spin_density
 _atom_site_pbe_ddec_sum_bond_order
 _atom_site_pbe_magmom
Zr  Zr0  1  0.90365302  0.94586968  0.45275481  1  2.605719  0  1.571803  2.359777  0  2.818275  0
Zr  Zr1  1  0.91176883  0.94973252  0.55551664  1  2.624125  0  1.585819  2.380064  0  2.772616  0
Zr  Zr2  1  0.06079784  0.10026277  0.44695694  1  2.609788  0  1.559663  2.355524  0  2.862614  0
Zr  Zr3  1  0.06705445  0.10951255  0.55115624  1  2.614  0  1.562767  2.367153  0  2.823962  0
Zr  Zr4  1  0.87377747  0.13869129  0.50101921  1  2.611608  0  1.588932  2.360644  0  2.70277  0
Zr  Zr5  1  0.09807028  0.91352924  0.50117803  1  2.632267  0  1.598389  2.361379  0  2.720071  0
Zr  Zr6  1  0.41192356  0.60131493  0.95193758  1  2.618072  0  1.575235  2.364059  0  2.807725  0
Zr  Zr7  1  0.41814049  0.59482052  0.05479639  1  2.625394  0  1.588728  2.385726  0  2.757949  0
Zr  Zr8  1  0.56734160  0.44179276  0.94504522  1  2.61592  0  1.566303  2.367209  0  2.829376  0
Zr  Zr9  1  0.57626078  0.43790103  0.04931246  1  2.621083  0  1.580687  2.372901  0  2.774656  0
Zr  Zr10  1  0.60536452  0.63038094  0.99982965  1  2.617054  0  1.590821  2.358372  0  2.70599  0
Zr  Zr11  1  0.38073639  0.40843461  0.00085466  1  2.62934  0  1.600126  2.36166  0  2.716183  0
H  H12  1  0.94215886  0.81283068  0.50181441  1  0.637317  0  0.333169  0.432243  0  0.838817  0
H  H13  1  0.90038553  0.11637667  0.58288810  1  0.601135  0  0.329778  0.423648  0  0.858416  0
H  H14  1  0.19613022  0.07950010  0.50114443  1  0.626581  0  0.325715  0.431077  0  0.852956  0
H  H15  1  0.90373526  0.10716666  0.41548618  1  0.624732  0  0.329781  0.437249  0  0.844219  0
H  H16  1  0.87943842  0.98633072  0.63128423  1  0.585191  0  0.300295  0.392065  0  0.907104  0
H  H17  1  0.99709308  0.03572115  0.61910913  1  0.641265  0  0.282071  0.402786  0  0.938148  0
H  H18  1  0.15672541  0.24732928  0.55272628  1  0.595204  0  0.291389  0.397075  0  0.903178  0
H  H19  1  0.20759871  0.17940732  0.42361570  1  0.650354  0  0.33477  0.416813  0  0.868353  0
H  H20  1  0.07971914  0.06955567  0.37212489  1  0.575411  0  0.287693  0.393696  0  0.907417  0
H  H21  1  0.84012795  0.94755008  0.37489750  1  0.62402  0  0.338819  0.421232  0  0.862157  0
H  H22  1  0.75993072  0.86073113  0.45356459  1  0.593825  0  0.292337  0.383446  0  0.922995  0
H  H23  1  0.80493887  0.84909295  0.50922899  1  0.645252  0  0.280979  0.403642  0  0.938529  0
H  H24  1  0.13757194  0.24744460  0.43331385  1  0.641807  0  0.32811  0.415548  0  0.883505  0
H  H25  1  0.92090608  0.88847613  0.37898108  1  0.654266  0  0.328771  0.417208  0  0.882647  0
H  H26  1  0.75646973  0.87679867  0.54909600  1  0.635077  0  0.321935  0.407879  0  0.883958  0
H  H27  1  0.09581680  0.05680674  0.62524929  1  0.651147  0  0.324797  0.414159  0  0.878835  0
H  H28  1  0.28065042  0.56174080  0.00086470  1  0.58913  0  0.328131  0.419917  0  0.862021  0
H  H29  1  0.58567695  0.60231659  0.08191375  1  0.616073  0  0.330396  0.423776  0  0.857876  0
H  H30  1  0.53406304  0.30685950  0.99964622  1  0.607321  0  0.332135  0.429545  0  0.843081  0
H  H31  1  0.57200364  0.60263110  0.91469406  1  0.635761  0  0.330042  0.436573  0  0.844882  0
H  H32  1  0.45494963  0.62079571  0.13070151  1  0.596607  0  0.300024  0.390529  0  0.909587  0
H  H33  1  0.50434087  0.50591334  0.11771338  1  0.637638  0  0.280124  0.404194  0  0.938211  0
H  H34  1  0.71934839  0.35122099  0.04646614  1  0.60023  0  0.296462  0.388156  0  0.915208  0
H  H35  1  0.67251387  0.33980108  0.99121009  1  0.634551  0  0.279596  0.403246  0  0.939805  0
H  H36  1  0.53696028  0.42094216  0.87063343  1  0.594954  0  0.291832  0.397359  0  0.902232  0
H  H37  1  0.41219634  0.66943756  0.87527139  1  0.612598  0  0.339117  0.422946  0  0.861558  0
H  H38  1  0.32686309  0.74577413  0.95451120  1  0.599448  0  0.294837  0.388728  0  0.915292  0
H  H39  1  0.31458486  0.70011727  0.00855336  1  0.630369  0  0.279487  0.404964  0  0.937517  0
H  H40  1  0.71930377  0.36565928  0.95050188  1  0.634021  0  0.322078  0.408177  0  0.886603  0
H  H41  1  0.35282699  0.58899167  0.87729826  1  0.64511  0  0.332534  0.421165  0  0.874307  0
H  H42  1  0.26465574  0.68590299  0.04994780  1  0.611641  0  0.326468  0.40816  0  0.876017  0
H  H43  1  0.52731606  0.40717562  0.12432091  1  0.612142  0  0.322644  0.41141  0  0.879796  0
H  H44  1  0.40713218  0.14440647  0.93507803  1  0.124452  0  0.11774  0.137238  0  0.975381  0
H  H45  1  0.50948268  0.22871644  0.86925429  1  0.135495  0  0.121243  0.134034  0  0.973388  0
H  H46  1  0.55964126  0.90678886  0.93905833  1  0.118685  0  0.122088  0.14418  0  0.966273  0
H  H47  1  0.46480087  0.81959708  0.87198921  1  0.076855  0  0.109312  0.112142  0  0.997794  0
H  H48  1  0.87919720  0.58822569  0.06297538  1  0.127888  0  0.117649  0.137746  0  0.975366  0
H  H49  1  0.78968509  0.49073748  0.12897600  1  0.131628  0  0.119819  0.134971  0  0.971466  0
H  H50  1  0.11563054  0.44230904  0.06707127  1  0.134239  0  0.117637  0.138553  0  0.974964  0
H  H51  1  0.19968028  0.54493788  0.13252000  1  0.135158  0  0.121241  0.136514  0  0.969758  0
H  H52  1  0.87650749  0.59658694  0.93781297  1  0.117604  0  0.1174  0.13778  0  0.974901  0
H  H53  1  0.78771619  0.49594403  0.87299371  1  0.142021  0  0.122394  0.139479  0  0.969013  0
H  H54  1  0.11374129  0.44617596  0.93542199  1  0.134639  0  0.118725  0.140262  0  0.972312  0
H  H55  1  0.19774403  0.54220897  0.86754222  1  0.073419  0  0.112614  0.116671  0  0.990691  0
H  H56  1  0.52205149  0.22229879  0.13108909  1  0.120488  0  0.117649  0.12753  0  0.979125  0
H  H57  1  0.41598337  0.14202463  0.06575943  1  0.110844  0  0.118633  0.138849  0  0.972883  0
H  H58  1  0.56730549  0.89922615  0.06292388  1  0.123295  0  0.119701  0.140164  0  0.970597  0
H  H59  1  0.46668383  0.81383406  0.12898632  1  0.121336  0  0.11637  0.126153  0  0.982833  0
H  H60  1  0.96085495  0.73232354  0.63159238  1  0.124633  0  0.123107  0.138256  0  0.968164  0
H  H61  1  0.06520290  0.64859886  0.56651335  1  0.124216  0  0.116912  0.136792  0  0.976469  0
H  H62  1  0.90843984  0.41110632  0.56330473  1  0.065948  0  0.117692  0.138193  0  0.97412  0
H  H63  1  0.01295755  0.32261698  0.62750581  1  0.118783  0  0.121239  0.136447  0  0.970766  0
H  H64  1  0.96924092  0.73244503  0.36723172  1  0.106541  0  0.112313  0.116909  0  0.990176  0
H  H65  1  0.05932190  0.64758052  0.43686204  1  0.10779  0  0.119954  0.140563  0  0.970519  0
H  H66  1  0.91074633  0.41238450  0.43950974  1  0.103291  0  0.120156  0.140883  0  0.970246  0
H  H67  1  0.00946886  0.32216690  0.37433587  1  0.124561  0  0.119263  0.133583  0  0.977717  0
H  H68  1  0.36268190  0.94279188  0.56612126  1  0.124636  0  0.116352  0.135071  0  0.977069  0
H  H69  1  0.27865651  0.04537181  0.63162316  1  0.115524  0  0.119533  0.129973  0  0.978088  0
H  H70  1  0.68856162  0.99688344  0.62969038  1  0.099028  0  0.115748  0.124758  0  0.982425  0
H  H71  1  0.60202682  0.09805506  0.56378399  1  0.110678  0  0.11952  0.142073  0  0.970856  0
H  H72  1  0.27804670  0.03922739  0.36712056  1  0.137633  0  0.116447  0.128086  0  0.981652  0
H  H73  1  0.36397245  0.94681951  0.43587647  1  0.123529  0  0.119403  0.139708  0  0.971211  0
H  H74  1  0.68866003  0.00163070  0.37195511  1  0.084092  0  0.109577  0.113319  0  0.996993  0
H  H75  1  0.59770494  0.09395560  0.43876807  1  0.087259  0  0.12111  0.142382  0  0.969762  0
C  C76  1  0.73389562  0.06064364  0.44045889  1  1.567735  0  0.230058  0.676182  0  4.11871  0
C  C77  1  0.02964899  0.78353039  0.56588080  1  1.565088  0  0.23206  0.675566  0  4.119865  0
C  C78  1  0.73751237  0.06245567  0.56298572  1  1.572566  0  0.228489  0.673245  0  4.122573  0
C  C79  1  0.02886015  0.78336801  0.43574315  1  1.580195  0  0.231228  0.677426  0  4.115215  0
C  C80  1  0.22796008  0.97946703  0.43523942  1  1.565063  0  0.228867  0.673577  0  4.127866  0
C  C81  1  0.94748393  0.27664336  0.56074727  1  1.581177  0  0.230737  0.673709  0  4.11714  0
C  C82  1  0.22741808  0.97770873  0.56581125  1  1.562449  0  0.230288  0.674254  0  4.124457  0
C  C83  1  0.94769358  0.27698272  0.44176448  1  1.571939  0  0.234311  0.678372  0  4.111589  0
C  C84  1  0.98549711  0.45568858  0.36846927  1  1.049633  0  0.256663  0.424888  0  4.019214  0
C  C85  1  0.98839292  0.52355380  0.31039454  1  1.13523  0  0.266619  0.444738  0  4.099525  0
C  C86  1  0.98970718  0.59824520  0.36627662  1  1.128949  0  0.256237  0.422386  0  4.023741  0
C  C87  1  0.41257757  0.01764422  0.36523651  1  1.043735  0  0.256446  0.423246  0  4.025692  0
C  C88  1  0.48723375  0.01713543  0.30914003  1  1.21621  0  0.26731  0.447368  0  4.095239  0
C  C89  1  0.55514970  0.02249903  0.36702751  1  1.054446  0  0.254721  0.421501  0  4.029888  0
C  C90  1  0.41246054  0.02014279  0.63492446  1  1.047603  0  0.25956  0.423472  0  4.017568  0
C  C91  1  0.48561426  0.02130823  0.69148529  1  1.135208  0  0.266966  0.442963  0  4.100958  0
C  C92  1  0.55520664  0.02224566  0.63410015  1  1.044613  0  0.256086  0.420273  0  4.024046  0
C  C93  1  0.98529181  0.45549173  0.63332791  1  1.079261  0  0.256938  0.422995  0  4.019599  0
C  C94  1  0.98639534  0.59817327  0.63478977  1  1.026055  0  0.257383  0.420987  0  4.023079  0
C  C95  1  0.98612409  0.52351239  0.69101159  1  1.245244  0  0.266326  0.44172  0  4.099555  0
C  C96  1  0.49278429  0.94672710  0.13330079  1  1.052059  0  0.256511  0.422171  0  4.019919  0
C  C97  1  0.49380488  0.08936115  0.13421649  1  0.999151  0  0.257909  0.421095  0  4.022429  0
C  C98  1  0.49213632  0.01575149  0.19073818  1  1.243551  0  0.265941  0.442071  0  4.098742  0
C  C99  1  0.52550788  0.77129066  0.94004587  1  1.557396  0  0.230951  0.679309  0  4.11631  0
C  C100  1  0.25011557  0.47926497  0.06583248  1  1.571396  0  0.228703  0.672456  0  4.120953  0
C  C101  1  0.53251060  0.76402174  0.06283051  1  1.556464  0  0.231845  0.678833  0  4.111016  0
C  C102  1  0.24910930  0.47815558  0.93546883  1  1.553468  0  0.230819  0.678813  0  4.11275  0
C  C103  1  0.44314557  0.27908107  0.93532943  1  1.555774  0  0.230269  0.674919  0  4.125863  0
C  C104  1  0.74443993  0.55146945  0.06024424  1  1.575178  0  0.230014  0.673085  0  4.117394  0
C  C105  1  0.45225146  0.27628932  0.06529709  1  1.586889  0  0.230943  0.675284  0  4.123376  0
C  C106  1  0.74161183  0.55842298  0.94003864  1  1.57069  0  0.231207  0.673261  0  4.121014  0
C  C107  1  0.92287286  0.51788942  0.13430605  1  1.03102  0  0.256552  0.422663  0  4.024669  0
C  C108  1  0.99180207  0.51964138  0.19199296  1  1.177823  0  0.266506  0.443227  0  4.096097  0
C  C109  1  0.06579341  0.51854896  0.13576063  1  1.123655  0  0.256124  0.422426  0  4.024332  0
C  C110  1  0.48777080  0.95260960  0.86754392  1  1.054511  0  0.255483  0.421728  0  4.030389  0
C  C111  1  0.48457265  0.09508039  0.86616339  1  1.129566  0  0.258916  0.423421  0  4.023034  0
C  C112  1  0.48637822  0.02181934  0.80986471  1  1.188751  0  0.266935  0.445418  0  4.0961  0
C  C113  1  0.92099198  0.52215738  0.86728543  1  1.053205  0  0.257919  0.424369  0  4.017387  0
C  C114  1  0.06373280  0.51983179  0.86561288  1  1.008745  0  0.255035  0.41796  0  4.029701  0
C  C115  1  0.98928327  0.52166950  0.80944073  1  1.201479  0  0.267407  0.445918  0  4.092085  0
C  C116  1  0.44125764  0.19267632  0.91896188  1  0.005754  0  -0.070808  -0.181634  0  3.842402  0
C  C117  1  0.48052834  0.17689647  0.88521381  1  -0.099841  0  -0.061369  -0.120723  0  3.906281  0
C  C118  1  0.52711864  0.85765703  0.92298659  1  0.052728  0  -0.067815  -0.175842  0  3.831251  0
C  C119  1  0.49129155  0.87204768  0.88818370  1  -0.068552  0  -0.070245  -0.131692  0  3.933582  0
C  C120  1  0.82960328  0.55452188  0.07838468  1  -0.093107  0  -0.070206  -0.17849  0  3.845124  0
C  C121  1  0.84253318  0.51880436  0.11339882  1  -0.002842  0  -0.067188  -0.133601  0  3.91066  0
C  C122  1  0.16390132  0.47711085  0.08275000  1  -0.015381  0  -0.072939  -0.186073  0  3.851602  0
C  C123  1  0.14798831  0.51594603  0.11657085  1  -0.101556  0  -0.064508  -0.12763  0  3.905837  0
C  C124  1  0.82749396  0.56184086  0.92260477  1  -0.035847  0  -0.071054  -0.181446  0  3.845147  0
C  C125  1  0.84077692  0.52450483  0.88816473  1  -0.044355  0  -0.065647  -0.134478  0  3.908971  0
C  C126  1  0.16264029  0.47811150  0.91878055  1  -0.061606  0  -0.07241  -0.187091  0  3.846954  0
C  C127  1  0.14628323  0.51551722  0.88450427  1  0.013875  0  -0.063756  -0.116547  0  3.916921  0
C  C128  1  0.49162255  0.17174950  0.11506350  1  -0.02389  0  -0.063348  -0.121601  0  3.909402  0
C  C129  1  0.45131178  0.18944166  0.08166843  1  -0.057559  0  -0.069915  -0.179803  0  3.84254  0
C  C130  1  0.53338903  0.85078358  0.07901456  1  0.006159  0  -0.068579  -0.176569  0  3.831245  0
C  C131  1  0.49535571  0.86597941  0.11315252  1  -0.037729  0  -0.064347  -0.125642  0  3.912187  0
C  C132  1  0.98736716  0.52177268  0.76791923  1  -0.019777  0  0.00304  -0.074871  0  3.930907  0
C  C133  1  0.98664515  0.52178359  0.73257758  1  -0.231331  0  0.006996  -0.064348  0  3.924704  0
C  C134  1  0.48648899  0.02082001  0.76835345  1  -0.042263  0  0.004666  -0.071212  0  3.929  0
C  C135  1  0.48649066  0.02102761  0.73301900  1  -0.067496  0  0.005782  -0.067216  0  3.927586  0
C  C136  1  0.48943549  0.01536937  0.26763886  1  -0.00303  0  0.002154  -0.075941  0  3.930653  0
C  C137  1  0.49078258  0.01472482  0.23230414  1  -0.248071  0  0.006519  -0.06464  0  3.92486  0
C  C138  1  0.99016081  0.52058423  0.23353848  1  -0.042145  0  0.004509  -0.069867  0  3.927878  0
C  C139  1  0.98920688  0.52143780  0.26886725  1  -0.067109  0  0.004023  -0.070754  0  3.928522  0
C  C140  1  0.99008259  0.68059103  0.61576413  1  -0.02743  0  -0.060027  -0.118865  0  3.896283  0
C  C141  1  0.03045040  0.69683048  0.58228078  1  -0.00914  0  -0.071839  -0.185317  0  3.848412  0
C  C142  1  0.94413672  0.36207652  0.57834430  1  0.03045  0  -0.071515  -0.18141  0  3.841391  0
C  C143  1  0.98292065  0.37544558  0.61250791  1  -0.046162  0  -0.064649  -0.129129  0  3.905712  0
C  C144  1  0.99405584  0.68073737  0.38481035  1  -0.002007  0  -0.06588  -0.12362  0  3.920962  0
C  C145  1  0.02917061  0.69676049  0.41949812  1  -0.065289  0  -0.06916  -0.178301  0  3.838742  0
C  C146  1  0.94492806  0.36295509  0.42425375  1  -0.016967  0  -0.067837  -0.175165  0  3.837333  0
C  C147  1  0.98201401  0.37569139  0.38961322  1  -0.023894  0  -0.068953  -0.141694  0  3.920735  0
C  C148  1  0.31420173  0.97656875  0.58222077  1  -0.084338  0  -0.06996  -0.179419  0  3.841632  0
C  C149  1  0.33042513  0.01625904  0.61574356  1  0.045116  0  -0.062466  -0.120556  0  3.908291  0
C  C150  1  0.63614426  0.02542778  0.61382786  1  -0.057177  0  -0.066646  -0.125931  0  3.918245  0
C  C151  1  0.65084969  0.06362977  0.57957882  1  -0.020283  0  -0.073167  -0.187142  0  3.847079  0
C  C152  1  0.33030790  0.01376346  0.38416865  1  -0.027563  0  -0.070521  -0.139597  0  3.92945  0
C  C153  1  0.31485503  0.97809804  0.41891109  1  -0.057621  0  -0.068987  -0.174559  0  3.839183  0
C  C154  1  0.63519863  0.02727928  0.38791032  1  0.01309  0  -0.071514  -0.134446  0  3.935636  0
C  C155  1  0.64797200  0.06244325  0.42285180  1  -0.024065  0  -0.06727  -0.172882  0  3.832867  0
N  N156  1  0.98890464  0.44944684  0.32934475  1  -1.167574  0  -0.30514  -0.405948  0  3.098964  0
N  N157  1  0.98743326  0.59988762  0.32704950  1  -1.187075  0  -0.309161  -0.413587  0  3.107949  0
N  N158  1  0.98720778  0.52830856  0.38844517  1  -1.137135  0  -0.305392  -0.410529  0  3.127303  0
N  N159  1  0.41091177  0.01848865  0.32599903  1  -1.13615  0  -0.306076  -0.407243  0  3.101008  0
N  N160  1  0.56151293  0.01754702  0.32795625  1  -1.131591  0  -0.309067  -0.413388  0  3.106314  0
N  N161  1  0.48265728  0.02126840  0.38721581  1  -1.155979  0  -0.306057  -0.409543  0  3.131497  0
N  N162  1  0.40983287  0.02347984  0.67411953  1  -1.130402  0  -0.304692  -0.405432  0  3.1036  0
N  N163  1  0.56042159  0.01925878  0.67325936  1  -1.112565  0  -0.306965  -0.408709  0  3.103323  0
N  N164  1  0.48329993  0.02098009  0.61340720  1  -1.148066  0  -0.305078  -0.408215  0  3.12441  0
N  N165  1  0.98567384  0.52807374  0.61298731  1  -1.171823  0  -0.305516  -0.411006  0  3.129733  0
N  N166  1  0.98332355  0.59974649  0.67398817  1  -1.126925  0  -0.304871  -0.405872  0  3.103713  0
N  N167  1  0.98874654  0.44933867  0.67248530  1  -1.162638  0  -0.305832  -0.407655  0  3.100341  0
N  N168  1  0.49350255  0.01891787  0.11267129  1  -1.135218  0  -0.303099  -0.405846  0  3.123097  0
N  N169  1  0.49669258  0.09155678  0.17342985  1  -1.111067  0  -0.306052  -0.407417  0  3.105256  0
N  N170  1  0.48861971  0.94135804  0.17247622  1  -1.163508  0  -0.307036  -0.410229  0  3.105066  0
N  N171  1  0.91733218  0.51580054  0.17347311  1  -1.095551  0  -0.305653  -0.406806  0  3.100939  0
N  N172  1  0.06787320  0.52266721  0.17493471  1  -1.19587  0  -0.30517  -0.40616  0  3.100613  0
N  N173  1  0.99530459  0.51773380  0.11398273  1  -1.175168  0  -0.306707  -0.413436  0  3.136091  0
N  N174  1  0.48602498  0.02448363  0.88796489  1  -1.181465  0  -0.305127  -0.408573  0  3.129659  0
N  N175  1  0.48784501  0.09758130  0.82696899  1  -1.208567  0  -0.303851  -0.404373  0  3.100266  0
N  N176  1  0.48482218  0.94717104  0.82841167  1  -1.106855  0  -0.309035  -0.413329  0  3.105915  0
N  N177  1  0.99364292  0.52070401  0.88755131  1  -1.143383  0  -0.30629  -0.411195  0  3.13157  0
N  N178  1  0.06561989  0.52339165  0.82642903  1  -1.12596  0  -0.30824  -0.411501  0  3.105765  0
N  N179  1  0.91506028  0.51969666  0.82814182  1  -1.090948  0  -0.303324  -0.402316  0  3.09344  0
O  O180  1  0.77907890  0.99701394  0.43089809  1  -1.202179  0  -0.367241  -0.667398  0  2.334615  0
O  O181  1  0.75549952  0.11956601  0.46303884  1  -1.167248  0  -0.33614  -0.596019  0  2.209431  0
O  O182  1  0.96956758  0.83093697  0.57678591  1  -1.176038  0  -0.354848  -0.613977  0  2.300842  0
O  O183  1  0.08724055  0.80324646  0.54150032  1  -1.166693  0  -0.356982  -0.620789  0  2.224809  0
O  O184  1  0.78319457  0.99941259  0.57301272  1  -1.210843  0  -0.360874  -0.662742  0  2.321839  0
O  O185  1  0.75953330  0.12251990  0.54066929  1  -1.171559  0  -0.344002  -0.602227  0  2.215788  0
O  O186  1  0.97142229  0.83342728  0.42334724  1  -1.205836  0  -0.353546  -0.651433  0  2.30331  0
O  O187  1  0.08327361  0.80025247  0.46172620  1  -1.160833  0  -0.341948  -0.60038  0  2.220788  0
O  O188  1  0.81442433  0.85027091  0.46557681  1  -1.236372  0  -0.660129  -0.935162  0  1.89227  0
O  O189  1  0.89816108  0.94487197  0.38397171  1  -1.225129  0  -0.574004  -0.771002  0  2.039375  0
O  O190  1  0.80932387  0.85333848  0.53963750  1  -1.279226  0  -0.607969  -0.815947  0  2.013033  0
O  O191  1  0.92773539  0.97055059  0.61565963  1  -1.230237  0  -0.657282  -0.927944  0  1.877676  0
O  O192  1  0.87201950  0.00850916  0.50242933  1  -1.1953  0  -0.78886  -1.169475  0  2.106549  0
O  O193  1  0.95658219  0.87210197  0.50187752  1  -1.273479  0  -0.682639  -1.029482  0  2.2386  0
O  O194  1  0.18103098  0.03995829  0.42362173  1  -1.190688  0  -0.355678  -0.649557  0  2.32733  0
O  O195  1  0.20789956  0.92272685  0.45969414  1  -1.165908  0  -0.346544  -0.603378  0  2.228576  0
O  O196  1  0.01186787  0.23273315  0.56969223  1  -1.191431  0  -0.353524  -0.628207  0  2.320344  0
O  O197  1  0.88723123  0.25409272  0.53843024  1  -1.175397  0  -0.355864  -0.61976  0  2.212004  0
O  O198  1  0.17663922  0.03211397  0.57907457  1  -1.194882  0  -0.339282  -0.619938  0  2.310844  0
O  O199  1  0.21136868  0.92545197  0.53853837  1  -1.166595  0  -0.362216  -0.623425  0  2.230699  0
O  O200  1  0.01510124  0.23569844  0.43546518  1  -1.196143  0  -0.342546  -0.615496  0  2.320561  0
O  O201  1  0.88408321  0.25082634  0.46087444  1  -1.168308  0  -0.352005  -0.613673  0  2.214007  0
O  O202  1  0.17085353  0.20060984  0.44409559  1  -1.244343  0  -0.577582  -0.772114  0  2.025966  0
O  O203  1  0.04541014  0.10543015  0.38848324  1  -1.210785  0  -0.707932  -0.969505  0  1.784729  0
O  O204  1  0.16593932  0.18795774  0.54791004  1  -1.217214  0  -0.704835  -0.958865  0  1.772346  0
O  O205  1  0.04320363  0.08210505  0.61624279  1  -1.279992  0  -0.608313  -0.816578  0  2.001025  0
O  O206  1  0.13891671  0.05825916  0.49929603  1  -1.274748  0  -0.675464  -1.043345  0  2.193742  0
O  O207  1  0.00165947  0.13989277  0.49975494  1  -1.221256  0  -0.783177  -1.168554  0  2.090816  0
O  O208  1  0.03172541  0.97613329  0.45801003  1  -1.219262  0  -0.793252  -1.172895  0  2.112062  0
O  O209  1  0.92449279  0.09170049  0.55968088  1  -1.237844  0  -0.689867  -1.058329  0  2.296693  0
O  O210  1  0.92062003  0.08507709  0.44073881  1  -1.264216  0  -0.683841  -1.051286  0  2.226565  0
O  O211  1  0.03373106  0.97950635  0.54255096  1  -1.20834  0  -0.788796  -1.16657  0  2.112384  0
O  O212  1  0.46153033  0.72680016  0.93055353  1  -1.209995  0  -0.365897  -0.668673  0  2.332739  0
O  O213  1  0.58537778  0.74831948  0.96214262  1  -1.172378  0  -0.33743  -0.59747  0  2.219701  0
O  O214  1  0.29525828  0.54224227  0.07536073  1  -1.18634  0  -0.358698  -0.638025  0  2.302044  0
O  O215  1  0.27132167  0.42059471  0.04260829  1  -1.167851  0  -0.349445  -0.609247  0  2.21241  0
O  O216  1  0.47225966  0.71712496  0.07419231  1  -1.18955  0  -0.360483  -0.637127  0  2.314716  0
O  O217  1  0.59120891  0.74314096  0.03941304  1  -1.16712  0  -0.350566  -0.613774  0  2.213208  0
O  O218  1  0.29925956  0.53516445  0.92309993  1  -1.200312  0  -0.355613  -0.651433  0  2.300709  0
O  O219  1  0.26592085  0.42396888  0.96179847  1  -1.155078  0  -0.343703  -0.602248  0  2.214345  0
O  O220  1  0.31576028  0.69083427  0.96590748  1  -1.242113  0  -0.658776  -0.937203  0  1.892886  0
O  O221  1  0.40889841  0.61078297  0.88342150  1  -1.208385  0  -0.573514  -0.772868  0  2.041767  0
O  O222  1  0.32015649  0.69736980  0.03931087  1  -1.244911  0  -0.605116  -0.818424  0  2.014945  0
O  O223  1  0.43920408  0.57285113  0.11495636  1  -1.238835  0  -0.654163  -0.923842  0  1.883541  0
O  O224  1  0.47476788  0.63390950  0.00196957  1  -1.196599  0  -0.78518  -1.153177  0  2.067371  0
O  O225  1  0.34009414  0.54771543  0.00133066  1  -1.228574  0  -0.690969  -1.049424  0  2.306821  0
O  O226  1  0.50200133  0.32651921  0.92323762  1  -1.178026  0  -0.353057  -0.631547  0  2.3206  0
O  O227  1  0.38772574  0.29827996  0.96077501  1  -1.16642  0  -0.357304  -0.619013  0  2.22353  0
O  O228  1  0.70038129  0.48705869  0.06909679  1  -1.19439  0  -0.360196  -0.636979  0  2.303868  0
O  O229  1  0.72232243  0.61162938  0.03777153  1  -1.167733  0  -0.346463  -0.610822  0  2.210949  0
O  O230  1  0.51171955  0.32421941  0.07653277  1  -1.193764  0  -0.354809  -0.647346  0  2.305436  0
O  O231  1  0.39541503  0.29555886  0.04052467  1  -1.170434  0  -0.349756  -0.612456  0  2.222238  0
O  O232  1  0.70005402  0.49226370  0.93293500  1  -1.187801  0  -0.340303  -0.61313  0  2.326136  0
O  O233  1  0.71619568  0.62097360  0.96024839  1  -1.18458  0  -0.36113  -0.622332  0  2.218301  0
O  O234  1  0.66687410  0.34251381  0.96063902  1  -1.268131  0  -0.609868  -0.819617  0  2.007641  0
O  O235  1  0.56940455  0.45836861  0.88698637  1  -1.217313  0  -0.703526  -0.956302  0  1.77113  0
O  O236  1  0.66469302  0.34278995  0.03438484  1  -1.237677  0  -0.657071  -0.931782  0  1.893021  0
O  O237  1  0.55168166  0.45951755  0.11476398  1  -1.242656  0  -0.610543  -0.820573  0  1.996289  0
O  O238  1  0.52067213  0.36646591  0.99894751  1  -1.245164  0  -0.679998  -1.026319  0  2.226643  0
O  O239  1  0.60412413  0.50269870  0.99857291  1  -1.214784  0  -0.786963  -1.170934  0  2.11903  0
O  O240  1  0.44268947  0.47410262  0.95789997  1  -1.212768  0  -0.790158  -1.168113  0  2.1109  0
O  O241  1  0.56073885  0.57826297  0.05877125  1  -1.249939  0  -0.691717  -1.060732  0  2.30962  0
O  O242  1  0.55009064  0.58383633  0.93963555  1  -1.274624  0  -0.679568  -1.050097  0  2.215866  0
O  O243  1  0.44737868  0.47169144  0.04318816  1  -1.211601  0  -0.787987  -1.159098  0  2.086733  0
