# generated using pymatgen
data_CdH24C33N4O7
_symmetry_space_group_name_H-M   'P 1'
_cell_length_a   10.36154056
_cell_length_b   10.65851316
_cell_length_c   14.48040000
_cell_angle_alpha   91.59720816
_cell_angle_beta   103.96320754
_cell_angle_gamma   104.22559058
_symmetry_Int_Tables_number   1
_chemical_formula_structural   CdH24C33N4O7
_chemical_formula_sum   'Cd2 H48 C66 N8 O14'
_cell_volume   1497.87855156
_cell_formula_units_Z   2
loop_
 _symmetry_equiv_pos_site_id
 _symmetry_equiv_pos_as_xyz
  1  'x, y, z'
loop_
 _atom_site_type_symbol
 _atom_site_label
 _atom_site_symmetry_multiplicity
 _atom_site_fract_x
 _atom_site_fract_y
 _atom_site_fract_z
 _atom_site_occupancy
 _atom_site_pbe_bader_charge
 _atom_site_pbe_bader_spin_density
 _atom_site_pbe_cm5_charge
 _atom_site_pbe_ddec_charge
 _atom_site_pbe_ddec_spin_density
 _atom_site_pbe_ddec_sum_bond_order
 _atom_site_pbe_magmom
Cd  Cd0  1  0.04409567  0.99595002  0.21999392  1  1.254381  0  0.769426  0.857269  0  2.150958  0
Cd  Cd1  1  0.95590372  0.00405066  0.78000744  1  1.254381  0  0.769404  0.857198  0  2.151004  0
H  H2  1  0.03042984  0.74050694  0.88394894  1  0.515412  0  0.30611  0.280473  0  1.000192  0
H  H3  1  0.96956874  0.25949083  0.11605014  1  0.515371  0  0.306116  0.280505  0  1.000119  0
H  H4  1  0.75042531  0.74936355  0.45290859  1  0.444  0  0.324022  0.275181  0  0.941288  0
H  H5  1  0.24957434  0.25063810  0.54709214  1  0.443835  0  0.32403  0.275177  0  0.941313  0
H  H6  1  0.32038582  0.20440599  0.02783093  1  0.081703  0  0.099606  0.108379  0  1.03189  0
H  H7  1  0.67960985  0.79559566  0.97216635  1  0.081769  0  0.099598  0.108377  0  1.031915  0
H  H8  1  0.71894009  0.16805313  0.01034635  1  0.079885  0  0.103938  0.106863  0  1.01129  0
H  H9  1  0.28105505  0.83194658  0.98964873  1  0.079936  0  0.103941  0.106863  0  1.01133  0
H  H10  1  0.54341594  0.00075239  0.23365354  1  0.096157  0  0.100273  0.107274  0  1.018437  0
H  H11  1  0.45657992  0.99924634  0.76634233  1  0.096027  0  0.100251  0.107237  0  1.018502  0
H  H12  1  0.60433296  0.28614233  0.89625341  1  0.049363  0  0.093012  0.138694  0  0.997009  0
H  H13  1  0.39566849  0.71386223  0.10374700  1  0.049357  0  0.09303  0.138727  0  0.996956  0
H  H14  1  0.49833281  0.37046344  0.93875956  1  0.020529  0  0.085267  0.118436  0  1.016299  0
H  H15  1  0.50166738  0.62954016  0.06124062  1  0.020519  0  0.085293  0.118444  0  1.016281  0
H  H16  1  0.42220341  0.22298729  0.86447131  1  0.065745  0  0.088424  0.133912  0  1.029657  0
H  H17  1  0.57779704  0.77701727  0.13552617  1  0.065796  0  0.088429  0.133891  0  1.029692  0
H  H18  1  0.05433363  0.86212965  0.02347527  1  0.136491  0  0.122603  0.108869  0  1.004591  0
H  H19  1  0.94566874  0.13787103  0.97652660  1  0.136474  0  0.122575  0.108826  0  1.004577  0
H  H20  1  0.76592198  0.48311191  0.95627701  1  0.128096  0  0.108527  0.124232  0  1.050336  0
H  H21  1  0.23408482  0.51688682  0.04372628  1  0.128063  0  0.108561  0.124281  0  1.05026  0
H  H22  1  0.70515373  0.51759741  0.11102071  1  0.04728  0  0.104787  0.107673  0  1.004344  0
H  H23  1  0.29484836  0.48240230  0.88898109  1  0.047285  0  0.10478  0.107683  0  1.004392  0
H  H24  1  0.82632785  0.72459399  0.21582984  1  0.073627  0  0.107652  0.074611  0  1.026144  0
H  H25  1  0.17367253  0.27540669  0.78417030  1  0.073642  0  0.107659  0.074641  0  1.026109  0
H  H26  1  0.18536160  0.69984679  0.84053544  1  0.120956  0  0.102132  0.087846  0  1.089832  0
H  H27  1  0.81463671  0.30015000  0.15946358  1  0.120932  0  0.102113  0.087827  0  1.089853  0
H  H28  1  0.32654391  0.68755970  0.72982286  1  0.098542  0  0.103182  0.117806  0  1.036351  0
H  H29  1  0.67345394  0.31243903  0.27017682  1  0.098528  0  0.103186  0.117813  0  1.036343  0
H  H30  1  0.99214957  0.38921971  0.55086462  1  0.109162  0  0.099432  0.112708  0  1.043035  0
H  H31  1  0.00784664  0.61078388  0.44913003  1  0.109572  0  0.099437  0.112713  0  1.043033  0
H  H32  1  0.84944708  0.40288229  0.66662871  1  0.102388  0  0.103217  0.101387  0  1.020467  0
H  H33  1  0.15055104  0.59711741  0.33336826  1  0.10241  0  0.103238  0.101356  0  1.020482  0
H  H34  1  0.45239261  0.50744695  0.71460585  1  0.092463  0  0.114275  0.132066  0  0.975286  0
H  H35  1  0.54760559  0.49255664  0.28539674  1  0.092465  0  0.114286  0.132076  0  0.975279  0
H  H36  1  0.69747456  0.61510477  0.72411967  1  0.100973  0  0.112258  0.119956  0  1.009985  0
H  H37  1  0.30252582  0.38489590  0.27588255  1  0.100972  0  0.11227  0.120014  0  1.009991  0
H  H38  1  0.57130296  0.78155397  0.45901109  1  0.064213  0  0.108921  0.103016  0  0.995089  0
H  H39  1  0.42869933  0.21844282  0.54098792  1  0.064227  0  0.108933  0.103012  0  0.995119  0
H  H40  1  0.32832937  0.67413431  0.45059062  1  0.103085  0  0.111433  0.125107  0  1.007079  0
H  H41  1  0.67167139  0.32586053  0.54940740  1  0.103394  0  0.11146  0.125133  0  1.007006  0
H  H42  1  0.09381057  0.81568466  0.62881306  1  0.151875  0  0.114778  0.135272  0  1.017401  0
H  H43  1  0.90618782  0.18431602  0.37119020  1  0.15191  0  0.114809  0.135347  0  1.017374  0
H  H44  1  0.30593793  0.89876830  0.57131460  1  0.077669  0  0.11317  0.121546  0  0.985114  0
H  H45  1  0.69406290  0.10123043  0.42868973  1  0.077695  0  0.113193  0.121587  0  0.985137  0
H  H46  1  0.28053323  0.95945912  0.40074008  1  0.153337  0  0.118247  0.108878  0  1.014682  0
H  H47  1  0.71946940  0.04054253  0.59926462  1  0.153154  0  0.118224  0.108841  0  1.014703  0
H  H48  1  0.85701961  0.86819251  0.34925207  1  0.144598  0  0.119321  0.110237  0  1.03922  0
H  H49  1  0.14298303  0.13180914  0.65074987  1  0.144549  0  0.119306  0.110229  0  1.039209  0
C  C50  1  0.29987206  0.06536361  0.17834775  1  1.531295  0  0.186592  0.56048  0  4.232167  0
C  C51  1  0.70012354  0.93463415  0.82165014  1  1.531271  0  0.186592  0.560403  0  4.232204  0
C  C52  1  0.42044075  0.10045471  0.13512961  1  -0.004838  0  -0.022102  -0.029285  0  3.998285  0
C  C53  1  0.57955512  0.89954402  0.86486696  1  0.000986  0  -0.022084  -0.029073  0  3.99823  0
C  C54  1  0.41319586  0.17196964  0.05515475  1  -0.024483  0  -0.082326  -0.14431  0  3.891904  0
C  C55  1  0.58680126  0.82803007  0.94484274  1  -0.030438  0  -0.082357  -0.144476  0  3.891713  0
C  C56  1  0.52058175  0.19875237  0.00947686  1  0.041683  0  -0.009925  0.166142  0  3.983163  0
C  C57  1  0.47941438  0.80124733  0.99052185  1  0.04204  0  -0.009865  0.166294  0  3.982895  0
C  C58  1  0.63537767  0.15153555  0.04584522  1  -0.101579  0  -0.084278  -0.15488  0  3.927009  0
C  C59  1  0.36461946  0.84846416  0.95415158  1  -0.101805  0  -0.084333  -0.154926  0  3.927142  0
C  C60  1  0.64573136  0.08212323  0.12711199  1  -0.024922  0  -0.021795  -0.033836  0  4.003651  0
C  C61  1  0.35426622  0.91787453  0.87288416  1  -0.024415  0  -0.021707  -0.033784  0  4.003622  0
C  C62  1  0.53764904  0.05648269  0.17159158  1  -0.046465  0  -0.08368  -0.120567  0  3.952203  0
C  C63  1  0.46234855  0.94351507  0.82840457  1  -0.046359  0  -0.08372  -0.120674  0  3.952379  0
C  C64  1  0.77429456  0.04057752  0.16791022  1  1.512029  0  0.19786  0.565627  0  4.206865  0
C  C65  1  0.22570283  0.95942316  0.83208734  1  1.511686  0  0.197905  0.565768  0  4.206697  0
C  C66  1  0.51155290  0.27363264  0.92259815  1  -0.071905  0  -0.243254  -0.419356  0  3.951281  0
C  C67  1  0.48844728  0.72637095  0.07739995  1  -0.07215  0  -0.243311  -0.419402  0  3.951282  0
C  C68  1  0.97819582  0.78220915  0.04111098  1  0.542221  0  0.053087  0.01283  0  3.866576  0
C  C69  1  0.02180727  0.21779055  0.95889031  1  0.542166  0  0.053113  0.012893  0  3.866567  0
C  C70  1  0.91682315  0.66826684  0.97837749  1  0.355764  0  0.111767  0.225031  0  3.994724  0
C  C71  1  0.08318240  0.33173092  0.02162418  1  0.35584  0  0.111835  0.225085  0  3.994783  0
C  C72  1  0.81601035  0.57115025  0.00381555  1  -0.020459  0  -0.079678  -0.143153  0  3.911933  0
C  C73  1  0.18399519  0.42884751  0.99618750  1  -0.020453  0  -0.079709  -0.143217  0  3.912031  0
C  C74  1  0.78278113  0.59135979  0.08955651  1  0.031788  0  -0.087149  -0.111916  0  4.040641  0
C  C75  1  0.21722269  0.40863895  0.91044558  1  0.031747  0  -0.087199  -0.111964  0  4.040848  0
C  C76  1  0.84972186  0.70542069  0.14831612  1  0.465669  0  0.029186  0.059051  0  3.99468  0
C  C77  1  0.15028051  0.29457998  0.85168575  1  0.465677  0  0.029203  0.058993  0  3.994729  0
C  C78  1  0.91982727  0.55264477  0.82892178  1  1.400582  0  0.239258  0.478959  0  4.112676  0
C  C79  1  0.08017601  0.44735202  0.17108017  1  1.400805  0  0.239272  0.479023  0  4.112761  0
C  C80  1  0.00620914  0.55367809  0.76020298  1  -0.009667  0  -0.024044  -0.053071  0  4.012206  0
C  C81  1  0.99379043  0.44631967  0.23979766  1  -0.009826  0  -0.024045  -0.053087  0  4.012176  0
C  C82  1  0.14047080  0.63240585  0.77681601  1  -0.076756  0  -0.082723  -0.069691  0  3.99835  0
C  C83  1  0.85952679  0.36759191  0.22318360  1  -0.07672  0  -0.082779  -0.069816  0  3.998497  0
C  C84  1  0.22238010  0.62458644  0.71469886  1  -0.055777  0  -0.110569  -0.2266  0  4.007877  0
C  C85  1  0.77761929  0.37541424  0.28530112  1  -0.055871  0  -0.110476  -0.226413  0  4.007887  0
C  C86  1  0.16823933  0.53469143  0.63422521  1  0.359945  0  0.08325  0.257965  0  4.04864  0
C  C87  1  0.83175860  0.46531119  0.36577317  1  0.360037  0  0.083201  0.257833  0  4.048733  0
C  C88  1  0.03313598  0.45593354  0.61533508  1  0.015028  0  -0.108274  -0.204904  0  4.006223  0
C  C89  1  0.96686321  0.54407006  0.38466286  1  0.014649  0  -0.108253  -0.204847  0  4.006135  0
C  C90  1  0.95356803  0.46519163  0.67843275  1  -0.043388  0  -0.080715  -0.063665  0  3.976415  0
C  C91  1  0.04642963  0.53481002  0.32156626  1  -0.043353  0  -0.080745  -0.063619  0  3.976376  0
C  C92  1  0.37675107  0.58436664  0.58111856  1  0.415746  0  0.08911  0.258736  0  4.039561  0
C  C93  1  0.62324859  0.41563501  0.41888079  1  0.415741  0  0.08908  0.258623  0  4.03965  0
C  C94  1  0.47932551  0.56774603  0.65901017  1  -0.000321  0  -0.091763  -0.19349  0  3.974572  0
C  C95  1  0.52067388  0.43225465  0.34099119  1  -0.000311  0  -0.091794  -0.193487  0  3.974478  0
C  C96  1  0.61654319  0.62792748  0.66424858  1  -0.006122  0  -0.067406  -0.046413  0  3.921689  0
C  C97  1  0.38345547  0.37207417  0.33575198  1  -0.006187  0  -0.067433  -0.046513  0  3.921679  0
C  C98  1  0.65227838  0.70231684  0.59142297  1  0.002057  0  -0.017055  -0.048513  0  4.004922  0
C  C99  1  0.34772273  0.29768286  0.40857729  1  0.00213  0  -0.017028  -0.048472  0  4.004994  0
C  C100  1  0.54771099  0.71937392  0.51463125  1  -0.071441  0  -0.081816  -0.090381  0  4.001956  0
C  C101  1  0.45229084  0.28062481  0.48536842  1  -0.071456  0  -0.081835  -0.090446  0  4.002069  0
C  C102  1  0.41032079  0.66117066  0.50953968  1  -0.007692  0  -0.092713  -0.180748  0  3.983942  0
C  C103  1  0.58968077  0.33882711  0.49045854  1  -0.007992  0  -0.092734  -0.180664  0  3.98386  0
C  C104  1  0.80074917  0.75923599  0.59800154  1  1.377612  0  0.247421  0.48469  0  4.100303  0
C  C105  1  0.19925022  0.24076468  0.40199981  1  1.377614  0  0.247457  0.4848  0  4.100262  0
C  C106  1  0.95826447  0.82971371  0.49204189  1  0.423191  0  0.102928  0.205064  0  4.027993  0
C  C107  1  0.04173545  0.17028891  0.50795960  1  0.423214  0  0.102899  0.205101  0  4.027981  0
C  C108  1  0.08685293  0.84215147  0.55622992  1  -0.041641  0  -0.069163  -0.120997  0  3.889082  0
C  C109  1  0.91314572  0.15785018  0.44377340  1  -0.041426  0  -0.069158  -0.121074  0  3.889174  0
C  C110  1  0.20430627  0.88891433  0.52351967  1  0.006339  0  -0.080725  -0.111236  0  3.986011  0
C  C111  1  0.79569510  0.11108634  0.47648272  1  0.005951  0  -0.080774  -0.111283  0  3.9861  0
C  C112  1  0.19226113  0.92297017  0.43012528  1  0.411072  0  0.03502  0.053235  0  3.945297  0
C  C113  1  0.80773979  0.07703245  0.56987776  1  0.411208  0  0.034974  0.05315  0  3.945183  0
C  C114  1  0.95434944  0.86897406  0.39999645  1  0.479286  0  0.040097  -0.032862  0  3.940282  0
C  C115  1  0.04565247  0.13102856  0.60000677  1  0.479287  0  0.040123  -0.032916  0  3.940292  0
N  N116  1  0.94573130  0.79888421  0.12377273  1  -1.238263  0  -0.329734  -0.228203  0  3.555203  0
N  N117  1  0.05427206  0.20111647  0.87622931  1  -1.23826  0  -0.329733  -0.228151  0  3.555154  0
N  N118  1  0.96260454  0.65790155  0.89642426  1  -1.275652  0  -0.393319  -0.375246  0  3.565845  0
N  N119  1  0.03739875  0.34209524  0.10357700  1  -1.27564  0  -0.393369  -0.375327  0  3.565832  0
N  N120  1  0.83105095  0.77855024  0.51152253  1  -1.242283  0  -0.395762  -0.373434  0  3.621358  0
N  N121  1  0.16894871  0.22145141  0.48847959  1  -1.242121  0  -0.395764  -0.373447  0  3.621405  0
N  N122  1  0.06797479  0.91434199  0.37003942  1  -1.225929  0  -0.324547  -0.210703  0  3.552229  0
N  N123  1  0.93202712  0.08566063  0.62996380  1  -1.225752  0  -0.324441  -0.210474  0  3.55201  0
O  O124  1  0.18528664  0.08132613  0.12813799  1  -1.15031  0  -0.338832  -0.547924  0  2.217773  0
O  O125  1  0.81470896  0.91867163  0.87185989  1  -1.150198  0  -0.338851  -0.547899  0  2.217728  0
O  O126  1  0.31250542  0.01948048  0.25885209  1  -1.187329  0  -0.349163  -0.588176  0  2.128892  0
O  O127  1  0.68749515  0.98051729  0.74114596  1  -1.187383  0  -0.349149  -0.588172  0  2.129017  0
O  O128  1  0.88132922  0.09314175  0.13808624  1  -1.167146  0  -0.328692  -0.555005  0  2.278992  0
O  O129  1  0.11866711  0.90685503  0.86191036  1  -1.167147  0  -0.328714  -0.555103  0  2.278949  0
O  O130  1  0.77607968  0.95965062  0.23006424  1  -1.179286  0  -0.332967  -0.576768  0  2.178743  0
O  O131  1  0.22391970  0.04035005  0.76993159  1  -1.179307  0  -0.332982  -0.576812  0  2.178813  0
O  O132  1  0.81808062  0.46000364  0.82509786  1  -1.146308  0  -0.301793  -0.492249  0  2.096248  0
O  O133  1  0.18192729  0.53998829  0.17490894  1  -1.146349  0  -0.301783  -0.492291  0  2.096403  0
O  O134  1  0.23913553  0.51945700  0.56693845  1  -1.108888  0  -0.154967  -0.222128  0  2.59889  0
O  O135  1  0.76086439  0.48054562  0.43306097  1  -1.108924  0  -0.154921  -0.222069  0  2.599033  0
O  O136  1  0.89045023  0.78610622  0.67517108  1  -1.154472  0  -0.278665  -0.475768  0  2.250127  0
O  O137  1  0.10954942  0.21389543  0.32483034  1  -1.154381  0  -0.278731  -0.47589  0  2.250129  0
