# generated using pymatgen
data_CuH16C20IN6
_symmetry_space_group_name_H-M   'P 1'
_cell_length_a   8.01684402
_cell_length_b   10.10548157
_cell_length_c   12.05034160
_cell_angle_alpha   90.61830295
_cell_angle_beta   109.42671624
_cell_angle_gamma   89.98551022
_symmetry_Int_Tables_number   1
_chemical_formula_structural   CuH16C20IN6
_chemical_formula_sum   'Cu2 H32 C40 I2 N12'
_cell_volume   920.60781775
_cell_formula_units_Z   2
loop_
 _symmetry_equiv_pos_site_id
 _symmetry_equiv_pos_as_xyz
  1  'x, y, z'
loop_
 _atom_site_type_symbol
 _atom_site_label
 _atom_site_symmetry_multiplicity
 _atom_site_fract_x
 _atom_site_fract_y
 _atom_site_fract_z
 _atom_site_occupancy
 _atom_site_hle17_bader_spin_density
 _atom_site_hle17_ddec_charge
 _atom_site_hle17_ddec_spin_density
 _atom_site_hle17_ddec_sum_bond_order
 _atom_site_hle17_magmom
 _atom_site_hse06_10hf_bader_spin_density
 _atom_site_hse06_10hf_ddec_charge
 _atom_site_hse06_10hf_ddec_spin_density
 _atom_site_hse06_10hf_ddec_sum_bond_order
 _atom_site_hse06_10hf_magmom
 _atom_site_hse06_bader_spin_density
 _atom_site_hse06_ddec_charge
 _atom_site_hse06_ddec_spin_density
 _atom_site_hse06_ddec_sum_bond_order
 _atom_site_hse06_magmom
 _atom_site_pbe_bader_spin_density
 _atom_site_pbe_cm5_charge
 _atom_site_pbe_ddec_charge
 _atom_site_pbe_ddec_spin_density
 _atom_site_pbe_ddec_sum_bond_order
 _atom_site_pbe_magmom
Cu  Cu0  1  0.29352329  0.74988080  0.00002083  1  0  0.407696  0  1.919709  0  0  0.289539  0  2.411729  0  0  0.304036  0  2.359986  0  0  0.406348  0.282735  0  2.444731  0
Cu  Cu1  1  0.70647852  0.25011941  0.99998023  1  0  0.40771  0  1.919757  0  0  0.289569  0  2.41181  0  0  0.304048  0  2.360033  0  0  0.406342  0.282768  0  2.444768  0
H  H2  1  0.71041571  0.69149523  0.10329348  1  0  0.098382  0  0.976175  0  0  0.106465  0  1.046205  0  0  0.109369  0  1.042514  0  0  0.123777  0.104542  0  1.048182  0
H  H3  1  0.60663318  0.80852241  0.89680871  1  0  0.098563  0  0.975961  0  0  0.106703  0  1.045954  0  0  0.109738  0  1.042148  0  0  0.12385  0.104704  0  1.048015  0
H  H4  1  0.28958477  0.30850399  0.89670811  1  0  0.098384  0  0.976164  0  0  0.106473  0  1.046187  0  0  0.109374  0  1.0425  0  0  0.123796  0.104551  0  1.048166  0
H  H5  1  0.39336731  0.19147979  0.10319289  1  0  0.098563  0  0.975993  0  0  0.106689  0  1.04602  0  0  0.109724  0  1.042213  0  0  0.123881  0.104693  0  1.04808  0
H  H6  1  0.28068364  0.47529299  0.13667031  1  0  0.088884  0  0.952747  0  0  0.096885  0  1.01858  0  0  0.099368  0  1.016068  0  0  0.120186  0.094407  0  1.021662  0
H  H7  1  0.14341413  0.02486041  0.86325216  1  0  0.089131  0  0.95314  0  0  0.096766  0  1.019329  0  0  0.099356  0  1.016728  0  0  0.119876  0.09422  0  1.022427  0
H  H8  1  0.71931684  0.52470622  0.86332879  1  0  0.088892  0  0.952728  0  0  0.096891  0  1.018565  0  0  0.099373  0  1.016053  0  0  0.120178  0.094411  0  1.021646  0
H  H9  1  0.85658636  0.97514178  0.13674861  1  0  0.089142  0  0.953137  0  0  0.096774  0  1.019327  0  0  0.099366  0  1.016724  0  0  0.119886  0.094229  0  1.022423  0
H  H10  1  0.95279022  0.53247429  0.20225035  1  0  0.086289  0  0.944735  0  0  0.100121  0  1.012237  0  0  0.101395  0  1.011104  0  0  0.109567  0.098725  0  1.014057  0
H  H11  1  0.75009938  0.96755648  0.79791661  1  0  0.086941  0  0.944929  0  0  0.100514  0  1.012366  0  0  0.101831  0  1.011173  0  0  0.109522  0.099117  0  1.014175  0
H  H12  1  0.04721159  0.46752593  0.79775153  1  0  0.086268  0  0.944773  0  0  0.100123  0  1.012271  0  0  0.101393  0  1.011142  0  0  0.109564  0.098726  0  1.014091  0
H  H13  1  0.24990110  0.03244372  0.20208249  1  0  0.086951  0  0.945032  0  0  0.100536  0  1.012463  0  0  0.101851  0  1.011272  0  0  0.109539  0.09914  0  1.014272  0
H  H14  1  0.88838100  0.36870781  0.21402214  1  0  0.080467  0  0.965516  0  0  0.090391  0  1.043002  0  0  0.093747  0  1.037623  0  0  0.104123  0.088087  0  1.046588  0
H  H15  1  0.67365329  0.13132212  0.78600959  1  0  0.082081  0  0.964527  0  0  0.091272  0  1.042271  0  0  0.094685  0  1.036845  0  0  0.104597  0.088948  0  1.045852  0
H  H16  1  0.11161683  0.63129141  0.78597887  1  0  0.080465  0  0.965521  0  0  0.090404  0  1.043018  0  0  0.093756  0  1.037644  0  0  0.104108  0.088099  0  1.046602  0
H  H17  1  0.32634719  0.86867906  0.21398868  1  0  0.082032  0  0.964582  0  0  0.091237  0  1.042334  0  0  0.094648  0  1.036911  0  0  0.104585  0.088914  0  1.045916  0
H  H18  1  0.82009400  0.23524710  0.30169139  1  0  0.081806  0  1.000248  0  0  0.091362  0  1.067058  0  0  0.093511  0  1.066476  0  0  0.093162  0.089509  0  1.067665  0
H  H19  1  0.51775172  0.26464540  0.69824345  1  0  0.08175  0  1.000879  0  0  0.091225  0  1.067486  0  0  0.093417  0  1.066851  0  0  0.092924  0.089356  0  1.068101  0
H  H20  1  0.17990648  0.76475311  0.69830854  1  0  0.081802  0  1.000249  0  0  0.09136  0  1.067055  0  0  0.09351  0  1.066473  0  0  0.09316  0.089506  0  1.067659  0
H  H21  1  0.48224214  0.73535182  0.30175501  1  0  0.081732  0  1.000867  0  0  0.091244  0  1.067429  0  0  0.093439  0  1.06679  0  0  0.092903  0.089376  0  1.068044  0
H  H22  1  0.82277331  0.04603038  0.42672493  1  0  0.087922  0  0.968807  0  0  0.094566  0  1.037073  0  0  0.096809  0  1.037343  0  0  0.096942  0.094151  0  1.034403  0
H  H23  1  0.39569899  0.45393878  0.57326310  1  0  0.088066  0  0.968154  0  0  0.094905  0  1.03636  0  0  0.097176  0  1.036619  0  0  0.097181  0.094461  0  1.03372  0
H  H24  1  0.17722981  0.95396884  0.57327558  1  0  0.08793  0  0.968836  0  0  0.094567  0  1.037106  0  0  0.09681  0  1.037377  0  0  0.096948  0.094153  0  1.034435  0
H  H25  1  0.60429884  0.54606043  0.42673624  1  0  0.088049  0  0.968155  0  0  0.094922  0  1.036322  0  0  0.097193  0  1.036581  0  0  0.097178  0.094479  0  1.033686  0
H  H26  1  0.93188215  0.07179853  0.64514991  1  0  0.082842  0  0.952235  0  0  0.096982  0  1.008317  0  0  0.098803  0  1.008548  0  0  0.097723  0.095293  0  1.009097  0
H  H27  1  0.28697376  0.42828191  0.35476064  1  0  0.082435  0  0.951481  0  0  0.096628  0  1.007618  0  0  0.098424  0  1.007918  0  0  0.097671  0.095004  0  1.008275  0
H  H28  1  0.06812098  0.92820068  0.35484977  1  0  0.082871  0  0.952205  0  0  0.097005  0  1.008291  0  0  0.098826  0  1.008522  0  0  0.097718  0.095317  0  1.009069  0
H  H29  1  0.71302936  0.57171829  0.64523739  1  0  0.082398  0  0.951504  0  0  0.09659  0  1.007642  0  0  0.098389  0  1.007936  0  0  0.097671  0.094968  0  1.008296  0
H  H30  1  0.03433912  0.28505876  0.73735279  1  0  0.071441  0  1.013077  0  0  0.079483  0  1.084819  0  0  0.081744  0  1.084239  0  0  0.083877  0.077892  0  1.084449  0
H  H31  1  0.29708345  0.21493207  0.26261776  1  0  0.070832  0  1.013897  0  0  0.079274  0  1.085157  0  0  0.081558  0  1.084554  0  0  0.083441  0.077633  0  1.084845  0
H  H32  1  0.96566269  0.71494046  0.26264825  1  0  0.071453  0  1.013115  0  0  0.079485  0  1.084879  0  0  0.081745  0  1.084298  0  0  0.083875  0.077892  0  1.084514  0
H  H33  1  0.70291967  0.78506813  0.73738109  1  0  0.070816  0  1.013927  0  0  0.079262  0  1.085191  0  0  0.081548  0  1.084583  0  0  0.083432  0.077628  0  1.084866  0
C  C34  1  0.62865064  0.61842806  0.12630080  1  0  0.171109  0  3.631258  0  0  0.095069  0  3.895402  0  0  0.109415  0  3.905701  0  0  0.15627  0.086336  0  3.887435  0
C  C35  1  0.50184524  0.88161012  0.87377480  1  0  0.170934  0  3.63273  0  0  0.094959  0  3.896368  0  0  0.109165  0  3.906655  0  0  0.155981  0.086309  0  3.888445  0
C  C36  1  0.37134852  0.38157215  0.87370050  1  0  0.171103  0  3.631192  0  0  0.095069  0  3.895324  0  0  0.109411  0  3.905625  0  0  0.156241  0.086332  0  3.887364  0
C  C37  1  0.49815524  0.11839207  0.12622597  1  0  0.17109  0  3.632606  0  0  0.095094  0  3.896282  0  0  0.109302  0  3.906562  0  0  0.156031  0.086444  0  3.888362  0
C  C38  1  0.41442005  0.50611969  0.14576964  1  0  0.182663  0  3.714002  0  0  0.134367  0  3.998552  0  0  0.144625  0  4.011097  0  0  0.137949  0.127808  0  3.989925  0
C  C39  1  0.26808965  0.99394424  0.85423717  1  0  0.183345  0  3.715949  0  0  0.135345  0  4.000252  0  0  0.145517  0  4.012811  0  0  0.137925  0.128847  0  3.991617  0
C  C40  1  0.58558042  0.49387754  0.85423028  1  0  0.182674  0  3.714039  0  0  0.134379  0  3.998585  0  0  0.144635  0  4.011131  0  0  0.137979  0.127816  0  3.989954  0
C  C41  1  0.73191084  0.00605796  0.14576443  1  0  0.183342  0  3.715979  0  0  0.135354  0  4.000276  0  0  0.145525  0  4.012832  0  0  0.137899  0.128856  0  3.99164  0
C  C42  1  0.87728852  0.47053982  0.24310527  1  0  -0.051366  0  3.661333  0  0  -0.132021  0  3.908857  0  0  -0.127308  0  3.917175  0  0  -0.047467  -0.13535  0  3.903188  0
C  C43  1  0.63370051  0.02946890  0.75698607  1  0  -0.053803  0  3.662915  0  0  -0.133227  0  3.909564  0  0  -0.128594  0  3.917811  0  0  -0.047714  -0.136521  0  3.903873  0
C  C44  1  0.12271196  0.52945940  0.75689548  1  0  -0.051415  0  3.661279  0  0  -0.132158  0  3.908914  0  0  -0.127448  0  3.917237  0  0  -0.047505  -0.135489  0  3.903246  0
C  C45  1  0.36629732  0.97053130  0.24301244  1  0  -0.053702  0  3.663023  0  0  -0.133215  0  3.909786  0  0  -0.128581  0  3.918034  0  0  -0.047712  -0.136509  0  3.904096  0
C  C46  1  0.94094815  0.48499202  0.37541043  1  0  -0.019886  0  3.672757  0  0  -0.010899  0  3.921015  0  0  -0.013452  0  3.944161  0  0  -0.008322  -0.005858  0  3.903823  0
C  C47  1  0.56539963  0.01499489  0.62460256  1  0  -0.020691  0  3.673198  0  0  -0.011595  0  3.920738  0  0  -0.014171  0  3.943919  0  0  -0.008479  -0.006512  0  3.9035  0
C  C48  1  0.05905497  0.51500621  0.62459007  1  0  -0.019753  0  3.672683  0  0  -0.01075  0  3.92094  0  0  -0.013306  0  3.944091  0  0  -0.008283  -0.005708  0  3.903748  0
C  C49  1  0.43459953  0.98500432  0.37539624  1  0  -0.020773  0  3.673234  0  0  -0.011667  0  3.920804  0  0  -0.014245  0  3.943985  0  0  -0.008525  -0.006587  0  3.903569  0
C  C50  1  0.87076918  0.24845519  0.39670334  1  0  -0.106487  0  3.729835  0  0  -0.125426  0  3.97574  0  0  -0.128645  0  3.998165  0  0  -0.09364  -0.121189  0  3.960357  0
C  C51  1  0.47377919  0.25150405  0.60324965  1  0  -0.107899  0  3.730713  0  0  -0.126737  0  3.976543  0  0  -0.130024  0  3.998937  0  0  -0.093747  -0.122442  0  3.96117  0
C  C52  1  0.12922998  0.75154501  0.60329630  1  0  -0.106505  0  3.729873  0  0  -0.12545  0  3.975772  0  0  -0.128671  0  3.998196  0  0  -0.093658  -0.121213  0  3.960379  0
C  C53  1  0.52621467  0.74849417  0.39674964  1  0  -0.107916  0  3.730594  0  0  -0.126794  0  3.976466  0  0  -0.130075  0  3.998844  0  0  -0.093765  -0.122503  0  3.961091  0
C  C54  1  0.87063523  0.14209490  0.46642355  1  0  -0.059137  0  3.768733  0  0  -0.073474  0  4.020352  0  0  -0.074891  0  4.041892  0  0  -0.09182  -0.073282  0  4.003291  0
C  C55  1  0.40410529  0.35790509  0.53354474  1  0  -0.058144  0  3.766287  0  0  -0.07275  0  4.017873  0  0  -0.074171  0  4.039398  0  0  -0.091632  -0.072552  0  4.000788  0
C  C56  1  0.12936657  0.85790531  0.53357751  1  0  -0.059123  0  3.76881  0  0  -0.073445  0  4.0204  0  0  -0.074862  0  4.041941  0  0  -0.091811  -0.073255  0  4.003334  0
C  C57  1  0.59589387  0.64209511  0.46645490  1  0  -0.058101  0  3.766193  0  0  -0.072728  0  4.017762  0  0  -0.074149  0  4.039288  0  0  -0.091607  -0.07253  0  4.000678  0
C  C58  1  0.93196177  0.15695570  0.59049377  1  0  -0.04941  0  3.781899  0  0  -0.063668  0  4.030761  0  0  -0.064364  0  4.052209  0  0  -0.090265  -0.064856  0  4.015776  0
C  C59  1  0.34162058  0.34310562  0.40945239  1  0  -0.049699  0  3.780817  0  0  -0.064141  0  4.030146  0  0  -0.064856  0  4.051599  0  0  -0.091234  -0.065327  0  4.01514  0
C  C60  1  0.06804268  0.84304353  0.40950786  1  0  -0.049402  0  3.781966  0  0  -0.063658  0  4.030805  0  0  -0.064354  0  4.052254  0  0  -0.090227  -0.064846  0  4.015818  0
C  C61  1  0.65837990  0.65689458  0.59054755  1  0  -0.049653  0  3.780776  0  0  -0.064093  0  4.030106  0  0  -0.064808  0  4.051562  0  0  -0.091223  -0.065283  0  4.015094  0
C  C62  1  0.99062228  0.27754376  0.64175994  1  0  -0.120622  0  3.753049  0  0  -0.139582  0  4.001996  0  0  -0.143725  0  4.02508  0  0  -0.099261  -0.133608  0  3.984858  0
C  C63  1  0.34897848  0.22250120  0.35821355  1  0  -0.120604  0  3.752374  0  0  -0.139742  0  4.001198  0  0  -0.14388  0  4.024242  0  0  -0.098788  -0.133745  0  3.984124  0
C  C64  1  0.00938481  0.72245546  0.35824145  1  0  -0.120686  0  3.753161  0  0  -0.13964  0  4.002091  0  0  -0.143785  0  4.025175  0  0  -0.09929  -0.13367  0  3.984954  0
C  C65  1  0.65101804  0.77749900  0.64178633  1  0  -0.120541  0  3.752387  0  0  -0.139686  0  4.001196  0  0  -0.143823  0  4.024238  0  0  -0.098763  -0.133697  0  3.984104  0
C  C66  1  0.93433549  0.37552559  0.44582360  1  0  0.032187  0  3.748168  0  0  0.042049  0  3.978064  0  0  0.042251  0  4.002043  0  0  -0.003222  0.039295  0  3.963307  0
C  C67  1  0.48841984  0.12444580  0.55416386  1  0  0.032882  0  3.748749  0  0  0.043002  0  3.97831  0  0  0.043227  0  4.002276  0  0  -0.002381  0.040212  0  3.963553  0
C  C68  1  0.06566499  0.62447364  0.55417799  1  0  0.032145  0  3.748168  0  0  0.042022  0  3.978046  0  0  0.042225  0  4.002024  0  0  -0.003213  0.039269  0  3.96328  0
C  C69  1  0.51157667  0.87555341  0.44583603  1  0  0.032886  0  3.748754  0  0  0.043008  0  3.978313  0  0  0.043233  0  4.002281  0  0  -0.002366  0.04022  0  3.963551  0
C  C70  1  0.00469676  0.60918160  0.42721397  1  0  0.027174  0  3.752832  0  0  0.036256  0  3.983616  0  0  0.036337  0  4.008353  0  0  -0.005084  0.033429  0  3.968352  0
C  C71  1  0.57742521  0.89080240  0.57279975  1  0  0.028261  0  3.751593  0  0  0.036891  0  3.982634  0  0  0.036971  0  4.007373  0  0  -0.005415  0.034041  0  3.967375  0
C  C72  1  0.99530636  0.39081663  0.57278654  1  0  0.027116  0  3.752892  0  0  0.036207  0  3.983676  0  0  0.036288  0  4.008415  0  0  -0.005061  0.033379  0  3.968418  0
C  C73  1  0.42257262  0.10919779  0.42719877  1  0  0.028303  0  3.751509  0  0  0.036944  0  3.982538  0  0  0.037026  0  4.007275  0  0  -0.005394  0.034093  0  3.967286  0
I  I74  1  0.97749336  0.74997006  0.99974129  1  0  -0.58889  0  1.116544  0  0  -0.53142  0  1.477651  0  0  -0.547985  0  1.44342  0  0  -0.285777  -0.519647  0  1.507222  0
I  I75  1  0.02250846  0.25003608  0.00025896  1  0  -0.588877  0  1.11655  0  0  -0.531428  0  1.477678  0  0  -0.547983  0  1.443435  0  0  -0.285772  -0.519649  0  1.507234  0
N  N76  1  0.45182877  0.61904165  0.09636271  1  0  -0.378059  0  3.389727  0  0  -0.308801  0  3.726673  0  0  -0.324735  0  3.728886  0  0  -0.395911  -0.298498  0  3.72386  0
N  N77  1  0.35500138  0.88108054  0.90372067  1  0  -0.378733  0  3.392278  0  0  -0.309714  0  3.729115  0  0  -0.325656  0  3.731391  0  0  -0.395806  -0.299418  0  3.726264  0
N  N78  1  0.54817038  0.38095657  0.90363609  1  0  -0.378093  0  3.38974  0  0  -0.308837  0  3.726682  0  0  -0.324764  0  3.728884  0  0  -0.395896  -0.29853  0  3.723864  0
N  N79  1  0.64500043  0.11892165  0.09628123  1  0  -0.378854  0  3.392382  0  0  -0.30983  0  3.729251  0  0  -0.325765  0  3.731508  0  0  -0.395819  -0.299531  0  3.726395  0
N  N80  1  0.69184739  0.51011236  0.18960162  1  0  0.046847  0  3.540916  0  0  0.171025  0  3.722833  0  0  0.15985  0  3.747011  0  0  -0.130921  0.176597  0  3.709778  0
N  N81  1  0.50164250  0.98982466  0.81034465  1  0  0.047016  0  3.543639  0  0  0.171197  0  3.724954  0  0  0.160057  0  3.749158  0  0  -0.131091  0.176758  0  3.711882  0
N  N82  1  0.30815310  0.48988785  0.81039914  1  0  0.046888  0  3.540893  0  0  0.171066  0  3.722831  0  0  0.159917  0  3.746965  0  0  -0.130869  0.176641  0  3.709776  0
N  N83  1  0.49835798  0.01017654  0.18965612  1  0  0.046943  0  3.543487  0  0  0.171179  0  3.724785  0  0  0.160031  0  3.749004  0  0  -0.131145  0.176742  0  3.711716  0
N  N84  1  0.55717188  0.43700036  0.20324034  1  0  -0.26222  0  2.852789  0  0  -0.259923  0  3.125052  0  0  -0.267882  0  3.13974  0  0  -0.217918  -0.254693  0  3.115306  0
N  N85  1  0.35332152  0.06296670  0.79669016  1  0  -0.262301  0  2.854184  0  0  -0.260114  0  3.126209  0  0  -0.268037  0  3.140842  0  0  -0.217024  -0.254912  0  3.116502  0
N  N86  1  0.44282727  0.56299687  0.79675845  1  0  -0.262238  0  2.852923  0  0  -0.259943  0  3.125193  0  0  -0.267912  0  3.139887  0  0  -0.217976  -0.254715  0  3.115443  0
N  N87  1  0.64667897  0.93703548  0.20330978  1  0  -0.26231  0  2.854157  0  0  -0.260139  0  3.126177  0  0  -0.268061  0  3.140812  0  0  -0.217009  -0.254936  0  3.116473  0
