# generated using pymatgen
data_Mn3H30(C22O7)2
_symmetry_space_group_name_H-M   'P 1'
_cell_length_a   13.61921766
_cell_length_b   16.39254437
_cell_length_c   17.16856410
_cell_angle_alpha   66.04855155
_cell_angle_beta   66.64163260
_cell_angle_gamma   65.46260674
_symmetry_Int_Tables_number   1
_chemical_formula_structural   Mn3H30(C22O7)2
_chemical_formula_sum   'Mn6 H60 C88 O28'
_cell_volume   3064.48692567
_cell_formula_units_Z   2
loop_
 _symmetry_equiv_pos_site_id
 _symmetry_equiv_pos_as_xyz
  1  'x, y, z'
loop_
 _atom_site_type_symbol
 _atom_site_label
 _atom_site_symmetry_multiplicity
 _atom_site_fract_x
 _atom_site_fract_y
 _atom_site_fract_z
 _atom_site_occupancy
 _atom_site_pbe_bader_charge
 _atom_site_pbe_bader_spin_density
 _atom_site_pbe_cm5_charge
 _atom_site_pbe_ddec_charge
 _atom_site_pbe_ddec_spin_density
 _atom_site_pbe_ddec_sum_bond_order
 _atom_site_pbe_magmom
Mn  Mn0  1  0.54606689  0.24994654  0.75000203  1  1.575434  4.541184  0.61774  1.094413  4.667553  2.350148  4.483
Mn  Mn1  1  0.45396851  0.75004656  0.24992770  1  1.575745  4.541066  0.61771  1.094504  4.667822  2.349998  4.483
Mn  Mn2  1  0.51852567  0.46967385  0.60234759  1  1.506358  4.561498  0.60936  1.019983  4.671341  2.286949  4.476
Mn  Mn3  1  0.59072075  0.03033392  0.89759418  1  1.507361  4.561307  0.608908  1.019559  4.679208  2.287354  4.476
Mn  Mn4  1  0.48145462  0.53035099  0.39769856  1  1.506756  4.561413  0.60938  1.020175  4.671507  2.286982  4.476
Mn  Mn5  1  0.40924036  0.96970268  0.10241213  1  1.507361  4.561359  0.60892  1.019434  4.679467  2.287453  4.476
H  H6  1  0.59763517  0.59409990  0.74494598  1  0.087674  0.000385  0.104596  0.10733  -7.8e-05  1.000305  0.0
H  H7  1  0.93699694  0.90571462  0.75518816  1  0.083197  0.000385  0.104866  0.107383  -7.9e-05  1.000722  0.0
H  H8  1  0.40237188  0.40590112  0.25506004  1  0.087505  0.000385  0.104652  0.107486  -7.8e-05  1.000197  0.0
H  H9  1  0.06299622  0.09428079  0.24481961  1  0.083056  0.000386  0.104872  0.107394  -7.9e-05  1.000734  0.0
H  H10  1  0.69775641  0.62133655  0.82216064  1  0.074771  0.000108  0.099137  0.101776  4.2e-05  1.014632  0.0
H  H11  1  0.14147227  0.87869784  0.67786808  1  0.076813  0.000108  0.098784  0.101414  4.2e-05  1.013592  0.0
H  H12  1  0.30226460  0.37865054  0.17784396  1  0.074631  0.000108  0.099103  0.101765  4.2e-05  1.014578  0.0
H  H13  1  0.85852009  0.12129553  0.32213605  1  0.076814  0.000108  0.098801  0.101462  4.2e-05  1.013544  0.0
H  H14  1  0.83992369  0.32324784  0.92274377  1  0.070239  8e-05  0.102107  0.103535  2.9e-05  0.994294  0.0
H  H15  1  0.08560074  0.17684570  0.57685561  1  0.027832  7.4e-05  0.101915  0.103773  2.7e-05  0.992492  0.0
H  H16  1  0.16009022  0.67674358  0.07725092  1  0.07039  8e-05  0.102093  0.103473  2.9e-05  0.994223  0.0
H  H17  1  0.91440279  0.82314568  0.42314172  1  0.027917  7.4e-05  0.101966  0.103834  2.7e-05  0.992572  0.0
H  H18  1  0.73613623  0.29723628  0.84701529  1  0.074714  0.0003  0.106803  0.112549  -0.000279  0.997564  0.0
H  H19  1  0.88014213  0.20264932  0.65267223  1  0.099604  0.000281  0.107254  0.113146  -0.000285  0.996365  0.0
H  H20  1  0.26387847  0.70275714  0.15298597  1  0.074626  0.000299  0.106825  0.112593  -0.000279  0.997579  0.0
H  H21  1  0.11985636  0.79734478  0.34732972  1  0.099544  0.000281  0.107294  0.113207  -0.000284  0.996337  0.0
H  H22  1  0.84112312  0.42939612  0.98586621  1  0.049934  0.000368  0.1073  0.087018  0.000218  0.965833  0.0
H  H23  1  0.25627844  0.07075100  0.51396040  1  0.051713  0.000366  0.10751  0.087943  0.000217  0.965105  0.0
H  H24  1  0.15888867  0.57060068  0.01414226  1  0.049914  0.000368  0.10732  0.087046  0.000218  0.965918  0.0
H  H25  1  0.74371525  0.92924307  0.48604363  1  0.051552  0.000366  0.107466  0.087887  0.000217  0.965046  0.0
H  H26  1  0.64911853  0.51369213  0.05212832  1  0.052405  9e-05  0.105932  0.110375  4e-06  0.985152  0.0
H  H27  1  0.21463610  0.98641433  0.44782638  1  0.074502  9.3e-05  0.105514  0.109649  4e-06  0.985789  0.0
H  H28  1  0.35088238  0.48630613  0.94787539  1  0.052423  9e-05  0.105899  0.110297  4e-06  0.98517  0.0
H  H29  1  0.78536013  0.01359442  0.55217601  1  0.074765  9.3e-05  0.105498  0.109647  4e-06  0.985835  0.0
H  H30  1  0.52957937  0.65725660  0.09978148  1  0.105538  0.000466  0.107721  0.108749  -0.000304  1.036606  0.0
H  H31  1  0.28634989  0.84285681  0.40013027  1  0.128986  0.000449  0.107585  0.107617  -0.000307  1.037314  0.0
H  H32  1  0.47041449  0.34275225  0.90021463  1  0.105676  0.000464  0.10778  0.108812  -0.000306  1.036537  0.0
H  H33  1  0.71364924  0.15714853  0.59986726  1  0.129219  0.00045  0.107576  0.107608  -0.000305  1.037401  0.0
H  H34  1  0.76364884  0.80374499  0.90476743  1  0.089812  0.000207  0.112081  0.117265  -0.000363  0.997919  0.0
H  H35  1  0.47216614  0.69649333  0.59499510  1  0.081926  0.00022  0.112174  0.117123  -0.000356  0.99769  0.0
H  H36  1  0.23635313  0.19625059  0.09522881  1  0.089708  0.000207  0.112098  0.117308  -0.000362  0.997873  0.0
H  H37  1  0.52783350  0.30350851  0.40500301  1  0.08186  0.000219  0.112177  0.117169  -0.000357  0.997644  0.0
H  H38  1  0.88580486  0.65882800  0.85850300  1  0.077951  5.3e-05  0.099797  0.10127  -9e-06  1.019237  0.0
H  H39  1  0.40302694  0.84140747  0.64132409  1  0.065966  5.3e-05  0.099046  0.100156  -9e-06  1.019463  0.0
H  H40  1  0.11420374  0.34116680  0.14149905  1  0.078023  5.3e-05  0.099817  0.101299  -9e-06  1.019219  0.0
H  H41  1  0.59697450  0.15858940  0.35867941  1  0.06594  5.3e-05  0.09905  0.100136  -9e-06  1.019491  0.0
H  H42  1  0.02211815  0.38496564  0.98623309  1  0.08045  7.9e-05  0.098384  0.098548  3e-05  1.010536  0.0
H  H43  1  0.39337057  0.11506802  0.51360890  1  0.028033  7.8e-05  0.098036  0.09834  3e-05  1.009742  0.0
H  H44  1  0.97788854  0.61502359  0.01376815  1  0.080194  7.9e-05  0.098366  0.098518  3e-05  1.010539  0.0
H  H45  1  0.60662760  0.88492049  0.48639350  1  0.028098  7.8e-05  0.098067  0.098381  3e-05  1.009694  0.0
H  H46  1  0.22321875  0.35030629  0.90195923  1  0.109987  0.000187  0.09834  0.098234  -0.000247  1.063811  0.0
H  H47  1  0.47562998  0.14963205  0.59793906  1  0.099119  0.00019  0.098251  0.097541  -0.000248  1.064722  0.0
H  H48  1  0.77678609  0.64968167  0.09803432  1  0.110064  0.000187  0.098365  0.098257  -0.000247  1.063784  0.0
H  H49  1  0.52437433  0.85035728  0.40205589  1  0.098558  0.00019  0.098276  0.097556  -0.000248  1.064707  0.0
H  H50  1  0.13342937  0.53306211  0.66133599  1  0.077778  0.000986  0.0992  0.094353  0.000497  1.021141  0.0
H  H51  1  0.32781024  0.96695162  0.83851399  1  0.08068  0.000973  0.099779  0.09478  0.000498  1.02136  0.0
H  H52  1  0.86657072  0.46693204  0.33866312  1  0.077779  0.000984  0.099144  0.094283  0.000496  1.021195  0.0
H  H53  1  0.67220543  0.03303067  0.16148533  1  0.08069  0.000973  0.09977  0.094818  0.000497  1.021433  0.0
H  H54  1  0.93208810  0.56159182  0.74354209  1  0.072914  9.8e-05  0.100263  0.103235  3.4e-05  1.006703  0.0
H  H55  1  0.23712935  0.93851206  0.75624729  1  0.071201  9.9e-05  0.100024  0.102393  3.5e-05  1.006505  0.0
H  H56  1  0.06791254  0.43840506  0.25646107  1  0.072838  9.8e-05  0.100254  0.10321  3.4e-05  1.006674  0.0
H  H57  1  0.76288262  0.06147370  0.24375303  1  0.071212  9.9e-05  0.100028  0.102395  3.5e-05  1.006388  0.0
H  H58  1  0.69068201  0.49134562  0.44640647  1  0.6429  0.001076  0.296666  0.386819  0.000187  0.952264  0.001
H  H59  1  0.62828923  0.00872874  0.05361710  1  0.647752  0.001052  0.296115  0.386307  0.000186  0.952892  0.001
H  H60  1  0.30930919  0.50866591  0.55359644  1  0.642899  0.001074  0.296669  0.386836  0.000186  0.952277  0.001
H  H61  1  0.37170404  0.99127919  0.94639351  1  0.64787  0.001053  0.296107  0.386266  0.000188  0.952964  0.001
H  H62  1  0.74348247  0.40327006  0.51714541  1  0.59985  0.001802  0.32566  0.399819  0.000805  0.87587  0.001
H  H63  1  0.66379567  0.09680144  0.98294282  1  0.624329  0.001681  0.325707  0.400324  0.000813  0.875095  0.001
H  H64  1  0.25644964  0.59674517  0.48289015  1  0.600028  0.001807  0.325746  0.399847  0.000809  0.875786  0.001
H  H65  1  0.33621615  0.90320152  0.01707323  1  0.623978  0.001682  0.325659  0.400232  0.000814  0.875233  0.001
C  C66  1  0.60179526  0.42664747  0.74627817  1  1.548862  0.021585  0.223683  0.59078  0.022584  4.187492  0.019
C  C67  1  0.77484384  0.07298062  0.75379337  1  1.535792  0.021639  0.223233  0.590147  0.022581  4.190275  0.019
C  C68  1  0.39820189  0.57334794  0.25372953  1  1.549366  0.021572  0.223626  0.590959  0.02257  4.187714  0.019
C  C69  1  0.22514919  0.92702808  0.24621178  1  1.53579  0.021624  0.223059  0.589967  0.022569  4.189756  0.019
C  C70  1  0.66052133  0.44408373  0.79224667  1  -0.011332  0.001537  -0.023384  -0.04901  0.000241  3.997532  0.0
C  C71  1  0.89687596  0.05575104  0.70768371  1  -0.021381  0.001496  -0.022544  -0.048779  0.000213  3.99645  0.0
C  C72  1  0.33948359  0.55591462  0.20775111  1  -0.010399  0.001536  -0.023336  -0.048885  0.000243  3.99756  0.0
C  C73  1  0.10311696  0.94424512  0.29232095  1  -0.021371  0.001497  -0.022637  -0.048806  0.000215  3.996345  0.0
C  C74  1  0.65059871  0.53536352  0.78445998  1  -0.02553  0.004603  -0.082462  -0.081315  0.003361  3.985884  0.003
C  C75  1  0.97061242  0.96451432  0.71556339  1  0.033473  0.0046  -0.083244  -0.082392  0.003364  3.986454  0.003
C  C76  1  0.34941176  0.46463271  0.21554038  1  -0.025965  0.004602  -0.082508  -0.081633  0.00336  3.985963  0.003
C  C77  1  0.02938048  0.03547975  0.28444030  1  0.033777  0.004594  -0.083345  -0.082594  0.00336  3.986707  0.003
C  C78  1  0.70748524  0.55008638  0.82702340  1  -0.053644  -0.000763  -0.096963  -0.149268  -0.000782  3.999933  -0.001
C  C79  1  0.08472647  0.94991530  0.67295746  1  -0.08831  -0.000753  -0.095492  -0.14705  -0.000782  3.997403  -0.001
C  C80  1  0.29252521  0.44990775  0.17297717  1  -0.053746  -0.000761  -0.09697  -0.149249  -0.000781  3.999862  -0.001
C  C81  1  0.91526749  0.05007811  0.32704441  1  -0.088632  -0.000752  -0.095417  -0.146944  -0.000781  3.99738  -0.001
C  C82  1  0.77580823  0.47401438  0.87728217  1  -0.064488  0.004445  -0.001995  0.101686  0.003499  3.943572  0.003
C  C83  1  0.12704460  0.02607538  0.62255149  1  -0.090712  0.004447  -0.001531  0.103098  0.0035  3.943114  0.003
C  C84  1  0.22419903  0.52597972  0.12271997  1  -0.063868  0.00444  -0.001988  0.10179  0.003496  3.943909  0.003
C  C85  1  0.87295094  0.97391593  0.37745126  1  -0.09055  0.004443  -0.00154  0.10304  0.003498  3.943016  0.003
C  C86  1  0.78609252  0.38274496  0.88423700  1  -0.050096  -0.000734  -0.094485  -0.145665  -0.000733  4.005845  -0.001
C  C87  1  0.05287786  0.11728658  0.61547948  1  -0.03808  -0.000724  -0.094204  -0.146474  -0.00073  4.002264  -0.001
C  C88  1  0.21391445  0.61724569  0.11576245  1  -0.049942  -0.000735  -0.094477  -0.145619  -0.000733  4.005827  -0.001
C  C89  1  0.94712300  0.88270547  0.38452017  1  -0.038287  -0.000723  -0.094203  -0.146496  -0.000729  4.002329  -0.001
C  C90  1  0.72884110  0.36772410  0.84242513  1  -0.031367  0.004301  -0.082858  -0.084213  0.003044  3.989578  0.003
C  C91  1  0.93881453  0.13219197  0.65733311  1  0.004225  0.004301  -0.083943  -0.084693  0.00305  3.986566  0.003
C  C92  1  0.27116274  0.63227287  0.15757175  1  -0.031687  0.004301  -0.082945  -0.084347  0.003044  3.989599  0.003
C  C93  1  0.06118502  0.86780144  0.34266819  1  0.004214  0.004297  -0.083983  -0.084758  0.003047  3.986508  0.003
C  C94  1  0.84011605  0.48760016  0.92401041  1  0.009107  8.8e-05  -0.067262  -0.111178  7.9e-05  3.913496  0.0
C  C95  1  0.25161178  0.01255014  0.57582012  1  0.002311  8.6e-05  -0.068578  -0.114241  7.7e-05  3.915091  0.0
C  C96  1  0.15989199  0.51239386  0.07599676  1  0.008706  8.8e-05  -0.067366  -0.111342  7.9e-05  3.913541  0.0
C  C97  1  0.74838245  0.98744460  0.42418583  1  0.002233  8.8e-05  -0.068506  -0.114037  7.8e-05  3.914664  0.0
C  C98  1  0.77565539  0.57662736  0.95226246  1  -0.002302  0.006369  0.003309  0.107255  0.005033  3.93733  0.004
C  C99  1  0.30439249  0.92351482  0.54760005  1  -0.01384  0.006388  0.002228  0.105185  0.005046  3.938819  0.004
C  C100  1  0.22434948  0.42336674  0.04774044  1  -0.001536  0.006364  0.003425  0.107448  0.005029  3.936987  0.004
C  C101  1  0.69560657  0.07648414  0.45240339  1  -0.014183  0.006386  0.002226  0.105172  0.005044  3.938559  0.004
C  C102  1  0.67490002  0.57710206  0.02032616  1  -0.028322  -0.001396  -0.088233  -0.139985  -0.001458  3.972728  -0.001
C  C103  1  0.27208158  0.92302478  0.47957987  1  -0.056113  -0.001397  -0.086747  -0.137273  -0.001459  3.970581  -0.001
C  C104  1  0.32510114  0.42289345  0.97967560  1  -0.028829  -0.001391  -0.088253  -0.140054  -0.001452  3.972819  -0.001
C  C105  1  0.72791651  0.07698330  0.52042045  1  -0.055982  -0.001393  -0.086708  -0.137313  -0.001455  3.970852  -0.001
C  C106  1  0.60731873  0.65707414  0.04678518  1  -0.053934  0.006164  -0.076046  -0.071001  0.004332  3.966323  0.004
C  C107  1  0.31096855  0.84308130  0.45308398  1  -0.011593  0.006149  -0.07642  -0.070021  0.004335  3.96635  0.004
C  C108  1  0.39267982  0.34292424  0.95321048  1  -0.054385  0.00616  -0.076134  -0.070974  0.004327  3.966274  0.004
C  C109  1  0.68902614  0.15693173  0.54691204  1  -0.012033  0.006149  -0.076425  -0.070012  0.004335  3.96675  0.004
C  C110  1  0.63946218  0.73907912  0.00508625  1  -0.003772  -0.000329  -0.021395  -0.060808  -0.001889  4.009181  -0.001
C  C111  1  0.38354998  0.76112653  0.49471519  1  -0.079155  -0.000328  -0.021348  -0.061742  -0.001916  4.007312  -0.001
C  C112  1  0.36053718  0.26091931  0.99490623  1  -0.003343  -0.000328  -0.021371  -0.060874  -0.001887  4.009187  -0.001
C  C113  1  0.61644925  0.23888726  0.50527681  1  -0.078627  -0.000319  -0.021477  -0.061719  -0.001907  4.007089  -0.001
C  C114  1  0.73963118  0.73956709  0.93679672  1  0.011537  0.006735  -0.07485  -0.0759  0.005014  3.952935  0.004
C  C115  1  0.41593422  0.76064901  0.56300723  1  -0.018713  0.006731  -0.075138  -0.075591  0.005011  3.950663  0.004
C  C116  1  0.26036948  0.26042988  0.06320057  1  0.011792  0.00673  -0.074832  -0.075909  0.00501  3.952711  0.004
C  C117  1  0.58406382  0.23935282  0.43699137  1  -0.018492  0.006728  -0.075097  -0.075701  0.005009  3.950653  0.004
C  C118  1  0.80752964  0.65849557  0.91112352  1  -0.116656  -0.001271  -0.094073  -0.148708  -0.001296  3.991293  -0.001
C  C119  1  0.37700436  0.84169159  0.58873962  1  -0.034656  -0.001286  -0.093048  -0.147006  -0.001291  3.991171  -0.001
C  C120  1  0.19247443  0.34149853  0.08887845  1  -0.116769  -0.001266  -0.094076  -0.148742  -0.00129  3.99106  -0.001
C  C121  1  0.62299442  0.15830598  0.41126386  1  -0.034544  -0.001281  -0.093113  -0.146959  -0.001286  3.991057  -0.001
C  C122  1  0.56879600  0.82410056  0.03390266  1  1.525127  0.032837  0.236696  0.606269  0.031562  4.134915  0.029
C  C123  1  0.42673600  0.67609110  0.46591473  1  1.508081  0.032918  0.237116  0.607963  0.031486  4.129583  0.029
C  C124  1  0.43121191  0.17590276  0.96608942  1  1.525269  0.032826  0.236676  0.606434  0.031556  4.134834  0.029
C  C125  1  0.57325950  0.32394188  0.53405374  1  1.507662  0.032943  0.237194  0.607805  0.031517  4.129879  0.029
C  C126  1  0.96246325  0.47592244  0.87111008  1  -0.014148  0.003217  -0.002471  0.102053  0.002531  3.939224  0.002
C  C127  1  0.30945997  0.02417286  0.62872085  1  -0.030372  0.003205  -0.002082  0.10089  0.002521  3.941757  0.002
C  C128  1  0.03754053  0.52407026  0.12889250  1  -0.014487  0.003223  -0.002486  0.102057  0.002536  3.939153  0.002
C  C129  1  0.69054118  0.97582055  0.37128054  1  -0.030066  0.003199  -0.002103  0.1008  0.002517  3.941628  0.002
C  C130  1  0.04605535  0.41735955  0.91473968  1  -0.149042  -0.000526  -0.095512  -0.145308  -0.000546  3.992472  0.0
C  C131  1  0.37819563  0.08267649  0.58510808  1  -0.023319  -0.000529  -0.094221  -0.143223  -0.000536  3.991991  0.0
C  C132  1  0.95395029  0.58263040  0.08525986  1  -0.148974  -0.00053  -0.095431  -0.145184  -0.00055  3.992327  0.0
C  C133  1  0.62180891  0.91731203  0.41489409  1  -0.023685  -0.00053  -0.094227  -0.143147  -0.000537  3.991772  0.0
C  C134  1  0.15901961  0.39800883  0.86805590  1  0.020706  0.003451  -0.08372  -0.074739  0.00239  3.97329  0.002
C  C135  1  0.42517663  0.10197807  0.63180918  1  -0.059177  0.003462  -0.08477  -0.075534  0.00239  3.973756  0.002
C  C136  1  0.84098498  0.60198186  0.13194137  1  0.020892  0.003456  -0.083754  -0.074787  0.002394  3.97317  0.002
C  C137  1  0.57483323  0.89800909  0.36819069  1  -0.058416  0.00346  -0.084816  -0.075632  0.002389  3.973781  0.002
C  C138  1  0.19214084  0.43915744  0.77637339  1  -0.02451  0.002318  -0.021206  -0.050151  0.001104  3.97638  0.001
C  C139  1  0.40768307  0.06083910  0.72349786  1  0.046543  0.002268  -0.022874  -0.051249  0.001108  3.97664  0.001
C  C140  1  0.80785610  0.56084088  0.22362629  1  -0.02446  0.002316  -0.021195  -0.050155  0.001101  3.976267  0.001
C  C141  1  0.59232840  0.93915015  0.27650189  1  0.046557  0.002263  -0.022875  -0.051204  0.001104  3.976602  0.001
C  C142  1  0.10912088  0.50047222  0.73263647  1  -0.04793  0.003864  -0.085599  -0.084609  0.002835  3.988537  0.002
C  C143  1  0.34220780  0.99955435  0.76721247  1  -0.094732  0.003882  -0.087233  -0.087666  0.002829  3.989903  0.002
C  C144  1  0.89087763  0.49952400  0.26736410  1  -0.047968  0.003869  -0.085601  -0.08456  0.002839  3.988465  0.002
C  C145  1  0.65780367  0.00043489  0.23278845  1  -0.094549  0.003881  -0.087263  -0.087819  0.002828  3.990052  0.002
C  C146  1  0.99569498  0.51738026  0.77927956  1  -0.064301  -0.000557  -0.095313  -0.145601  -0.000595  3.987103  0.0
C  C147  1  0.29229648  0.98269120  0.72054851  1  -0.044584  -0.000557  -0.093498  -0.141029  -0.000595  3.985033  0.0
C  C148  1  0.00430352  0.48261592  0.22072335  1  -0.063924  -0.000562  -0.095289  -0.145614  -0.0006  3.987106  0.0
C  C149  1  0.70771312  0.01729870  0.27945507  1  -0.044813  -0.000558  -0.093523  -0.141014  -0.000596  3.984951  0.0
C  C150  1  0.31475941  0.41529602  0.72907487  1  1.566835  0.01977  0.234531  0.614372  0.019364  4.131192  0.017
C  C151  1  0.45914199  0.08467714  0.77085834  1  1.542412  0.019801  0.235391  0.614888  0.019342  4.131707  0.017
C  C152  1  0.68523860  0.58470366  0.27092746  1  1.566813  0.019775  0.234562  0.6144  0.019369  4.131167  0.017
C  C153  1  0.54086775  0.91532337  0.22913540  1  1.542796  0.019773  0.235353  0.614848  0.01932  4.132107  0.017
O  O154  1  0.61294262  0.34208293  0.75761343  1  -1.202597  0.07189  -0.304364  -0.576242  0.05263  2.361309  0.035
O  O155  1  0.71261308  0.15749685  0.74255469  1  -1.214345  0.072142  -0.303599  -0.57572  0.052845  2.362472  0.035
O  O156  1  0.38706551  0.65791551  0.24237808  1  -1.203077  0.071918  -0.304421  -0.576416  0.052643  2.361621  0.035
O  O157  1  0.28738826  0.84251351  0.25743328  1  -1.214245  0.072108  -0.303437  -0.575625  0.052822  2.362171  0.035
O  O158  1  0.54510037  0.49771490  0.69661718  1  -1.196551  0.080127  -0.322109  -0.565248  0.052932  2.270223  0.034
O  O159  1  0.73972441  0.00183985  0.80352090  1  -1.186143  0.080007  -0.322464  -0.565759  0.052837  2.271462  0.034
O  O160  1  0.45486329  0.50228855  0.30341303  1  -1.197173  0.080067  -0.322121  -0.565496  0.052914  2.26996  0.034
O  O161  1  0.26026042  0.99817976  0.19650192  1  -1.18624  0.080007  -0.322396  -0.565615  0.052837  2.270946  0.034
O  O162  1  0.58970281  0.90140810  0.98870352  1  -1.223843  0.103875  -0.301267  -0.5653  0.074754  2.423112  0.05
O  O163  1  0.47974239  0.59877963  0.51116194  1  -1.225557  0.104022  -0.301293  -0.566174  0.074906  2.419442  0.05
O  O164  1  0.41032601  0.09858414  0.01128333  1  -1.224184  0.10396  -0.301308  -0.565517  0.074807  2.423538  0.05
O  O165  1  0.52026259  0.40123889  0.48879388  1  -1.225795  0.104  -0.301254  -0.565986  0.074875  2.420049  0.05
O  O166  1  0.48498381  0.82047718  0.10409801  1  -1.227078  0.106439  -0.298634  -0.598796  0.079626  2.42477  0.047
O  O167  1  0.40949916  0.67965129  0.39573365  1  -1.212473  0.106126  -0.299116  -0.599924  0.07971  2.423309  0.047
O  O168  1  0.51501301  0.17953453  0.89589260  1  -1.227242  0.106431  -0.298616  -0.598689  0.079609  2.424453  0.047
O  O169  1  0.59047208  0.32040398  0.60423746  1  -1.212096  0.106167  -0.299134  -0.599941  0.079772  2.42398  0.047
O  O170  1  0.34805909  0.46839139  0.65058053  1  -1.212901  0.066977  -0.312187  -0.593185  0.046297  2.32836  0.03
O  O171  1  0.46711602  0.03157698  0.84932594  1  -1.209936  0.066874  -0.312048  -0.592802  0.04615  2.328165  0.03
O  O172  1  0.65193931  0.53162222  0.34942345  1  -1.212944  0.06696  -0.312078  -0.593072  0.046286  2.328402  0.03
O  O173  1  0.53289351  0.96843048  0.15066991  1  -1.210139  0.066842  -0.31201  -0.59274  0.046123  2.328206  0.03
O  O174  1  0.38068555  0.34494736  0.76951209  1  -1.211592  0.06714  -0.295082  -0.563893  0.049115  2.347052  0.03
O  O175  1  0.49505892  0.15508935  0.73043097  1  -1.199208  0.066934  -0.2946  -0.563493  0.049095  2.348366  0.03
O  O176  1  0.61931271  0.65504962  0.23048419  1  -1.211509  0.067176  -0.295179  -0.563999  0.049141  2.347194  0.03
O  O177  1  0.50494579  0.84491393  0.26956386  1  -1.19941  0.066887  -0.294552  -0.563465  0.049051  2.348304  0.03
O  O178  1  0.69550223  0.46788920  0.50868734  1  -1.227951  0.049747  -0.558959  -0.739818  0.035083  2.021326  0.024
O  O179  1  0.67200409  0.03217535  0.99137737  1  -1.256782  0.049918  -0.558243  -0.739568  0.035216  2.02168  0.024
O  O180  1  0.30447479  0.53214319  0.49132029  1  -1.228142  0.049776  -0.559016  -0.739846  0.035094  2.021498  0.024
O  O181  1  0.32799211  0.96783327  0.00863382  1  -1.256458  0.049923  -0.558117  -0.739327  0.035221  2.021967  0.024
