# generated using pymatgen
data_DyH18C18(NO2)4
_symmetry_space_group_name_H-M   'P 1'
_cell_length_a   9.86552473
_cell_length_b   10.30709388
_cell_length_c   11.01659307
_cell_angle_alpha   77.34504887
_cell_angle_beta   76.48913779
_cell_angle_gamma   65.72790854
_symmetry_Int_Tables_number   1
_chemical_formula_structural   DyH18C18(NO2)4
_chemical_formula_sum   'Dy2 H36 C36 N8 O16'
_cell_volume   983.32350492
_cell_formula_units_Z   2
loop_
 _symmetry_equiv_pos_site_id
 _symmetry_equiv_pos_as_xyz
  1  'x, y, z'
loop_
 _atom_site_type_symbol
 _atom_site_label
 _atom_site_symmetry_multiplicity
 _atom_site_fract_x
 _atom_site_fract_y
 _atom_site_fract_z
 _atom_site_occupancy
 _atom_site_hle17_bader_spin_density
 _atom_site_hle17_ddec_charge
 _atom_site_hle17_ddec_spin_density
 _atom_site_hle17_ddec_sum_bond_order
 _atom_site_hle17_magmom
 _atom_site_hse06_10hf_bader_spin_density
 _atom_site_hse06_10hf_ddec_charge
 _atom_site_hse06_10hf_ddec_spin_density
 _atom_site_hse06_10hf_ddec_sum_bond_order
 _atom_site_hse06_10hf_magmom
 _atom_site_hse06_bader_spin_density
 _atom_site_hse06_ddec_charge
 _atom_site_hse06_ddec_spin_density
 _atom_site_hse06_ddec_sum_bond_order
 _atom_site_hse06_magmom
 _atom_site_pbe_bader_spin_density
 _atom_site_pbe_cm5_charge
 _atom_site_pbe_ddec_charge
 _atom_site_pbe_ddec_spin_density
 _atom_site_pbe_ddec_sum_bond_order
 _atom_site_pbe_magmom
Dy  Dy0  1  0.05552635  0.77198211  0.17615917  1  0  2.231265  0  1.680975  0  0  2.089492  0  2.158234  0  0  2.21387  0  1.973529  0  0  1.529115  2.052123  0  2.192063  0
Dy  Dy1  1  0.94447346  0.22801769  0.82384091  1  0  2.231295  0  1.680955  0  0  2.089521  0  2.158197  0  0  2.213896  0  1.973503  0  0  1.529111  2.052147  0  2.192017  0
H  H2  1  0.96672494  0.38117262  0.06246352  1  0  0.324308  0  0.896639  0  0  0.30511  0  0.959979  0  0  0.313497  0  0.952944  0  0  0.314907  0.299097  0  0.965183  0
H  H3  1  0.03327653  0.61882826  0.93753689  1  0  0.324405  0  0.896532  0  0  0.30522  0  0.959851  0  0  0.313604  0  0.952817  0  0  0.315  0.299208  0  0.965054  0
H  H4  1  0.07797945  0.46217558  0.36462487  1  0  0.318925  0  0.901433  0  0  0.30472  0  0.956133  0  0  0.312064  0  0.950722  0  0  0.319205  0.29938  0  0.960403  0
H  H5  1  0.92202055  0.53782638  0.63537472  1  0  0.318947  0  0.901431  0  0  0.304742  0  0.956131  0  0  0.312087  0  0.950717  0  0  0.319216  0.2994  0  0.9604  0
H  H6  1  0.28341129  0.85295009  0.74866913  1  0  0.306489  0  0.906806  0  0  0.290163  0  0.970794  0  0  0.297209  0  0.965472  0  0  0.312206  0.285336  0  0.974245  0
H  H7  1  0.71658871  0.14705186  0.25133046  1  0  0.30649  0  0.906817  0  0  0.29016  0  0.970802  0  0  0.297206  0  0.965477  0  0  0.312205  0.285334  0  0.974256  0
H  H8  1  0.44796780  0.63335374  0.06587963  1  0  0.326041  0  0.911769  0  0  0.309988  0  0.969333  0  0  0.318187  0  0.96223  0  0  0.318637  0.30434  0  0.974116  0
H  H9  1  0.55203220  0.36664821  0.93411996  1  0  0.326042  0  0.911768  0  0  0.309986  0  0.969332  0  0  0.318183  0  0.962229  0  0  0.318645  0.304337  0  0.97411  0
H  H10  1  0.70597845  0.08245266  0.49465708  1  0  0.106218  0  0.931597  0  0  0.118828  0  0.984582  0  0  0.12263  0  0.982189  0  0  0.110152  0.116163  0  0.986248  0
H  H11  1  0.29402056  0.91754392  0.50534384  1  0  0.106301  0  0.931542  0  0  0.118874  0  0.984574  0  0  0.122693  0  0.982159  0  0  0.110165  0.116206  0  0.986247  0
H  H12  1  0.55142002  0.79815395  0.38525640  1  0  0.095961  0  0.976615  0  0  0.105056  0  1.041337  0  0  0.107384  0  1.041137  0  0  0.102485  0.103125  0  1.042012  0
H  H13  1  0.44857918  0.20184477  0.61474312  1  0  0.095957  0  0.976632  0  0  0.105055  0  1.041341  0  0  0.10738  0  1.041151  0  0  0.102481  0.103126  0  1.042009  0
H  H14  1  0.56591710  0.58967594  0.27454721  1  0  0.105693  0  0.931294  0  0  0.119505  0  0.982876  0  0  0.123278  0  0.980455  0  0  0.109769  0.116926  0  0.984418  0
H  H15  1  0.43408394  0.41032601  0.72545216  1  0  0.105693  0  0.931265  0  0  0.1195  0  0.982854  0  0  0.123274  0  0.980431  0  0  0.109767  0.116917  0  0.984389  0
H  H16  1  0.24341789  0.49627249  0.58150738  1  0  0.114454  0  0.956042  0  0  0.119101  0  1.024387  0  0  0.123438  0  1.021261  0  0  0.10876  0.116106  0  1.026565  0
H  H17  1  0.75658187  0.50373269  0.41849249  1  0  0.114427  0  0.956061  0  0  0.119063  0  1.024427  0  0  0.123401  0  1.0213  0  0  0.108729  0.11607  0  1.026603  0
H  H18  1  0.39275240  0.87162355  0.19115566  1  0  0.103548  0  0.955347  0  0  0.110212  0  1.021667  0  0  0.114036  0  1.019034  0  0  0.105668  0.107352  0  1.023738  0
H  H19  1  0.60724576  0.12837519  0.80884589  1  0  0.103559  0  0.95542  0  0  0.110213  0  1.021742  0  0  0.114045  0  1.019102  0  0  0.10567  0.107349  0  1.023806  0
H  H20  1  0.33689680  0.15148656  0.83965098  1  0  0.106318  0  0.974433  0  0  0.113613  0  1.039207  0  0  0.117271  0  1.037064  0  0  0.107044  0.110797  0  1.041118  0
H  H21  1  0.66310221  0.84851000  0.16034722  1  0  0.106346  0  0.974396  0  0  0.113623  0  1.039189  0  0  0.11728  0  1.037046  0  0  0.107044  0.110806  0  1.041104  0
H  H22  1  0.98195368  0.25330764  0.45019966  1  0  0.086633  0  0.941922  0  0  0.101047  0  1.00146  0  0  0.10243  0  1.000926  0  0  0.110198  0.100072  0  1.001737  0
H  H23  1  0.01804822  0.74669217  0.54979998  1  0  0.086607  0  0.941947  0  0  0.101028  0  1.00149  0  0  0.102412  0  1.000956  0  0  0.110178  0.100049  0  1.00177  0
H  H24  1  0.15921301  0.18460306  0.34961175  1  0  0.051715  0  0.923788  0  0  0.068971  0  0.984121  0  0  0.068965  0  0.985065  0  0  0.096534  0.068631  0  0.983878  0
H  H25  1  0.84078784  0.81539674  0.65038811  1  0  0.051736  0  0.923752  0  0  0.068999  0  0.984096  0  0  0.068994  0  0.985039  0  0  0.096531  0.068653  0  0.983851  0
H  H26  1  0.00644181  0.14852359  0.22706126  1  0  0.096297  0  0.952338  0  0  0.111155  0  1.009093  0  0  0.112879  0  1.008159  0  0  0.114098  0.109938  0  1.009638  0
H  H27  1  0.99355904  0.85147622  0.77293951  1  0  0.096265  0  0.952328  0  0  0.111114  0  1.0091  0  0  0.112837  0  1.008165  0  0  0.114069  0.109895  0  1.009639  0
H  H28  1  0.84163924  0.29249152  0.28340610  1  0  0.052779  0  0.943066  0  0  0.064655  0  1.013432  0  0  0.065054  0  1.013587  0  0  0.096476  0.064408  0  1.013257  0
H  H29  1  0.15836180  0.70751043  0.71659327  1  0  0.052747  0  0.943072  0  0  0.06469  0  1.013358  0  0  0.065088  0  1.013513  0  0  0.096485  0.064437  0  1.013185  0
H  H30  1  0.53445405  0.86009534  0.73384767  1  0  0.051744  0  0.962741  0  0  0.06447  0  1.031946  0  0  0.063348  0  1.03546  0  0  0.095399  0.06444  0  1.030828  0
H  H31  1  0.46554741  0.13990553  0.26615183  1  0  0.051756  0  0.962761  0  0  0.064484  0  1.031938  0  0  0.063362  0  1.035457  0  0  0.095392  0.064447  0  1.030831  0
H  H32  1  0.58148068  0.69288324  0.68215099  1  0  0.054582  0  0.941672  0  0  0.068381  0  1.006023  0  0  0.068011  0  1.007577  0  0  0.095184  0.068373  0  1.005061  0
H  H33  1  0.41851932  0.30711871  0.31784860  1  0  0.054588  0  0.941693  0  0  0.068368  0  1.006044  0  0  0.068016  0  1.007581  0  0  0.09516  0.068358  0  1.005085  0
H  H34  1  0.67326698  0.56738829  0.87260216  1  0  0.06634  0  0.962146  0  0  0.07437  0  1.032903  0  0  0.0753  0  1.033085  0  0  0.103333  0.073177  0  1.033773  0
H  H35  1  0.32673510  0.43261366  0.12739699  1  0  0.066333  0  0.962158  0  0  0.074366  0  1.032899  0  0  0.075296  0  1.033079  0  0  0.10332  0.073171  0  1.033773  0
H  H36  1  0.63819797  0.73486476  0.91880104  1  0  0.060618  0  0.943333  0  0  0.07343  0  1.00728  0  0  0.073297  0  1.008855  0  0  0.098024  0.073603  0  1.005791  0
H  H37  1  0.36179994  0.26513720  0.08119989  1  0  0.060651  0  0.943314  0  0  0.073442  0  1.007271  0  0  0.073307  0  1.008848  0  0  0.098025  0.073616  0  1.005784  0
C  C38  1  0.64387963  0.93315353  0.43259546  1  0  -0.055429  0  3.739506  0  0  -0.033341  0  3.970581  0  0  -0.038148  0  3.989962  0  0  -0.013789  -0.029583  0  3.956426  0
C  C39  1  0.35611938  0.06684304  0.56740546  1  0  -0.055512  0  3.739433  0  0  -0.033441  0  3.970527  0  0  -0.038239  0  3.989897  0  0  -0.013814  -0.029681  0  3.956375  0
C  C40  1  0.61518398  0.04675039  0.49784936  1  0  -0.077477  0  3.731424  0  0  -0.100024  0  3.983132  0  0  -0.100024  0  4.000262  0  0  -0.080087  -0.099714  0  3.970777  0
C  C41  1  0.38481522  0.95324834  0.50215107  1  0  -0.077539  0  3.731369  0  0  -0.10005  0  3.983063  0  0  -0.100068  0  4.00019  0  0  -0.08009  -0.09974  0  3.970721  0
C  C42  1  0.52775433  0.88679324  0.43564775  1  0  -0.071992  0  3.729922  0  0  -0.095415  0  3.979968  0  0  -0.096011  0  3.999717  0  0  -0.079333  -0.094864  0  3.966856  0
C  C43  1  0.47224486  0.11320549  0.56435268  1  0  -0.072004  0  3.729865  0  0  -0.095431  0  3.97994  0  0  -0.096027  0  3.999677  0  0  -0.079352  -0.094883  0  3.966824  0
C  C44  1  0.79433565  0.86749748  0.35367715  1  0  0.62501  0  3.954002  0  0  0.581526  0  4.247087  0  0  0.613842  0  4.247432  0  0  0.189265  0.558988  0  4.251473  0
C  C45  1  0.20566354  0.13250125  0.64632328  1  0  0.625202  0  3.953812  0  0  0.581728  0  4.24688  0  0  0.614042  0  4.247223  0  0  0.189318  0.559182  0  4.251278  0
C  C46  1  0.39281901  0.54967763  0.41956348  1  0  -0.055167  0  3.746615  0  0  -0.03276  0  3.977273  0  0  -0.03847  0  3.998438  0  0  -0.013238  -0.028773  0  3.962074  0
C  C47  1  0.60718117  0.45032647  0.58043562  1  0  -0.055148  0  3.746696  0  0  -0.032752  0  3.977355  0  0  -0.038454  0  3.998522  0  0  -0.013251  -0.02876  0  3.962149  0
C  C48  1  0.53812023  0.54966139  0.37340943  1  0  -0.063187  0  3.710222  0  0  -0.08741  0  3.962612  0  0  -0.087619  0  3.980435  0  0  -0.077847  -0.086641  0  3.949657  0
C  C49  1  0.46187892  0.45034271  0.62658989  1  0  -0.063208  0  3.710168  0  0  -0.087425  0  3.962575  0  0  -0.087642  0  3.980399  0  0  -0.077857  -0.086649  0  3.949601  0
C  C50  1  0.35518721  0.49918525  0.54676246  1  0  -0.066436  0  3.702243  0  0  -0.090312  0  3.955882  0  0  -0.090774  0  3.973903  0  0  -0.076984  -0.089869  0  3.943493  0
C  C51  1  0.64481341  0.50081778  0.45323768  1  0  -0.066427  0  3.702339  0  0  -0.090287  0  3.955956  0  0  -0.090755  0  3.973978  0  0  -0.076936  -0.089849  0  3.943573  0
C  C52  1  0.27793188  0.60690797  0.33387166  1  0  0.629297  0  3.948841  0  0  0.584979  0  4.240699  0  0  0.617182  0  4.240928  0  0  0.199655  0.56255  0  4.245708  0
C  C53  1  0.72206812  0.39309397  0.66612702  1  0  0.629255  0  3.948952  0  0  0.584933  0  4.240815  0  0  0.617132  0  4.241047  0  0  0.199608  0.562493  0  4.245829  0
C  C54  1  0.35070205  0.01299539  0.01750293  1  0  -0.068934  0  3.737472  0  0  -0.048463  0  3.968789  0  0  -0.054178  0  3.987956  0  0  -0.013488  -0.044388  0  3.953732  0
C  C55  1  0.64929653  0.98700225  0.98249604  1  0  -0.068957  0  3.73747  0  0  -0.048497  0  3.968797  0  0  -0.054212  0  3.987965  0  0  -0.013501  -0.044418  0  3.953734  0
C  C56  1  0.44117060  0.92802740  0.10865519  1  0  -0.0722  0  3.733955  0  0  -0.096379  0  3.987947  0  0  -0.096667  0  4.006192  0  0  -0.082073  -0.095888  0  3.975336  0
C  C57  1  0.55882797  0.07197025  0.89134559  1  0  -0.072217  0  3.734125  0  0  -0.096382  0  3.988119  0  0  -0.096679  0  4.006357  0  0  -0.082053  -0.095886  0  3.975491  0
C  C58  1  0.40978621  0.08520174  0.90881004  1  0  -0.077572  0  3.722732  0  0  -0.098293  0  3.969884  0  0  -0.098733  0  3.988092  0  0  -0.082528  -0.097381  0  3.957068  0
C  C59  1  0.59021426  0.91479376  0.09118989  1  0  -0.07759  0  3.722655  0  0  -0.098294  0  3.969821  0  0  -0.098732  0  3.988023  0  0  -0.082496  -0.097381  0  3.957009  0
C  C60  1  0.19233688  0.02262790  0.03362836  1  0  0.736752  0  3.852426  0  0  0.688992  0  4.142682  0  0  0.725633  0  4.133891  0  0  0.244084  0.665096  0  4.149527  0
C  C61  1  0.80766379  0.97736976  0.96637199  1  0  0.736737  0  3.852485  0  0  0.688983  0  4.142751  0  0  0.725623  0  4.133962  0  0  0.244062  0.665079  0  4.149604  0
C  C62  1  0.03049150  0.45486191  0.19297883  1  0  0.736883  0  3.8959  0  0  0.66998  0  4.197287  0  0  0.70466  0  4.194474  0  0  0.340896  0.646615  0  4.200065  0
C  C63  1  0.96950893  0.54513896  0.80701998  1  0  0.73678  0  3.896032  0  0  0.669884  0  4.19743  0  0  0.704563  0  4.19462  0  0  0.340859  0.646514  0  4.200217  0
C  C64  1  0.04285665  0.26544224  0.35438459  1  0  0.044587  0  3.602492  0  0  -0.012883  0  3.865447  0  0  -0.009004  0  3.875819  0  0  -0.052346  -0.01502  0  3.857598  0
C  C65  1  0.95714524  0.73455756  0.64561505  1  0  0.044605  0  3.602462  0  0  -0.012919  0  3.865492  0  0  -0.009043  0  3.875865  0  0  -0.052352  -0.015052  0  3.857636  0
C  C66  1  0.96445765  0.25640548  0.25281864  1  0  0.037516  0  3.594906  0  0  -0.021456  0  3.859021  0  0  -0.016963  0  3.867968  0  0  -0.056393  -0.024072  0  3.852057  0
C  C67  1  0.03554320  0.74359433  0.74718212  1  0  0.037511  0  3.594874  0  0  -0.021454  0  3.85898  0  0  -0.016959  0  3.867919  0  0  -0.056361  -0.024071  0  3.852007  0
C  C68  1  0.32924241  0.72666827  0.91814336  1  0  0.742437  0  3.893441  0  0  0.676792  0  4.192883  0  0  0.711947  0  4.188185  0  0  0.338788  0.653354  0  4.19662  0
C  C69  1  0.67075716  0.27333476  0.08185609  1  0  0.74241  0  3.893476  0  0  0.676694  0  4.193008  0  0  0.711867  0  4.188279  0  0  0.338737  0.653254  0  4.196747  0
C  C70  1  0.52379095  0.75528357  0.76105848  1  0  0.045597  0  3.607165  0  0  -0.012046  0  3.869548  0  0  -0.008273  0  3.882459  0  0  -0.057779  -0.014284  0  3.861128  0
C  C71  1  0.47620904  0.24471839  0.23894202  1  0  0.045528  0  3.607239  0  0  -0.012079  0  3.869554  0  0  -0.008323  0  3.882468  0  0  -0.057753  -0.014306  0  3.861129  0
C  C72  1  0.58788304  0.67512636  0.88456624  1  0  0.042389  0  3.592999  0  0  -0.008987  0  3.846109  0  0  -0.004804  0  3.856341  0  0  -0.055369  -0.011573  0  3.838695  0
C  C73  1  0.41211739  0.32487452  0.11543348  1  0  0.042348  0  3.593001  0  0  -0.009013  0  3.846092  0  0  -0.004828  0  3.856326  0  0  -0.055359  -0.011606  0  3.838681  0
N  N74  1  0.00037416  0.35893295  0.14828051  1  0  -0.476824  0  3.185692  0  0  -0.416058  0  3.434076  0  0  -0.436311  0  3.436945  0  0  -0.424738  -0.401972  0  3.430858  0
N  N75  1  0.99962773  0.64106685  0.85172004  1  0  -0.47681  0  3.185632  0  0  -0.416102  0  3.434107  0  0  -0.436342  0  3.436961  0  0  -0.424848  -0.402016  0  3.430891  0
N  N76  1  0.04320382  0.41050639  0.31661098  1  0  -0.483747  0  3.222868  0  0  -0.424027  0  3.473226  0  0  -0.444279  0  3.478127  0  0  -0.426231  -0.410259  0  3.46986  0
N  N77  1  0.95679911  0.58949341  0.68338844  1  0  -0.483777  0  3.222947  0  0  -0.424034  0  3.473315  0  0  -0.444289  0  3.47822  0  0  -0.426227  -0.410269  0  3.469951  0
N  N78  1  0.36538320  0.77180345  0.79295289  1  0  -0.495482  0  3.187066  0  0  -0.439512  0  3.441171  0  0  -0.459695  0  3.445717  0  0  -0.436863  -0.425983  0  3.437119  0
N  N79  1  0.63461741  0.22819958  0.20704725  1  0  -0.495465  0  3.187067  0  0  -0.439467  0  3.441154  0  0  -0.459652  0  3.445695  0  0  -0.43685  -0.425939  0  3.437097  0
N  N80  1  0.45514668  0.66639303  0.97116468  1  0  -0.487404  0  3.271405  0  0  -0.427586  0  3.518463  0  0  -0.448444  0  3.523649  0  0  -0.433081  -0.4136  0  3.513923  0
N  N81  1  0.54485461  0.33360570  0.02883441  1  0  -0.487304  0  3.271349  0  0  -0.427466  0  3.518413  0  0  -0.448327  0  3.523589  0  0  -0.433041  -0.413472  0  3.513861  0
O  O82  1  0.82968271  0.74830426  0.31504898  1  0  -0.678009  0  1.969439  0  0  -0.635126  0  2.207727  0  0  -0.666872  0  2.199236  0  0  -0.369563  -0.618286  0  2.212906  0
O  O83  1  0.17031691  0.25169339  0.68495067  1  0  -0.67814  0  1.969431  0  0  -0.635262  0  2.207724  0  0  -0.667008  0  2.199233  0  0  -0.369625  -0.618423  0  2.212909  0
O  O84  1  0.88260291  0.93703963  0.32168572  1  0  -0.706228  0  1.934383  0  0  -0.660962  0  2.168443  0  0  -0.693195  0  2.158114  0  0  -0.382716  -0.644378  0  2.174385  0
O  O85  1  0.11739628  0.06295909  0.67831380  1  0  -0.706276  0  1.934338  0  0  -0.661007  0  2.168387  0  0  -0.693241  0  2.158057  0  0  -0.382715  -0.64442  0  2.174327  0
O  O86  1  0.31636853  0.64604021  0.21692309  1  0  -0.711752  0  2.068711  0  0  -0.664461  0  2.317309  0  0  -0.697191  0  2.309329  0  0  -0.366078  -0.647512  0  2.323171  0
O  O87  1  0.68363233  0.35395959  0.78307677  1  0  -0.711749  0  2.068714  0  0  -0.664454  0  2.317309  0  0  -0.697185  0  2.309336  0  0  -0.366067  -0.647501  0  2.323167  0
O  O88  1  0.14088781  0.62130414  0.37666597  1  0  -0.695555  0  1.984291  0  0  -0.648387  0  2.219378  0  0  -0.679447  0  2.21071  0  0  -0.358565  -0.632137  0  2.225288  0
O  O89  1  0.85911219  0.37869782  0.62333362  1  0  -0.695543  0  1.984349  0  0  -0.648374  0  2.219439  0  0  -0.679433  0  2.210772  0  0  -0.358544  -0.632122  0  2.225349  0
O  O90  1  0.14328300  0.95273903  0.13167695  1  0  -0.745828  0  2.061664  0  0  -0.694611  0  2.318834  0  0  -0.731325  0  2.302771  0  0  -0.409333  -0.676718  0  2.327019  0
O  O91  1  0.85671620  0.04725969  0.86832348  1  0  -0.745827  0  2.061633  0  0  -0.694606  0  2.318796  0  0  -0.731321  0  2.302739  0  0  -0.409321  -0.676708  0  2.326976  0
O  O92  1  0.11665690  0.09912667  0.94740277  1  0  -0.740428  0  2.098463  0  0  -0.692794  0  2.372224  0  0  -0.730228  0  2.355012  0  0  -0.420935  -0.675008  0  2.380536  0
O  O93  1  0.88334168  0.90087097  0.05259529  1  0  -0.740383  0  2.098563  0  0  -0.692759  0  2.372343  0  0  -0.730193  0  2.355133  0  0  -0.420908  -0.674974  0  2.38066  0
O  O94  1  0.04760289  0.56691433  0.12812957  1  0  -0.74896  0  2.051657  0  0  -0.699138  0  2.314918  0  0  -0.732548  0  2.298643  0  0  -0.399457  -0.683071  0  2.323756  0
O  O95  1  0.95239692  0.43308547  0.87187050  1  0  -0.74892  0  2.051693  0  0  -0.699083  0  2.314936  0  0  -0.732495  0  2.298665  0  0  -0.399427  -0.683015  0  2.323775  0
O  O96  1  0.19829363  0.73804853  0.97311501  1  0  -0.721732  0  2.023785  0  0  -0.674065  0  2.285106  0  0  -0.706167  0  2.270581  0  0  -0.391047  -0.658956  0  2.293136  0
O  O97  1  0.80170637  0.26195342  0.02688367  1  0  -0.721782  0  2.023823  0  0  -0.674071  0  2.285137  0  0  -0.706181  0  2.270602  0  0  -0.391047  -0.658965  0  2.293172  0
