# generated using pymatgen
data_CuH20C16(N4Cl)2
_symmetry_space_group_name_H-M   'P 1'
_cell_length_a   7.25062671
_cell_length_b   11.47346975
_cell_length_c   12.73043527
_cell_angle_alpha   109.94593466
_cell_angle_beta   89.99988378
_cell_angle_gamma   89.99997336
_symmetry_Int_Tables_number   1
_chemical_formula_structural   CuH20C16(N4Cl)2
_chemical_formula_sum   'Cu2 H40 C32 N16 Cl4'
_cell_volume   995.51619619
_cell_formula_units_Z   2
loop_
 _symmetry_equiv_pos_site_id
 _symmetry_equiv_pos_as_xyz
  1  'x, y, z'
loop_
 _atom_site_type_symbol
 _atom_site_label
 _atom_site_symmetry_multiplicity
 _atom_site_fract_x
 _atom_site_fract_y
 _atom_site_fract_z
 _atom_site_occupancy
 _atom_site_hle17_ddec_charge
 _atom_site_hle17_ddec_spin_density
 _atom_site_hle17_ddec_sum_bond_order
 _atom_site_hle17_magmom
 _atom_site_hse06_10hf_ddec_charge
 _atom_site_hse06_10hf_ddec_spin_density
 _atom_site_hse06_10hf_ddec_sum_bond_order
 _atom_site_hse06_10hf_magmom
 _atom_site_hse06_ddec_charge
 _atom_site_hse06_ddec_spin_density
 _atom_site_hse06_ddec_sum_bond_order
 _atom_site_hse06_magmom
 _atom_site_pbe_cm5_charge
 _atom_site_pbe_ddec_charge
 _atom_site_pbe_ddec_spin_density
 _atom_site_pbe_ddec_sum_bond_order
 _atom_site_pbe_magmom
Cu  Cu0  1  0.25391631  0.82860675  0.41672999  1  0.78017  -0.588224  1.882114  -0.382  0.783479  -0.721535  2.278719  -0.525  0.868527  -0.831098  2.210299  -0.627  0.756816  0.738061  -0.633594  2.322102  -0.451
Cu  Cu1  1  0.75392401  0.17139272  0.58326649  1  0.780146  0.588221  1.882098  0.382  0.783463  0.721531  2.278759  0.525  0.868514  0.831109  2.210338  0.627  0.75678  0.73802  0.6336  2.322094  0.451
H  H2  1  0.18665965  0.93915883  0.61492463  1  0.288944  0.00208  0.948979  0.002  0.275189  0.001002  1.019072  0.001  0.281927  0.001007  1.015705  0.001  0.285069  0.27056  0.001001  1.02191  0.0
H  H3  1  0.68665575  0.06083974  0.38507557  1  0.288943  -0.00208  0.948954  -0.002  0.275198  -0.001002  1.019052  -0.001  0.281937  -0.001007  1.015683  -0.001  0.285092  0.270566  -0.001001  1.021898  0.0
H  H4  1  0.98388603  0.89282859  0.55551104  1  0.287123  -0.000282  0.930558  0.001  0.280171  -0.001009  0.988259  0.0  0.286316  -0.000666  0.985951  0.0  0.285624  0.276012  -0.001212  0.990069  0.0
H  H5  1  0.48388556  0.10717435  0.44449413  1  0.287132  0.000282  0.93056  -0.001  0.280213  0.001008  0.98825  0.0  0.286364  0.000666  0.98593  0.0  0.285644  0.276048  0.001211  0.990069  0.0
H  H6  1  0.52328085  0.83492286  0.29034867  1  0.286457  -0.000382  0.94361  0.001  0.276732  -0.000985  1.005162  0.0  0.283387  -0.000678  1.001895  0.0  0.285933  0.272162  -0.001195  1.007756  0.0
H  H7  1  0.02328623  0.16508145  0.70964799  1  0.286385  0.000383  0.943678  -0.001  0.276682  0.000985  1.005192  0.0  0.283337  0.000678  1.001925  0.0  0.285933  0.272109  0.001195  1.007781  0.0
H  H8  1  0.32076330  0.84100140  0.23046552  1  0.284432  0.000906  0.904327  0.001  0.274583  -4.4e-05  0.967616  0.0  0.280857  0.000178  0.96442  0.001  0.290422  0.27035  -0.000226  0.970034  0.0
H  H9  1  0.82076891  0.15899432  0.76952736  1  0.284332  -0.000905  0.904386  -0.001  0.274484  4.4e-05  0.967692  0.0  0.280769  -0.000178  0.964466  -0.001  0.290373  0.270236  0.000226  0.970139  0.0
H  H10  1  0.99138221  0.63292431  0.45445403  1  0.103613  0.000239  0.983955  0.0  0.117043  0.000221  1.059432  0.0  0.11873  0.000222  1.058854  0.0  0.080517  0.115676  0.000208  1.060088  0.0
H  H11  1  0.49137292  0.36707491  0.54554997  1  0.103704  -0.000238  0.984007  0.0  0.117192  -0.000221  1.059397  0.0  0.118884  -0.000222  1.058815  0.0  0.080592  0.115821  -0.000208  1.060051  0.0
H  H12  1  0.83105377  0.70417126  0.56369666  1  0.107562  -0.000153  0.953595  0.0  0.127875  -0.000119  1.013915  0.0  0.129342  -6.9e-05  1.014178  0.0  0.084157  0.126876  -0.000163  1.013567  0.0
H  H13  1  0.33105460  0.29583088  0.43630920  1  0.107602  0.000153  0.953722  0.0  0.127932  0.000119  1.014005  0.0  0.129399  6.9e-05  1.01427  0.0  0.084154  0.126931  0.000163  1.013659  0.0
H  H14  1  0.97729907  0.58383344  0.57320291  1  0.107174  0.000151  0.949379  0.0  0.129418  9.7e-05  1.007274  0.0  0.130436  8.2e-05  1.007846  0.0  0.086164  0.128617  0.000104  1.00694  0.0
H  H15  1  0.47729435  0.41617137  0.42680049  1  0.107148  -0.00015  0.949298  0.0  0.129396  -9.7e-05  1.007214  0.0  0.130416  -8.2e-05  1.007785  0.0  0.086143  0.128595  -0.000104  1.006882  0.0
H  H16  1  0.25385396  0.71616909  0.58689247  1  0.043169  -0.00107  0.915334  -0.002  0.056114  -0.000874  0.97572  -0.001  0.055858  -0.000592  0.974961  -0.001  0.10618  0.055968  -0.001067  0.976596  -0.002
H  H17  1  0.75385534  0.28383404  0.41311378  1  0.043096  0.001072  0.915258  0.002  0.056018  0.000875  0.975657  0.001  0.05576  0.000593  0.974901  0.001  0.106133  0.055871  0.001068  0.976531  0.002
H  H18  1  0.90801773  0.95503906  0.74486997  1  0.087953  -0.000547  0.982634  0.0  0.096932  -0.000563  1.05041  0.0  0.099733  -0.000467  1.048903  0.0  0.095038  0.094974  -0.000624  1.051428  0.0
H  H19  1  0.40802630  0.04495748  0.25512778  1  0.087909  0.000547  0.982618  0.0  0.096844  0.000563  1.050438  0.0  0.099645  0.000467  1.048931  0.0  0.095  0.094891  0.000623  1.051449  0.0
H  H20  1  0.88417829  0.02336884  0.95170536  1  0.097891  -1.7e-05  0.985249  0.0  0.10382  -1e-06  1.055567  0.0  0.106194  2e-06  1.055513  0.0  0.092686  0.102076  -2e-06  1.055766  0.0
H  H21  1  0.38420088  0.97664073  0.04829020  1  0.097863  1.7e-05  0.985503  0.0  0.103775  1e-06  1.055827  0.0  0.106152  -2e-06  1.055775  0.0  0.09264  0.102031  2e-06  1.056028  0.0
H  H22  1  0.23303712  0.72056899  0.95366823  1  0.097293  -3.6e-05  0.991109  0.0  0.10508  -2.9e-05  1.05818  0.0  0.106889  -1.8e-05  1.059465  0.0  0.095259  0.103777  -4.1e-05  1.05737  0.0
H  H23  1  0.73304956  0.27945823  0.04635027  1  0.09723  3.5e-05  0.991109  0.0  0.105018  2.9e-05  1.058182  0.0  0.106829  1.8e-05  1.059464  0.0  0.095242  0.103705  4.1e-05  1.0574  0.0
H  H24  1  0.27122458  0.65969610  0.74804204  1  0.086413  3.2e-05  0.973513  0.0  0.095362  -2e-05  1.039379  0.0  0.097825  -1e-05  1.038694  0.0  0.095207  0.093591  -2.9e-05  1.039939  0.0
H  H25  1  0.77122516  0.34031064  0.25198024  1  0.086347  -3.1e-05  0.973572  0.0  0.095283  2e-05  1.039442  0.0  0.097746  1e-05  1.038757  0.0  0.095124  0.093513  2.9e-05  1.040001  0.0
H  H26  1  0.54858376  0.49626231  0.20486311  1  0.107704  0.000108  0.964413  0.0  0.127792  6.3e-05  1.029123  0.0  0.128944  5.8e-05  1.030396  0.0  0.086291  0.127009  6.4e-05  1.028195  0.0
H  H27  1  0.04859137  0.50373730  0.79513913  1  0.107696  -0.000107  0.964427  0.0  0.127779  -6.3e-05  1.029144  0.0  0.12893  -5.8e-05  1.030421  0.0  0.08631  0.126996  -6.4e-05  1.028215  0.0
H  H28  1  0.48369805  0.60029686  0.33911980  1  0.103087  0.000279  0.967236  0.0  0.11795  0.000308  1.039745  0.0  0.119321  0.000305  1.038493  0.0  0.084092  0.11656  0.000302  1.041055  0.0
H  H29  1  0.98371220  0.39970239  0.66088029  1  0.103094  -0.000279  0.967225  0.0  0.11798  -0.000308  1.039697  0.0  0.119337  -0.000305  1.03846  0.0  0.084086  0.116588  -0.000302  1.041004  0.0
H  H30  1  0.67791311  0.63410251  0.26947192  1  0.106896  -0.00017  0.960728  0.0  0.1303  -0.000174  1.017737  0.0  0.131577  -0.000131  1.018561  0.0  0.087893  0.129531  -0.000201  1.017044  0.0
H  H31  1  0.17791828  0.36589327  0.73053292  1  0.106846  0.00017  0.960776  0.0  0.130256  0.000174  1.017787  0.0  0.13154  0.000131  1.018601  0.0  0.087867  0.12948  0.000201  1.017098  0.0
H  H32  1  0.27398403  0.62253836  0.19393529  1  0.042361  -0.000518  0.941  -0.001  0.054081  -0.000459  1.007784  -0.001  0.053736  -0.0003  1.008411  -0.001  0.103663  0.054221  -0.00057  1.007475  -0.001
H  H33  1  0.77397834  0.37746111  0.80605881  1  0.04225  0.000519  0.940996  0.001  0.054038  0.000459  1.007766  0.001  0.053691  0.0003  1.008397  0.001  0.103622  0.054177  0.000571  1.007459  0.001
H  H34  1  0.62694946  0.82053138  0.12417609  1  0.092418  -0.000616  0.99078  0.0  0.097971  -0.000624  1.062814  0.0  0.100909  -0.00051  1.061601  0.0  0.096  0.095973  -0.0007  1.06363  0.0
H  H35  1  0.12692661  0.17945988  0.87581168  1  0.092231  0.000617  0.990855  0.0  0.097793  0.000624  1.062909  0.0  0.100726  0.00051  1.061706  0.0  0.095955  0.095819  0.0007  1.06369  0.0
H  H36  1  0.71579680  0.79003204  0.92948060  1  0.106023  -2e-06  0.975627  0.0  0.114931  3e-06  1.038362  0.0  0.117336  5e-06  1.038427  0.0  0.097864  0.113192  1e-06  1.038426  0.0
H  H37  1  0.21578253  0.20994801  0.07050673  1  0.10599  1e-06  0.975571  0.0  0.114887  -3e-06  1.038345  0.0  0.117293  -5e-06  1.038409  0.0  0.09783  0.113147  -1e-06  1.03841  0.0
H  H38  1  0.44808785  0.43398613  0.81812269  1  0.106298  0.000171  0.982056  0.0  0.113522  3.9e-05  1.049728  0.0  0.117059  -6.4e-05  1.047841  0.0  0.099212  0.111192  0.000127  1.050939  0.0
H  H39  1  0.94807063  0.56600109  0.18187527  1  0.106325  -0.000172  0.982107  0.0  0.113532  -3.9e-05  1.049774  0.0  0.11707  6.4e-05  1.047885  0.0  0.099199  0.111206  -0.000127  1.050986  0.0
H  H40  1  0.34792838  0.46670939  0.01274645  1  0.094046  3.7e-05  0.975  0.0  0.104117  -1e-06  1.037636  0.0  0.105493  -1e-06  1.039599  0.0  0.098555  0.10309  1e-06  1.036424  0.0
H  H41  1  0.84790810  0.53327978  0.98724986  1  0.094061  -3.6e-05  0.974998  0.0  0.104117  1e-06  1.037657  0.0  0.105491  1e-06  1.039623  0.0  0.098592  0.103099  -1e-06  1.036431  0.0
C  C42  1  0.97020730  0.66425145  0.54521054  1  -0.345698  0.000312  3.669122  0.0  -0.420856  0.000253  3.903106  0.0  -0.424223  0.000205  3.912673  0.0  -0.249011  -0.418211  0.000268  3.896509  0.0
C  C43  1  0.47019562  0.33574685  0.45479712  1  -0.345838  -0.000312  3.66927  0.0  -0.421081  -0.000252  3.903196  0.0  -0.424458  -0.000205  3.912759  0.0  -0.249097  -0.418436  -0.000268  3.8966  0.0
C  C44  1  0.11673611  0.75960951  0.60562113  1  0.208113  0.001515  3.610588  0.003  0.192723  -0.000126  3.851432  0.002  0.199213  0.000447  3.866524  0.002  0.003354  0.188698  -0.000549  3.841357  0.001
C  C45  1  0.61672931  0.24038633  0.39438065  1  0.208096  -0.001523  3.610556  -0.003  0.192801  0.000125  3.851355  -0.002  0.199296  -0.000446  3.86644  -0.002  0.003454  0.18878  0.000548  3.841263  -0.001
C  C46  1  0.09378060  0.80326992  0.73172996  1  0.03212  -0.005646  3.701737  -0.006  0.050348  -0.003761  3.93448  -0.004  0.049507  -0.002796  3.958111  -0.003  -0.012069  0.050998  -0.00432  3.918167  -0.004
C  C47  1  0.59378258  0.19673056  0.26827721  1  0.032266  0.005661  3.701484  0.006  0.050374  0.003761  3.934328  0.004  0.049529  0.002797  3.957961  0.003  -0.012157  0.051025  0.004319  3.918019  0.004
C  C48  1  0.98405522  0.90516444  0.79022324  1  -0.089714  -0.001616  3.731602  -0.001  -0.110765  -0.001049  3.980859  -0.001  -0.11274  -0.000795  4.001239  -0.001  -0.094134  -0.109223  -0.001189  3.966719  -0.001
C  C49  1  0.48406255  0.09484593  0.20978188  1  -0.089768  0.001603  3.73149  0.001  -0.110747  0.00105  3.980787  0.001  -0.112719  0.000794  4.001167  0.001  -0.094038  -0.109209  0.001189  3.966655  0.001
C  C50  1  0.96763709  0.94324307  0.90624205  1  -0.138865  0.00074  3.781824  0.001  -0.159491  0.000184  4.033296  0.0  -0.16191  0.000166  4.054044  0.0  -0.103231  -0.157762  0.000174  4.01926  0.0
C  C51  1  0.46765455  0.05676641  0.09375732  1  -0.138731  -0.000728  3.781895  -0.001  -0.159349  -0.000183  4.033283  0.0  -0.161776  -0.000166  4.054037  0.0  -0.103185  -0.157621  -0.000174  4.019255  0.0
C  C52  1  0.05766325  0.87629964  0.96416118  1  0.120896  -0.001331  3.818576  -0.001  0.133554  -0.000502  4.079882  0.0  0.13596  -0.000309  4.10063  0.0  0.004964  0.131728  -0.000664  4.065924  -0.001
C  C53  1  0.55767445  0.12371850  0.03584682  1  0.120798  0.001316  3.818402  0.001  0.133511  0.000502  4.079662  0.0  0.135917  0.000309  4.100411  0.0  0.004991  0.131685  0.000664  4.065699  0.001
C  C54  1  0.16472862  0.77281675  0.90779558  1  -0.136097  3.4e-05  3.77552  0.0  -0.156936  -0.000152  4.025  0.0  -0.159357  -5.3e-05  4.04675  0.0  -0.10187  -0.155201  -0.000244  4.010378  0.0
C  C55  1  0.66475608  0.22719476  0.09221966  1  -0.136102  -1.4e-05  3.775404  0.0  -0.156965  0.000152  4.024898  0.0  -0.159386  5.3e-05  4.046653  0.0  -0.101874  -0.155226  0.000244  4.010264  0.0
C  C56  1  0.18367066  0.73850772  0.79217148  1  -0.095777  -0.001142  3.751899  -0.001  -0.116571  -0.000778  4.001028  -0.001  -0.119325  -0.000536  4.022978  -0.001  -0.090835  -0.114718  -0.000951  3.986179  -0.001
C  C57  1  0.68367146  0.26150009  0.20783866  1  -0.095672  0.001123  3.751813  0.001  -0.116406  0.000778  4.001007  0.001  -0.119153  0.000535  4.02295  0.001  -0.090773  -0.114553  0.000951  3.986154  0.001
C  C58  1  0.53856381  0.59427497  0.25714572  1  -0.342422  0.000185  3.66618  0.0  -0.422688  0.000132  3.905712  0.0  -0.426064  0.000135  3.915693  0.0  -0.248271  -0.420097  0.00013  3.898873  0.0
C  C59  1  0.03856616  0.40572188  0.74285409  1  -0.342402  -0.000186  3.666306  0.0  -0.422651  -0.000131  3.90589  0.0  -0.42602  -0.000134  3.915879  0.0  -0.248252  -0.420053  -0.00013  3.899048  0.0
C  C60  1  0.41316646  0.66248001  0.20075513  1  0.202253  0.000879  3.621336  0.003  0.185181  -0.00048  3.86291  0.001  0.191259  7e-05  3.877831  0.002  0.000911  0.181405  -0.000883  3.852662  0.001
C  C61  1  0.91317047  0.33751654  0.79924027  1  0.202473  -0.00088  3.621503  -0.003  0.18524  0.000479  3.863315  -0.001  0.191316  -7e-05  3.878251  -0.002  0.000972  0.181458  0.000882  3.853054  -0.001
C  C62  1  0.47736804  0.64667568  0.08302361  1  0.026319  -0.005078  3.696264  -0.005  0.046426  -0.003747  3.926584  -0.004  0.045998  -0.002897  3.948626  -0.003  -0.014023  0.046784  -0.004221  3.911335  -0.004
C  C63  1  0.97736193  0.35331526  0.91696840  1  0.026198  0.005094  3.696551  0.005  0.046323  0.003747  3.926921  0.004  0.045892  0.002897  3.948967  0.003  -0.014028  0.046687  0.004221  3.911662  0.004
C  C64  1  0.58341820  0.73601076  0.05823941  1  -0.104019  -0.001223  3.737255  -0.001  -0.123496  -0.001048  3.985168  -0.001  -0.125463  -0.000792  4.004965  -0.001  -0.095844  -0.121968  -0.001206  3.971439  -0.001
C  C65  1  0.08341022  0.26397869  0.94174862  1  -0.103763  0.001207  3.737279  0.001  -0.123244  0.001049  3.985161  0.001  -0.125208  0.00079  4.004958  0.001  -0.095847  -0.121733  0.001206  3.971414  0.001
C  C66  1  0.63644640  0.71927929  0.94854456  1  -0.131122  0.000454  3.762625  0.0  -0.152603  0.000114  4.012398  0.0  -0.154654  0.000102  4.03245  0.0  -0.098715  -0.151144  0.000105  3.998846  0.0
C  C67  1  0.13643630  0.28071103  0.05144526  1  -0.131042  -0.000435  3.762837  0.0  -0.152532  -0.000114  4.01264  0.0  -0.154589  -0.0001  4.032694  0.0  -0.0986  -0.151073  -0.000105  3.999088  0.0
C  C68  1  0.58530343  0.61106310  0.86308348  1  0.123972  -0.000628  3.812014  -0.001  0.134528  -0.000276  4.077363  0.0  0.137189  -0.000162  4.098284  0.0  0.008858  0.132517  -0.000381  4.063353  0.0
C  C69  1  0.08529432  0.38892167  0.13690938  1  0.123924  0.00061  3.812383  0.001  0.134482  0.000275  4.077712  0.0  0.137149  0.00016  4.098628  0.0  0.008823  0.132469  0.000381  4.063704  0.0
C  C70  1  0.48351221  0.51903533  0.88571805  1  -0.138147  -4.6e-05  3.767899  0.0  -0.157828  -0.000278  4.017569  0.0  -0.160205  -0.000254  4.036597  0.0  -0.098553  -0.156111  -0.000293  4.00457  0.0
C  C71  1  0.98350772  0.48095928  0.11428138  1  -0.138224  6.5e-05  3.768004  0.0  -0.157876  0.000278  4.017649  0.0  -0.160259  0.000256  4.036679  0.0  -0.098555  -0.156164  0.000292  4.004657  0.0
C  C72  1  0.42971665  0.53791571  0.99542423  1  -0.094404  -0.000929  3.72586  -0.001  -0.110487  -0.000722  3.968097  -0.001  -0.112578  -0.000497  3.989381  -0.001  -0.088234  -0.109034  -0.000883  3.953671  -0.001
C  C73  1  0.92971259  0.46207617  0.00457363  1  -0.094368  0.00091  3.725942  0.001  -0.110452  0.000723  3.968197  0.001  -0.11254  0.000496  3.989479  0.001  -0.08828  -0.109004  0.000884  3.953763  0.001
N  N74  1  0.11714992  0.86372726  0.56138939  1  -0.634169  -0.083791  3.160299  -0.094  -0.609244  -0.063318  3.421173  -0.076  -0.643064  -0.054725  3.425221  -0.069  -0.639279  -0.589545  -0.06518  3.420205  -0.075
N  N75  1  0.61715405  0.13627226  0.43861825  1  -0.634107  0.08378  3.160303  0.094  -0.60925  0.063311  3.421094  0.076  -0.643069  0.054718  3.425143  0.069  -0.639351  -0.589552  0.065169  3.420109  0.075
N  N76  1  0.39437480  0.79432370  0.27229211  1  -0.629498  -0.074043  3.169393  -0.083  -0.600665  -0.05913  3.428444  -0.071  -0.631827  -0.051808  3.430589  -0.065  -0.636635  -0.582149  -0.060624  3.428181  -0.07
N  N77  1  0.89438054  0.20567658  0.72770368  1  -0.629353  0.074034  3.1695  0.083  -0.600496  0.059124  3.428577  0.071  -0.631651  0.051802  3.430723  0.065  -0.636622  -0.581979  0.060621  3.428287  0.07
N  N78  1  0.48857311  0.81920842  0.50112383  1  -0.468955  -0.052275  2.667247  -0.06  -0.490186  -0.028582  2.976845  -0.036  -0.51728  -0.016673  2.981699  -0.024  -0.280911  -0.473329  -0.037458  2.973317  -0.044
N  N79  1  0.98859078  0.18078438  0.49886718  1  -0.469042  0.052276  2.667416  0.06  -0.490241  0.028589  2.976971  0.036  -0.517338  0.016669  2.981828  0.024  -0.280974  -0.47338  0.037462  2.97342  0.044
N  N80  1  0.02400121  0.76240704  0.32389251  1  -0.484213  -0.057099  2.677858  -0.066  -0.509961  -0.032784  3.00608  -0.041  -0.54289  -0.020501  3.016463  -0.029  -0.290504  -0.492122  -0.0395  3.001478  -0.047
N  N81  1  0.52400161  0.23759540  0.67610670  1  -0.484085  0.05708  2.678239  0.066  -0.509916  0.032779  3.006458  0.041  -0.542847  0.020494  3.016849  0.029  -0.290488  -0.492074  0.039499  3.001821  0.047
N  N82  1  0.60382236  0.89553999  0.53974644  1  0.399381  0.014532  4.205502  0.022  0.451412  -0.002086  4.50247  0.001  0.472566  -0.000734  4.53465  0.001  0.083426  0.43826  -0.003386  4.479947  0.0
N  N83  1  0.10384253  0.10445500  0.46024487  1  0.399321  -0.014524  4.205876  -0.022  0.451327  0.002086  4.502892  -0.001  0.472481  0.000737  4.535067  -0.001  0.083406  0.438175  0.003386  4.480356  0.0
N  N84  1  0.72390844  0.96679707  0.57980593  1  -0.474586  -0.094877  2.569115  -0.098  -0.496466  -0.047539  2.852174  -0.051  -0.516649  -0.039938  2.858672  -0.044  -0.248403  -0.483907  -0.053746  2.848011  -0.056
N  N85  1  0.22392742  0.03319596  0.42018464  1  -0.474421  0.094874  2.569296  0.098  -0.496278  0.047537  2.852325  0.051  -0.516458  0.03994  2.858815  0.044  -0.248304  -0.483729  0.053741  2.848166  0.056
N  N86  1  0.90288661  0.83039573  0.31783110  1  0.378101  0.018718  4.220249  0.028  0.420329  -0.000535  4.530363  0.004  0.438652  0.002336  4.565548  0.007  0.077355  0.40885  -0.003579  4.508448  0.001
N  N87  1  0.40288933  0.16961103  0.68216670  1  0.377929  -0.018727  4.220644  -0.028  0.420271  0.000531  4.53064  -0.004  0.438592  -0.002337  4.565834  -0.007  0.077338  0.408787  0.003575  4.508699  -0.001
N  N88  1  0.78089715  0.89362888  0.30819110  1  -0.416267  -0.110348  2.514569  -0.114  -0.424995  -0.05899  2.769183  -0.064  -0.43945  -0.051647  2.78186  -0.059  -0.211289  -0.417412  -0.062484  2.762351  -0.065
N  N89  1  0.28089712  0.10637057  0.69180377  1  -0.4162  0.110396  2.51452  0.114  -0.424975  0.059008  2.769071  0.064  -0.439429  0.051659  2.781744  0.059  -0.211306  -0.417397  0.062504  2.762229  0.065
Cl  Cl90  1  0.03021897  0.92132271  0.10821206  1  -0.091244  -0.000191  1.349425  0.0  -0.06729  -0.000149  1.574102  0.0  -0.071226  -5e-05  1.570502  0.0  0.009349  -0.064116  -0.000247  1.5766  0.0
Cl  Cl91  1  0.53022692  0.07872145  0.89180014  1  -0.091174  0.000191  1.349354  0.0  -0.067263  0.000149  1.574057  0.0  -0.071196  5e-05  1.570449  0.0  0.009377  -0.064088  0.000247  1.576554  0.0
Cl  Cl92  1  0.64717421  0.59138374  0.72628385  1  -0.093016  -0.000135  1.333762  0.0  -0.066475  -0.000116  1.554167  0.0  -0.071881  -6.5e-05  1.549911  0.0  0.021003  -0.062667  -0.000162  1.557282  0.0
Cl  Cl93  1  0.14716732  0.40859637  0.27370357  1  -0.093014  0.000134  1.333927  0.0  -0.066447  0.000116  1.55429  0.0  -0.071856  6.4e-05  1.550033  0.0  0.021013  -0.062638  0.000163  1.557409  0.0
