# generated using pymatgen
data_CdH18C32Br4N8O7
_symmetry_space_group_name_H-M   'P 1'
_cell_length_a   10.65453999
_cell_length_b   12.22335183
_cell_length_c   15.16377803
_cell_angle_alpha   79.91811224
_cell_angle_beta   71.11520197
_cell_angle_gamma   67.00013584
_symmetry_Int_Tables_number   1
_chemical_formula_structural   CdH18C32Br4N8O7
_chemical_formula_sum   'Cd2 H36 C64 Br8 N16 O14'
_cell_volume   1717.32229205
_cell_formula_units_Z   2
loop_
 _symmetry_equiv_pos_site_id
 _symmetry_equiv_pos_as_xyz
  1  'x, y, z'
loop_
 _atom_site_type_symbol
 _atom_site_label
 _atom_site_symmetry_multiplicity
 _atom_site_fract_x
 _atom_site_fract_y
 _atom_site_fract_z
 _atom_site_occupancy
 _atom_site_hle17_bader_spin_density
 _atom_site_hle17_ddec_charge
 _atom_site_hle17_ddec_spin_density
 _atom_site_hle17_ddec_sum_bond_order
 _atom_site_hle17_magmom
 _atom_site_hse06_10hf_bader_spin_density
 _atom_site_hse06_10hf_ddec_charge
 _atom_site_hse06_10hf_ddec_spin_density
 _atom_site_hse06_10hf_ddec_sum_bond_order
 _atom_site_hse06_10hf_magmom
 _atom_site_hse06_bader_spin_density
 _atom_site_hse06_ddec_charge
 _atom_site_hse06_ddec_spin_density
 _atom_site_hse06_ddec_sum_bond_order
 _atom_site_hse06_magmom
 _atom_site_pbe_bader_spin_density
 _atom_site_pbe_cm5_charge
 _atom_site_pbe_ddec_charge
 _atom_site_pbe_ddec_spin_density
 _atom_site_pbe_ddec_sum_bond_order
 _atom_site_pbe_magmom
Cd  Cd0  1  0.45243328  0.82306997  0.67862620  1  0  1.129962  0  1.6554  0  0  0.940045  0  2.095949  0  0  0.997713  0  2.044031  0  0  0.765831  0.899605  0  2.130688  0
Cd  Cd1  1  0.54756863  0.17693135  0.32137402  1  0  1.129994  0  1.655304  0  0  0.940087  0  2.095849  0  0  0.997757  0  2.043929  0  0  0.765876  0.899649  0  2.130586  0
H  H2  1  0.72640946  0.85447965  0.62571937  1  0  0.388513  0  0.93528  0  0  0.346688  0  1.017815  0  0  0.357984  0  1.001702  0  0  0.278789  0.3388  0  1.029021  0
H  H3  1  0.27359147  0.14552162  0.37427779  1  0  0.388495  0  0.935294  0  0  0.346674  0  1.017826  0  0  0.357969  0  1.001717  0  0  0.278778  0.338786  0  1.029033  0
H  H4  1  0.63740282  0.95149891  0.56266014  1  0  0.421015  0  0.888957  0  0  0.389044  0  0.954433  0  0  0.400966  0  0.937129  0  0  0.278575  0.380604  0  0.966628  0
H  H5  1  0.36259594  0.04850507  0.43734107  1  0  0.421007  0  0.888966  0  0  0.389037  0  0.954442  0  0  0.400958  0  0.937137  0  0  0.278585  0.380596  0  0.966639  0
H  H6  1  0.06397584  0.15476983  0.92078371  1  0  0.114403  0  0.96653  0  0  0.118788  0  1.0377  0  0  0.122248  0  1.03586  0  0  0.106688  0.116377  0  1.038981  0
H  H7  1  0.93603398  0.84523161  0.07921534  1  0  0.114415  0  0.966522  0  0  0.118817  0  1.037675  0  0  0.122271  0  1.035841  0  0  0.106675  0.116404  0  1.038969  0
H  H8  1  0.23168715  0.95265810  0.86991188  1  0  0.072286  0  0.964008  0  0  0.076321  0  1.039198  0  0  0.078759  0  1.036593  0  0  0.107477  0.074462  0  1.041218  0
H  H9  1  0.76831713  0.04734683  0.13008660  1  0  0.072345  0  0.963896  0  0  0.07637  0  1.03908  0  0  0.078811  0  1.03648  0  0  0.107508  0.07451  0  1.0411  0
H  H10  1  0.40965574  0.08862543  0.61050006  1  0  0.099488  0  0.938071  0  0  0.109066  0  0.997364  0  0  0.111511  0  0.995358  0  0  0.121774  0.107131  0  0.999145  0
H  H11  1  0.59034519  0.91138035  0.38949973  1  0  0.099344  0  0.938114  0  0  0.108981  0  0.997378  0  0  0.111394  0  0.995417  0  0  0.121729  0.107054  0  0.999153  0
H  H12  1  0.24869615  0.29704888  0.65004921  1  0  0.11082  0  0.957171  0  0  0.120286  0  1.017909  0  0  0.122689  0  1.018447  0  0  0.108125  0.118669  0  1.017496  0
H  H13  1  0.75130596  0.70295872  0.34995069  1  0  0.110795  0  0.957171  0  0  0.12028  0  1.017886  0  0  0.122683  0  1.018422  0  0  0.10814  0.118664  0  1.017475  0
H  H14  1  0.84655512  0.40273570  0.07574983  1  0  0.111866  0  0.954926  0  0  0.119165  0  1.023061  0  0  0.122646  0  1.021359  0  0  0.106061  0.116726  0  1.024275  0
H  H15  1  0.15344424  0.59726021  0.92425113  1  0  0.111915  0  0.954833  0  0  0.1192  0  1.022979  0  0  0.12268  0  1.021277  0  0  0.106073  0.11676  0  1.024196  0
H  H16  1  0.69292022  0.51077117  0.21887046  1  0  0.076689  0  0.91888  0  0  0.085995  0  0.97931  0  0  0.089265  0  0.976361  0  0  0.108636  0.083668  0  0.981521  0
H  H17  1  0.30708348  0.48922839  0.78113027  1  0  0.076664  0  0.91893  0  0  0.085961  0  0.979358  0  0  0.089229  0  0.976414  0  0  0.108626  0.08364  0  0.981573  0
H  H18  1  0.58725732  0.83439129  0.06785749  1  0  0.06635  0  0.927231  0  0  0.078573  0  0.983732  0  0  0.081099  0  0.981974  0  0  0.107738  0.076738  0  0.985021  0
H  H19  1  0.41274421  0.16560643  0.93214204  1  0  0.066384  0  0.927219  0  0  0.078576  0  0.983755  0  0  0.081122  0  0.981975  0  0  0.107766  0.076743  0  0.985039  0
H  H20  1  0.72967305  0.73816636  0.91628668  1  0  0.117022  0  0.960912  0  0  0.12507  0  1.024238  0  0  0.128203  0  1.023566  0  0  0.107524  0.122846  0  1.024751  0
H  H21  1  0.27032315  0.26182769  0.08371265  1  0  0.117057  0  0.96091  0  0  0.12506  0  1.024284  0  0  0.128192  0  1.02361  0  0  0.107548  0.122826  0  1.024824  0
H  H22  1  0.63880592  0.50663153  0.40757362  1  0  0.121196  0  0.928162  0  0  0.132868  0  0.98304  0  0  0.136336  0  0.981788  0  0  0.115542  0.13028  0  0.984282  0
H  H23  1  0.36119403  0.49336981  0.59243035  1  0  0.121146  0  0.928203  0  0  0.132833  0  0.983067  0  0  0.136286  0  0.981832  0  0  0.115542  0.130246  0  0.984312  0
H  H24  1  0.46724310  0.67799132  0.50623712  1  0  0.072706  0  0.975755  0  0  0.074446  0  1.053052  0  0  0.077192  0  1.050944  0  0  0.10461  0.072371  0  1.054659  0
H  H25  1  0.53275685  0.32201002  0.49376685  1  0  0.072742  0  0.975708  0  0  0.074492  0  1.05299  0  0  0.077234  0  1.050882  0  0  0.10461  0.07242  0  1.05459  0
H  H26  1  0.74288899  0.62422731  0.66269703  1  0  0.096513  0  0.94217  0  0  0.102091  0  1.007191  0  0  0.104976  0  1.004561  0  0  0.117854  0.099911  0  1.009214  0
H  H27  1  0.25711530  0.37576870  0.33730541  1  0  0.096565  0  0.942154  0  0  0.102201  0  1.007095  0  0  0.105088  0  1.004463  0  0  0.117885  0.100022  0  1.009111  0
H  H28  1  0.92483169  0.44879091  0.57297524  1  0  0.123797  0  0.934753  0  0  0.130605  0  0.997987  0  0  0.134386  0  0.996285  0  0  0.113558  0.127915  0  0.999382  0
H  H29  1  0.07517102  0.55120416  0.42702573  1  0  0.123759  0  0.934773  0  0  0.130556  0  0.998005  0  0  0.134337  0  0.996303  0  0  0.113558  0.127863  0  0.999395  0
H  H30  1  0.27553175  0.07830505  0.24388336  1  0  0.125106  0  0.942633  0  0  0.136521  0  0.998475  0  0  0.140012  0  0.996724  0  0  0.114772  0.134025  0  0.999843  0
H  H31  1  0.72445280  0.92170861  0.75612100  1  0  0.125145  0  0.942826  0  0  0.136508  0  0.998689  0  0  0.139993  0  0.996949  0  0  0.114776  0.134021  0  1.000053  0
H  H32  1  0.33328539  0.96615961  0.10529845  1  0  0.06468  0  0.949401  0  0  0.071331  0  1.015693  0  0  0.074061  0  1.013205  0  0  0.102963  0.069407  0  1.017436  0
H  H33  1  0.66671910  0.03384716  0.89470432  1  0  0.064616  0  0.949436  0  0  0.071256  0  1.015728  0  0  0.073984  0  1.013243  0  0  0.102934  0.069337  0  1.017475  0
H  H34  1  0.93071334  0.14727319  0.07107115  1  0  0.0604  0  0.965923  0  0  0.065685  0  1.038743  0  0  0.068479  0  1.035959  0  0  0.099438  0.063719  0  1.040651  0
H  H35  1  0.06929252  0.85271917  0.92892356  1  0  0.060416  0  0.96603  0  0  0.065669  0  1.038899  0  0  0.068464  0  1.036114  0  0  0.099444  0.063706  0  1.040804  0
H  H36  1  0.85246643  0.26225197  0.21010636  1  0  0.138211  0  0.944255  0  0  0.147472  0  1.002681  0  0  0.151685  0  0.999566  0  0  0.115212  0.144458  0  1.005022  0
H  H37  1  0.14752759  0.73774023  0.78989045  1  0  0.138298  0  0.944302  0  0  0.147565  0  1.002718  0  0  0.15178  0  0.999602  0  0  0.11523  0.144553  0  1.00506  0
C  C38  1  0.13806230  0.14410146  0.85132513  1  0  -0.130504  0  3.677843  0  0  -0.154775  0  3.930884  0  0  -0.160351  0  3.950047  0  0  -0.082721  -0.151242  0  3.917865  0
C  C39  1  0.86194435  0.85590260  0.14867228  1  0  -0.13051  0  3.677857  0  0  -0.154768  0  3.930926  0  0  -0.160339  0  3.950093  0  0  -0.082669  -0.151232  0  3.917913  0
C  C40  1  0.23146450  0.03126999  0.82307717  1  0  0.136275  0  3.713836  0  0  0.107567  0  3.96508  0  0  0.11439  0  3.983424  0  0  0.048407  0.103192  0  3.952448  0
C  C41  1  0.76854314  0.96873410  0.17692132  1  0  0.136236  0  3.713767  0  0  0.107568  0  3.964964  0  0  0.114385  0  3.983314  0  0  0.048375  0.103194  0  3.952331  0
C  C42  1  0.33138347  0.10729024  0.67829012  1  0  0.138914  0  3.690874  0  0  0.106349  0  3.943905  0  0  0.113748  0  3.960833  0  0  0.04803  0.10117  0  3.93326  0
C  C43  1  0.66861686  0.89271462  0.32170730  1  0  0.139101  0  3.690756  0  0  0.106439  0  3.943888  0  0  0.113858  0  3.960824  0  0  0.048031  0.101256  0  3.933243  0
C  C44  1  0.24184822  0.22277632  0.70027322  1  0  -0.121161  0  3.687521  0  0  -0.143565  0  3.937341  0  0  -0.148943  0  3.955987  0  0  -0.074889  -0.140207  0  3.92512  0
C  C45  1  0.75815369  0.77722946  0.29972501  1  0  -0.121195  0  3.687378  0  0  -0.143549  0  3.937293  0  0  -0.148922  0  3.955925  0  0  -0.074895  -0.140193  0  3.925071  0
C  C46  1  0.14158026  0.24206689  0.78815578  1  0  0.034977  0  3.808237  0  0  0.046596  0  4.04392  0  0  0.048274  0  4.063792  0  0  0.007509  0.045812  0  4.030365  0
C  C47  1  0.85842086  0.75793619  0.21184238  1  0  0.035001  0  3.808251  0  0  0.046461  0  4.044134  0  0  0.048145  0  4.064009  0  0  0.007478  0.045675  0  4.03058  0
C  C48  1  0.04542427  0.36190047  0.81198589  1  0  0.342083  0  3.725693  0  0  0.309972  0  4.008808  0  0  0.325648  0  4.016982  0  0  0.220316  0.299246  0  4.003662  0
C  C49  1  0.95457193  0.63810255  0.18801342  1  0  0.342129  0  3.725571  0  0  0.31011  0  4.008631  0  0  0.325769  0  4.016828  0  0  0.220317  0.299386  0  4.003483  0
C  C50  1  0.89438653  0.50495361  0.89855351  1  0  0.344994  0  3.696067  0  0  0.31242  0  3.978255  0  0  0.32815  0  3.987202  0  0  0.223167  0.301602  0  3.972806  0
C  C51  1  0.10560967  0.49504493  0.10144646  1  0  0.345044  0  3.696148  0  0  0.312484  0  3.978296  0  0  0.328214  0  3.987241  0  0  0.223219  0.301669  0  3.972833  0
C  C52  1  0.80338984  0.56308217  0.98433451  1  0  0.021385  0  3.802425  0  0  0.034925  0  4.039926  0  0  0.03406  0  4.062334  0  0  0.001947  0.035548  0  4.024981  0
C  C53  1  0.19660656  0.43691370  0.01566581  1  0  0.021469  0  3.802502  0  0  0.035005  0  4.039978  0  0  0.034139  0  4.062387  0  0  0.001983  0.035637  0  4.025018  0
C  C54  1  0.79154275  0.49860604  0.07084086  1  0  -0.128366  0  3.68071  0  0  -0.156801  0  3.938531  0  0  -0.161146  0  3.958865  0  0  -0.086307  -0.153894  0  3.925351  0
C  C55  1  0.20845404  0.50138893  0.92915951  1  0  -0.128501  0  3.680679  0  0  -0.156919  0  3.938517  0  0  -0.161262  0  3.958851  0  0  -0.086373  -0.154018  0  3.925348  0
C  C56  1  0.70537429  0.55991919  0.15104967  1  0  0.118533  0  3.740649  0  0  0.093131  0  4.011981  0  0  0.097528  0  4.028502  0  0  0.03561  0.089989  0  4.001331  0
C  C57  1  0.29462684  0.44007943  0.84895048  1  0  0.118607  0  3.740584  0  0  0.093218  0  4.011917  0  0  0.097616  0  4.028438  0  0  0.035643  0.090068  0  4.001285  0
C  C58  1  0.64587494  0.73837725  0.06708777  1  0  0.111133  0  3.754386  0  0  0.087465  0  4.019805  0  0  0.091075  0  4.038255  0  0  0.035048  0.085176  0  4.006942  0
C  C59  1  0.35412777  0.26161782  0.93291320  1  0  0.111119  0  3.754419  0  0  0.087476  0  4.019835  0  0  0.09107  0  4.038287  0  0  0.03498  0.085185  0  4.00697  0
C  C60  1  0.72674577  0.68607233  0.98243103  1  0  -0.119498  0  3.670353  0  0  -0.141644  0  3.915407  0  0  -0.1466  0  3.937403  0  0  -0.077908  -0.138223  0  3.900362  0
C  C61  1  0.27325517  0.31392003  0.01757075  1  0  -0.119566  0  3.670397  0  0  -0.141677  0  3.915506  0  0  -0.14663  0  3.937509  0  0  -0.07793  -0.13826  0  3.900446  0
C  C62  1  0.66560424  0.52968076  0.46358908  1  0  -0.14291  0  3.690871  0  0  -0.167831  0  3.944658  0  0  -0.174013  0  3.96423  0  0  -0.080088  -0.163642  0  3.93176  0
C  C63  1  0.33439867  0.47032060  0.53641223  1  0  -0.142779  0  3.690975  0  0  -0.167695  0  3.944785  0  0  -0.17386  0  3.964357  0  0  -0.080046  -0.163505  0  3.931893  0
C  C64  1  0.57048728  0.62501910  0.51798700  1  0  0.130419  0  3.709371  0  0  0.104006  0  3.959087  0  0  0.110518  0  3.97759  0  0  0.046819  0.100106  0  3.946432  0
C  C65  1  0.42951207  0.37498580  0.48201525  1  0  0.130258  0  3.709477  0  0  0.103844  0  3.95921  0  0  0.110363  0  3.977703  0  0  0.046776  0.099944  0  3.946549  0
C  C66  1  0.72476050  0.59535168  0.60535624  1  0  0.133736  0  3.713138  0  0  0.101445  0  3.969419  0  0  0.10924  0  3.985717  0  0  0.045888  0.096582  0  3.958526  0
C  C67  1  0.27523827  0.40464340  0.39465025  1  0  0.133576  0  3.713287  0  0  0.101247  0  3.969564  0  0  0.109038  0  3.985863  0  0  0.045805  0.096389  0  3.958657  0
C  C68  1  0.82509288  0.49811409  0.55573727  1  0  -0.123833  0  3.678449  0  0  -0.145568  0  3.928447  0  0  -0.152035  0  3.948038  0  0  -0.074979  -0.141603  0  3.915636  0
C  C69  1  0.17490649  0.50187740  0.44426830  1  0  -0.123762  0  3.678396  0  0  -0.145376  0  3.928277  0  0  -0.151852  0  3.947893  0  0  -0.074939  -0.141403  0  3.915457  0
C  C70  1  0.79637172  0.46480693  0.48254186  1  0  0.032065  0  3.816374  0  0  0.042352  0  4.05955  0  0  0.044395  0  4.080033  0  0  0.011716  0.040861  0  4.045608  0
C  C71  1  0.20362922  0.53519441  0.51746056  1  0  0.031981  0  3.816296  0  0  0.042188  0  4.059578  0  0  0.04423  0  4.080056  0  0  0.011642  0.040686  0  4.045645  0
C  C72  1  0.90582434  0.36629154  0.42926804  1  0  0.344579  0  3.70453  0  0  0.307015  0  3.995898  0  0  0.322743  0  4.002934  0  0  0.226941  0.296587  0  3.990903  0
C  C73  1  0.09417718  0.63371066  0.57073082  1  0  0.344538  0  3.704539  0  0  0.307003  0  3.995955  0  0  0.322731  0  4.00299  0  0  0.226911  0.296583  0  3.990951  0
C  C74  1  0.02169779  0.24298767  0.32101772  1  0  0.3889  0  3.659316  0  0  0.344757  0  3.946111  0  0  0.363647  0  3.95207  0  0  0.243902  0.332102  0  3.942116  0
C  C75  1  0.97829149  0.75701522  0.67898056  1  0  0.388949  0  3.659214  0  0  0.344784  0  3.946022  0  0  0.363678  0  3.951973  0  0  0.243908  0.332109  0  3.942053  0
C  C76  1  0.05857014  0.18064291  0.23810334  1  0  0.020898  0  3.81298  0  0  0.031385  0  4.059689  0  0  0.030723  0  4.079911  0  0  0.007503  0.031846  0  4.046046  0
C  C77  1  0.94142190  0.81936271  0.76189390  1  0  0.021082  0  3.813022  0  0  0.031678  0  4.059586  0  0  0.031016  0  4.079806  0  0  0.007633  0.032153  0  4.045944  0
C  C78  1  0.19597800  0.09612565  0.20748481  1  0  -0.128062  0  3.683499  0  0  -0.149909  0  3.927651  0  0  -0.154512  0  3.947683  0  0  -0.074795  -0.146835  0  3.914094  0
C  C79  1  0.80400931  0.90388169  0.79251261  1  0  -0.128195  0  3.683418  0  0  -0.150053  0  3.927603  0  0  -0.154653  0  3.947629  0  0  -0.074849  -0.146992  0  3.914064  0
C  C80  1  0.22820235  0.03418049  0.12954518  1  0  0.104667  0  3.77406  0  0  0.08209  0  4.035152  0  0  0.086174  0  4.052997  0  0  0.033802  0.079408  0  4.022897  0
C  C81  1  0.77179562  0.96582529  0.87045793  1  0  0.104831  0  3.77386  0  0  0.082285  0  4.034942  0  0  0.086374  0  4.052781  0  0  0.033883  0.079599  0  4.022696  0
C  C82  1  0.00553135  0.13345341  0.11073942  1  0  0.106482  0  3.740965  0  0  0.085151  0  4.00418  0  0  0.088874  0  4.022174  0  0  0.035012  0.082819  0  3.991733  0
C  C83  1  0.99447274  0.86654076  0.88925873  1  0  0.10657  0  3.740871  0  0  0.085234  0  4.004106  0  0  0.088958  0  4.0221  0  0  0.035038  0.082904  0  3.991659  0
C  C84  1  0.96124810  0.20009545  0.18820592  1  0  -0.111337  0  3.657845  0  0  -0.140307  0  3.91207  0  0  -0.143314  0  3.929852  0  0  -0.076303  -0.138421  0  3.90021  0
C  C85  1  0.03874829  0.79990035  0.81178915  1  0  -0.11159  0  3.658139  0  0  -0.140564  0  3.912293  0  0  -0.143571  0  3.930074  0  0  -0.07635  -0.138677  0  3.900434  0
C  C86  1  0.47721455  0.66973727  0.83759674  1  0  0.629657  0  4.006086  0  0  0.57797  0  4.30915  0  0  0.61188  0  4.302482  0  0  0.177409  0.555049  0  4.312623  0
C  C87  1  0.52278776  0.33026767  0.16240549  1  0  0.629554  0  4.00617  0  0  0.577854  0  4.309266  0  0  0.611766  0  4.302595  0  0  0.1774  0.554939  0  4.312728  0
C  C88  1  0.48885783  0.58130612  0.92117335  1  0  -0.090752  0  3.722939  0  0  -0.084921  0  3.972529  0  0  -0.087477  0  3.989454  0  0  -0.020917  -0.083902  0  3.962044  0
C  C89  1  0.51113935  0.41870141  0.07882638  1  0  -0.090813  0  3.722987  0  0  -0.08501  0  3.972609  0  0  -0.087579  0  3.989565  0  0  -0.020977  -0.083986  0  3.96211  0
C  C90  1  0.42346099  0.53887432  0.08949770  1  0  0.033859  0  3.682535  0  0  0.033893  0  3.957982  0  0  0.037224  0  3.977884  0  0  -0.024754  0.031244  0  3.945618  0
C  C91  1  0.57653698  0.46113144  0.91050343  1  0  0.033876  0  3.682416  0  0  0.033898  0  3.957857  0  0  0.03723  0  3.97776  0  0  -0.024781  0.031251  0  3.945496  0
C  C92  1  0.41205918  0.61905855  0.01157443  1  0  0.026566  0  3.684428  0  0  0.026018  0  3.961207  0  0  0.029119  0  3.98103  0  0  -0.027261  0.023834  0  3.948217  0
C  C93  1  0.58793288  0.38094713  0.98842807  1  0  0.026602  0  3.684448  0  0  0.026091  0  3.961174  0  0  0.029191  0  3.980994  0  0  -0.027173  0.023903  0  3.948186  0
C  C94  1  0.25477278  0.91627301  0.56541060  1  0  0.635809  0  3.984006  0  0  0.580427  0  4.29069  0  0  0.614557  0  4.28326  0  0  0.187666  0.557386  0  4.294729  0
C  C95  1  0.74523131  0.08372566  0.43459017  1  0  0.635818  0  3.983757  0  0  0.580299  0  4.290598  0  0  0.61446  0  4.283177  0  0  0.187645  0.557257  0  4.294633  0
C  C96  1  0.12408669  0.96232184  0.52994951  1  0  -0.097341  0  3.715044  0  0  -0.092252  0  3.968472  0  0  -0.094468  0  3.984083  0  0  -0.022584  -0.091234  0  3.958349  0
C  C97  1  0.87591917  0.03767950  0.47004650  1  0  -0.097314  0  3.714901  0  0  -0.092049  0  3.968122  0  0  -0.094396  0  3.983916  0  0  -0.022558  -0.091027  0  3.957978  0
C  C98  1  0.99636382  0.04548182  0.57936873  1  0  0.035756  0  3.688157  0  0  0.034003  0  3.968742  0  0  0.03768  0  3.988101  0  0  -0.025217  0.031389  0  3.955992  0
C  C99  1  0.00364263  0.95451595  0.42062767  1  0  0.035632  0  3.688189  0  0  0.033911  0  3.968623  0  0  0.03762  0  3.988018  0  0  -0.025238  0.031304  0  3.955869  0
C  C100  1  0.87332781  0.08191074  0.55006212  1  0  0.034849  0  3.677809  0  0  0.031642  0  3.95983  0  0  0.034866  0  3.979572  0  0  -0.024883  0.029312  0  3.946828  0
C  C101  1  0.12667765  0.91809150  0.44993517  1  0  0.034821  0  3.677991  0  0  0.031635  0  3.960057  0  0  0.034826  0  3.979764  0  0  -0.024942  0.029297  0  3.947065  0
Br  Br102  1  0.29250048  0.78193922  0.02707382  1  0  -0.024647  0  1.425996  0  0  -0.025191  0  1.719126  0  0  -0.025681  0  1.708577  0  0  0.072467  -0.024731  0  1.726597  0
Br  Br103  1  0.70749097  0.21806550  0.97292369  1  0  -0.024643  0  1.425975  0  0  -0.025189  0  1.719065  0  0  -0.025679  0  1.708516  0  0  0.072459  -0.02473  0  1.72654  0
Br  Br104  1  0.32182292  0.59285831  0.21135452  1  0  -0.028222  0  1.427997  0  0  -0.026392  0  1.714982  0  0  -0.029341  0  1.70882  0  0  0.058202  -0.024109  0  1.720131  0
Br  Br105  1  0.67817072  0.40714382  0.78864815  1  0  -0.028187  0  1.428004  0  0  -0.026361  0  1.715015  0  0  -0.029314  0  1.708854  0  0  0.058239  -0.024074  0  1.720171  0
Br  Br106  1  0.99240112  0.11025971  0.68510772  1  0  -0.019873  0  1.457006  0  0  -0.016379  0  1.743139  0  0  -0.02148  0  1.741013  0  0  0.067615  -0.012911  0  1.745181  0
Br  Br107  1  0.00760198  0.88973444  0.31489066  1  0  -0.019832  0  1.457018  0  0  -0.016365  0  1.743133  0  0  -0.02146  0  1.740995  0  0  0.067632  -0.012902  0  1.745172  0
Br  Br108  1  0.69947636  0.19078062  0.62004116  1  0  -0.015043  0  1.337309  0  0  -0.008296  0  1.60415  0  0  -0.00971  0  1.59584  0  0  0.067244  -0.007298  0  1.610295  0
Br  Br109  1  0.30052656  0.80921631  0.37996542  1  0  -0.015016  0  1.337441  0  0  -0.008276  0  1.604288  0  0  -0.009693  0  1.595984  0  0  0.067264  -0.007273  0  1.610436  0
N  N110  1  0.32495651  0.01266801  0.73803287  1  0  -0.323756  0  3.244526  0  0  -0.244734  0  3.500451  0  0  -0.264421  0  3.519209  0  0  -0.324061  -0.2312  0  3.487399  0
N  N111  1  0.67504442  0.98733774  0.26196428  1  0  -0.323751  0  3.244512  0  0  -0.244721  0  3.500472  0  0  -0.264407  0  3.519225  0  0  -0.32401  -0.231189  0  3.487425  0
N  N112  1  0.02175618  0.45904874  0.75706518  1  0  -0.270812  0  2.905009  0  0  -0.258664  0  3.196728  0  0  -0.266875  0  3.208744  0  0  -0.222258  -0.252927  0  3.188812  0
N  N113  1  0.97824021  0.54095159  0.24293383  1  0  -0.270857  0  2.904948  0  0  -0.258737  0  3.196663  0  0  -0.266945  0  3.208685  0  0  -0.222284  -0.253002  0  3.188741  0
N  N114  1  0.92456486  0.55133447  0.81290546  1  0  -0.2448  0  2.90028  0  0  -0.229676  0  3.192823  0  0  -0.23821  0  3.205522  0  0  -0.210938  -0.223844  0  3.184543  0
N  N115  1  0.07542955  0.44866581  0.18709203  1  0  -0.244741  0  2.900348  0  0  -0.229626  0  3.192907  0  0  -0.238158  0  3.205603  0  0  -0.210873  -0.223796  0  3.18462  0
N  N116  1  0.63416610  0.67799495  0.15068850  1  0  -0.319422  0  3.067003  0  0  -0.2921  0  3.343997  0  0  -0.300952  0  3.358969  0  0  -0.331489  -0.285808  0  3.333799  0
N  N117  1  0.36583977  0.32200195  0.84931147  1  0  -0.319443  0  3.066862  0  0  -0.292114  0  3.343847  0  0  -0.300968  0  3.35883  0  0  -0.33148  -0.285822  0  3.333656  0
N  N118  1  0.59974852  0.65814138  0.58688447  1  0  -0.321832  0  3.225698  0  0  -0.245067  0  3.483276  0  0  -0.264025  0  3.50063  0  0  -0.323858  -0.232397  0  3.471058  0
N  N119  1  0.40025518  0.34185821  0.41311824  1  0  -0.321684  0  3.225749  0  0  -0.244952  0  3.483364  0  0  -0.263909  0  3.500715  0  0  -0.323803  -0.232285  0  3.471144  0
N  N120  1  0.02752926  0.30168550  0.44636479  1  0  -0.248301  0  2.918073  0  0  -0.23909  0  3.199891  0  0  -0.2468  0  3.213223  0  0  -0.213039  -0.233875  0  3.190984  0
N  N121  1  0.97247384  0.69831310  0.55363095  1  0  -0.248237  0  2.918092  0  0  -0.239021  0  3.199898  0  0  -0.246736  0  3.213241  0  0  -0.212986  -0.233802  0  3.19098  0
N  N122  1  0.10137679  0.22317359  0.37679415  1  0  -0.260876  0  3.026497  0  0  -0.215441  0  3.29551  0  0  -0.229361  0  3.309897  0  0  -0.197443  -0.206188  0  3.28598  0
N  N123  1  0.89861881  0.77682401  0.62320215  1  0  -0.261024  0  3.026643  0  0  -0.215573  0  3.29566  0  0  -0.229492  0  3.31004  0  0  -0.197539  -0.206313  0  3.286132  0
N  N124  1  0.13583745  0.05094541  0.08113065  1  0  -0.314704  0  3.087929  0  0  -0.277873  0  3.358382  0  0  -0.288632  0  3.375007  0  0  -0.327046  -0.270234  0  3.346708  0
N  N125  1  0.86416802  0.94905234  0.91886599  1  0  -0.314801  0  3.087939  0  0  -0.27798  0  3.358432  0  0  -0.288739  0  3.375053  0  0  -0.327122  -0.270337  0  3.346759  0
O  O126  1  0.96727715  0.38420726  0.90275063  1  0  -0.262538  0  2.316816  0  0  -0.190201  0  2.537467  0  0  -0.208135  0  2.540782  0  0  -0.096268  -0.178144  0  2.53557  0
O  O127  1  0.03272220  0.61579311  0.09724769  1  0  -0.262673  0  2.316716  0  0  -0.190328  0  2.537329  0  0  -0.208256  0  2.540647  0  0  -0.096353  -0.178276  0  2.535436  0
O  O128  1  0.89459562  0.33300157  0.35124335  1  0  -0.232699  0  2.296543  0  0  -0.160009  0  2.516338  0  0  -0.177255  0  2.516728  0  0  -0.081409  -0.148474  0  2.515847  0
O  O129  1  0.10539722  0.66700231  0.64875726  1  0  -0.232603  0  2.296491  0  0  -0.15996  0  2.516323  0  0  -0.177207  0  2.516715  0  0  -0.081343  -0.148422  0  2.515836  0
O  O130  1  0.37118124  0.69356307  0.80668908  1  0  -0.632659  0  1.948295  0  0  -0.574324  0  2.188474  0  0  -0.603907  0  2.180848  0  0  -0.326801  -0.553236  0  2.19263  0
O  O131  1  0.62882088  0.30644006  0.19331215  1  0  -0.632513  0  1.948514  0  0  -0.574151  0  2.188669  0  0  -0.603736  0  2.181047  0  0  -0.326662  -0.553065  0  2.192817  0
O  O132  1  0.57264296  0.71468590  0.80437308  1  0  -0.611259  0  1.912677  0  0  -0.556271  0  2.140782  0  0  -0.583824  0  2.13307  0  0  -0.324697  -0.536764  0  2.145215  0
O  O133  1  0.42735817  0.28532170  0.19562771  1  0  -0.611289  0  1.912605  0  0  -0.55629  0  2.140685  0  0  -0.583843  0  2.132973  0  0  -0.324806  -0.536785  0  2.145114  0
O  O134  1  0.25720956  0.83443328  0.62975375  1  0  -0.611587  0  1.996737  0  0  -0.555518  0  2.24986  0  0  -0.584643  0  2.242306  0  0  -0.316461  -0.534718  0  2.253863  0
O  O135  1  0.74279907  0.16556636  0.37024649  1  0  -0.611599  0  1.996603  0  0  -0.555533  0  2.249841  0  0  -0.584642  0  2.242246  0  0  -0.316517  -0.534732  0  2.25384  0
O  O136  1  0.35142456  0.95986120  0.53117978  1  0  -0.619962  0  2.002553  0  0  -0.558245  0  2.230125  0  0  -0.586222  0  2.221139  0  0  -0.305694  -0.538414  0  2.235398  0
O  O137  1  0.64857775  0.04014372  0.46882114  1  0  -0.619929  0  2.002322  0  0  -0.558214  0  2.230035  0  0  -0.586187  0  2.221037  0  0  -0.305664  -0.538385  0  2.235307  0
O  O138  1  0.62717941  0.90336257  0.62349271  1  0  -0.860832  0  1.929064  0  0  -0.799693  0  2.148879  0  0  -0.822433  0  2.112507  0  0  -0.608344  -0.783605  0  2.173887  0
O  O139  1  0.37281955  0.09663871  0.37650819  1  0  -0.860815  0  1.929074  0  0  -0.799688  0  2.148878  0  0  -0.822433  0  2.112516  0  0  -0.608353  -0.783596  0  2.173889  0
