# generated using pymatgen
data_AlH10C16O9
_symmetry_space_group_name_H-M   'P 1'
_cell_length_a   6.57992773
_cell_length_b   11.15115142
_cell_length_c   15.09288874
_cell_angle_alpha   85.44059667
_cell_angle_beta   78.84245267
_cell_angle_gamma   72.15313165
_symmetry_Int_Tables_number   1
_chemical_formula_structural   AlH10C16O9
_chemical_formula_sum   'Al2 H20 C32 O18'
_cell_volume   1033.96588804
_cell_formula_units_Z   2
loop_
 _symmetry_equiv_pos_site_id
 _symmetry_equiv_pos_as_xyz
  1  'x, y, z'
loop_
 _atom_site_type_symbol
 _atom_site_label
 _atom_site_symmetry_multiplicity
 _atom_site_fract_x
 _atom_site_fract_y
 _atom_site_fract_z
 _atom_site_occupancy
 _atom_site_pbe_bader_charge
 _atom_site_pbe_bader_spin_density
 _atom_site_pbe_cm5_charge
 _atom_site_pbe_ddec_charge
 _atom_site_pbe_ddec_spin_density
 _atom_site_pbe_ddec_sum_bond_order
 _atom_site_pbe_magmom
Al  Al0  1  0.48803744  0.50318782  0.49680973  1  2.498693  0  0.390758  1.630748  0  2.580018  0
Al  Al1  1  0.98936098  0.50437348  0.49827107  1  2.496357  0  0.388757  1.627599  0  2.590309  0
H  H2  1  0.28461944  0.35878153  0.55993833  1  0.658177  0  0.338005  0.425404  0  0.889852  0
H  H3  1  0.66237263  0.65953034  0.47864117  1  0.597645  0  0.339666  0.398223  0  0.911491  0
H  H4  1  0.81779048  0.46088906  0.95403282  1  0.050774  0  0.099277  0.100306  0  1.019714  0
H  H5  1  0.15902645  0.47561832  0.04636123  1  0.060794  0  0.098586  0.099357  0  1.021719  0
H  H6  1  0.57131173  0.61808851  0.23558002  1  0.093391  0  0.10675  0.106534  0  1.015904  0
H  H7  1  0.65941008  0.63984706  0.06898937  1  0.113125  0  0.106443  0.11128  0  0.992822  0
H  H8  1  0.27836895  0.60696547  0.75138391  1  0.084256  0  0.104014  0.101428  0  1.00719  0
H  H9  1  0.15748197  0.63585562  0.91760027  1  0.080155  0  0.104601  0.108954  0  0.993953  0
H  H10  1  0.23256719  0.23454827  0.38114087  1  0.102126  0  0.116925  0.119845  0  1.034239  0
H  H11  1  0.44144596  0.76592805  0.38350569  1  0.103827  0  0.116031  0.120686  0  1.03509  0
H  H12  1  0.08988404  0.46846277  0.73731236  1  0.086239  0  0.098326  0.148174  0  1.008776  0
H  H13  1  0.01992759  0.32878782  0.74007726  1  0.030212  0  0.090813  0.128135  0  0.994643  0
H  H14  1  0.09214363  0.37256266  0.83755154  1  0.053116  0  0.090393  0.126636  0  1.000614  0
H  H15  1  0.88960540  0.49856622  0.26772192  1  0.10379  0  0.102881  0.157145  0  0.99912  0
H  H16  1  0.07133251  0.34767193  0.25742550  1  0.021591  0  0.086887  0.114321  0  1.030141  0
H  H17  1  0.94501566  0.41699681  0.16447498  1  0.038529  0  0.089725  0.128435  0  1.008078  0
H  H18  1  0.98902433  0.81021807  0.67530406  1  0.602008  0  0.342551  0.377672  0  0.863969  0
H  H19  1  0.75902575  0.14008982  0.69248078  1  0.607851  0  0.349364  0.382472  0  0.850007  0
H  H20  1  0.41121857  0.24704538  0.22960177  1  0.596497  0  0.332863  0.366274  0  0.897282  0
H  H21  1  0.85570284  0.76393127  0.37196583  1  0.620545  0  0.321326  0.35572  0  0.93093  0
C  C22  1  0.85356036  0.27996719  0.48390349  1  1.547537  0  0.275957  0.640576  0  4.10462  0
C  C23  1  0.67225481  0.50925745  0.65998947  1  1.539805  0  0.26743  0.65002  0  4.088449  0
C  C24  1  0.12970871  0.73331192  0.50524444  1  1.556697  0  0.264196  0.621237  0  4.135445  0
C  C25  1  0.28967200  0.51654247  0.33487828  1  1.538693  0  0.262759  0.634869  0  4.088667  0
C  C26  1  0.61409934  0.52145141  0.75962857  1  -0.005938  0  -0.019248  -0.111043  0  3.933261  0
C  C27  1  0.32139019  0.53177693  0.23532730  1  -0.100046  0  -0.019965  -0.11953  0  3.93987  0
C  C28  1  0.77175169  0.47902417  0.81595599  1  -0.026849  0  0.00458  0.173249  0  3.938666  0
C  C29  1  0.70053100  0.49667718  0.90875930  1  -0.000961  0  -0.092645  -0.20087  0  3.934109  0
C  C30  1  0.19655028  0.49382878  0.18230731  1  -0.050636  0  0.003528  0.174275  0  3.924704  0
C  C31  1  0.24836784  0.50803185  0.08852142  1  -0.023057  0  -0.091723  -0.200398  0  3.923959  0
C  C32  1  0.48290312  0.58607792  0.19318655  1  0.011456  0  -0.07488  -0.060101  0  3.981282  0
C  C33  1  0.53278220  0.59762288  0.10002909  1  -0.05707  0  -0.088125  -0.138687  0  3.975358  0
C  C34  1  0.39530316  0.57664186  0.79695962  1  -0.009036  0  -0.08059  -0.07519  0  4.008334  0
C  C35  1  0.32803468  0.59205694  0.88951118  1  -0.073723  0  -0.091867  -0.145031  0  3.991034  0
C  C36  1  0.48169716  0.55148045  0.94680992  1  -0.072052  0  -0.001087  0.085309  0  4.012197  0
C  C37  1  0.41804576  0.55545021  0.04609144  1  0.035433  0  0.005082  0.095034  0  4.00346  0
C  C38  1  0.92852601  0.13854729  0.48634240  1  0.134719  0  0.014283  -0.064996  0  3.868247  0
C  C39  1  0.13396194  0.07091422  0.43603095  1  0.10036  0  0.021152  0.096617  0  3.902381  0
C  C40  1  0.79836262  0.07524634  0.54217152  1  -0.065143  0  -0.003151  -0.094142  0  3.975468  0
C  C41  1  0.27573460  0.13217526  0.38111667  1  -0.013281  0  -0.066268  -0.125157  0  3.898161  0
C  C42  1  0.47220895  0.06419029  0.33259935  1  0.024106  0  -0.003368  -0.060713  0  3.978641  0
C  C43  1  0.06473659  0.87412896  0.49879460  1  -0.035278  0  -3.6e-05  -0.095425  0  3.932285  0
C  C44  1  0.87038546  0.94187307  0.55056679  1  -0.00414  0  -0.011494  -0.110416  0  4.018871  0
C  C45  1  0.20007382  0.93610969  0.44014277  1  0.029058  0  0.017047  0.094845  0  3.918835  0
C  C46  1  0.39846795  0.86820017  0.38585518  1  -0.029401  0  -0.076792  -0.143805  0  3.902773  0
C  C47  1  0.53397653  0.92982093  0.33409473  1  -0.008693  0  -0.000664  -0.044665  0  3.975691  0
C  C48  1  0.00553611  0.40904067  0.78127212  1  -0.071056  0  -0.241018  -0.413379  0  3.957432  0
C  C49  1  0.01684717  0.43660621  0.21936028  1  -0.047884  0  -0.238569  -0.411818  0  3.94625  0
C  C50  1  0.73714313  0.87551224  0.61759579  1  1.530296  0  0.229519  0.568207  0  4.142266  0
C  C51  1  0.58805344  0.14627808  0.60062990  1  1.549891  0  0.246362  0.585817  0  4.102266  0
C  C52  1  0.63467924  0.12845456  0.28574543  1  1.532452  0  0.237572  0.58322  0  4.109899  0
C  C53  1  0.73195970  0.85775820  0.27013796  1  1.572902  0  0.234056  0.574373  0  4.130783  0
O  O54  1  0.66506405  0.33463334  0.46701448  1  -1.242511  0  -0.217895  -0.55452  0  2.320116  0
O  O55  1  0.85216081  0.52618953  0.62128200  1  -1.257582  0  -0.237942  -0.595428  0  2.376856  0
O  O56  1  0.99270750  0.68142846  0.48932697  1  -1.25194  0  -0.224503  -0.580684  0  2.364205  0
O  O57  1  0.42832939  0.53770857  0.37600402  1  -1.272823  0  -0.243943  -0.608975  0  2.355845  0
O  O58  1  0.31331395  0.67659242  0.52553868  1  -1.242394  0  -0.222592  -0.559368  0  2.367108  0
O  O59  1  0.12374816  0.48471038  0.37527336  1  -1.268432  0  -0.237767  -0.592525  0  2.402042  0
O  O60  1  0.98358406  0.33413789  0.50191334  1  -1.253497  0  -0.218756  -0.569662  0  2.397033  0
O  O61  1  0.53802758  0.48292593  0.61954186  1  -1.262092  0  -0.246983  -0.616972  0  2.36381  0
O  O62  1  0.25287249  0.44539691  0.53587937  1  -1.459231  0  -0.453985  -0.998368  0  2.216924  0
O  O63  1  0.71890845  0.57137446  0.46204621  1  -1.403747  0  -0.452078  -0.974794  0  2.200736  0
O  O64  1  0.84019854  0.80594487  0.68311689  1  -1.078658  0  -0.318884  -0.449106  0  2.211729  0
O  O65  1  0.54885403  0.88423386  0.61674885  1  -1.097549  0  -0.270335  -0.431059  0  2.064168  0
O  O66  1  0.60687182  0.16967125  0.68527413  1  -1.080609  0  -0.315035  -0.446185  0  2.189794  0
O  O67  1  0.41159108  0.18071514  0.57773421  1  -1.111785  0  -0.243516  -0.424855  0  2.162059  0
O  O68  1  0.56276604  0.23297359  0.23481770  1  -1.090988  0  -0.321606  -0.453352  0  2.24297  0
O  O69  1  0.82421241  0.09105045  0.29486174  1  -1.111871  0  -0.271797  -0.449734  0  2.089208  0
O  O70  1  0.88536886  0.76682113  0.30568591  1  -1.127287  0  -0.322395  -0.452116  0  2.283479  0
O  O71  1  0.75001397  0.87655041  0.18888445  1  -1.095859  0  -0.27696  -0.439925  0  2.02658  0
