# generated using pymatgen
data_CdH10C10Br2(N3O2)2
_symmetry_space_group_name_H-M   'P 1'
_cell_length_a   3.86139820
_cell_length_b   13.03955114
_cell_length_c   15.60713549
_cell_angle_alpha   89.99975760
_cell_angle_beta   89.99998176
_cell_angle_gamma   90.00196323
_symmetry_Int_Tables_number   1
_chemical_formula_structural   CdH10C10Br2(N3O2)2
_chemical_formula_sum   'Cd2 H20 C20 Br4 N12 O8'
_cell_volume   785.83330695
_cell_formula_units_Z   2
loop_
 _symmetry_equiv_pos_site_id
 _symmetry_equiv_pos_as_xyz
  1  'x, y, z'
loop_
 _atom_site_type_symbol
 _atom_site_label
 _atom_site_symmetry_multiplicity
 _atom_site_fract_x
 _atom_site_fract_y
 _atom_site_fract_z
 _atom_site_occupancy
 _atom_site_hle17_bader_spin_density
 _atom_site_hle17_ddec_charge
 _atom_site_hle17_ddec_spin_density
 _atom_site_hle17_ddec_sum_bond_order
 _atom_site_hle17_magmom
 _atom_site_hse06_10hf_bader_spin_density
 _atom_site_hse06_10hf_ddec_charge
 _atom_site_hse06_10hf_ddec_spin_density
 _atom_site_hse06_10hf_ddec_sum_bond_order
 _atom_site_hse06_10hf_magmom
 _atom_site_hse06_bader_spin_density
 _atom_site_hse06_ddec_charge
 _atom_site_hse06_ddec_spin_density
 _atom_site_hse06_ddec_sum_bond_order
 _atom_site_hse06_magmom
 _atom_site_pbe_bader_spin_density
 _atom_site_pbe_cm5_charge
 _atom_site_pbe_ddec_charge
 _atom_site_pbe_ddec_spin_density
 _atom_site_pbe_ddec_sum_bond_order
 _atom_site_pbe_magmom
Cd  Cd0  1  0.48547746  0.50000486  0.49999955  1  0  0.838062  0  1.998585  0  0  0.675042  0  2.444991  0  0  0.725758  0  2.407294  0  0  0.529114  0.638709  0  2.471695  0
Cd  Cd1  1  0.98551274  0.99999550  0.00000758  1  0  0.838025  0  1.99859  0  0  0.675005  0  2.444993  0  0  0.725716  0  2.4073  0  0  0.52907  0.63867  0  2.471691  0
H  H2  1  0.14612505  0.13962497  0.67273838  1  0  0.135813  0  0.954339  0  0  0.141186  0  1.016244  0  0  0.145293  0  1.01459  0  0  0.109801  0.138301  0  1.017619  0
H  H3  1  0.14620003  0.86038017  0.32726015  1  0  0.135643  0  0.954556  0  0  0.141049  0  1.01644  0  0  0.145152  0  1.014792  0  0  0.109783  0.138169  0  1.017808  0
H  H4  1  0.64619075  0.63960705  0.82725153  1  0  0.135689  0  0.954311  0  0  0.141085  0  1.01627  0  0  0.145184  0  1.014621  0  0  0.109776  0.138195  0  1.017636  0
H  H5  1  0.64616069  0.36037670  0.17273751  1  0  0.135699  0  0.954549  0  0  0.141071  0  1.016483  0  0  0.145169  0  1.014834  0  0  0.109772  0.138188  0  1.017851  0
H  H6  1  0.95676415  0.23253773  0.80536411  1  0  0.114455  0  0.958353  0  0  0.118364  0  1.029592  0  0  0.122037  0  1.02551  0  0  0.101403  0.115547  0  1.03271  0
H  H7  1  0.95683376  0.76746326  0.19463394  1  0  0.114374  0  0.958561  0  0  0.118318  0  1.029725  0  0  0.121991  0  1.025653  0  0  0.101431  0.115494  0  1.032868  0
H  H8  1  0.45685221  0.73253618  0.69462603  1  0  0.114472  0  0.958461  0  0  0.118365  0  1.029696  0  0  0.122033  0  1.025625  0  0  0.101447  0.115553  0  1.032794  0
H  H9  1  0.45685660  0.26746626  0.30537575  1  0  0.114418  0  0.958426  0  0  0.118306  0  1.029682  0  0  0.121979  0  1.025609  0  0  0.101431  0.115487  0  1.032787  0
H  H10  1  0.41313400  0.50718314  0.70056235  1  0  0.088015  0  0.960664  0  0  0.09066  0  1.035152  0  0  0.094139  0  1.030357  0  0  0.108014  0.088043  0  1.038582  0
H  H11  1  0.41313757  0.49282449  0.29943546  1  0  0.087993  0  0.960717  0  0  0.090667  0  1.035195  0  0  0.094157  0  1.030389  0  0  0.108032  0.088039  0  1.038633  0
H  H12  1  0.91307445  0.00717876  0.79944112  1  0  0.087948  0  0.960584  0  0  0.090511  0  1.035211  0  0  0.093997  0  1.030427  0  0  0.107963  0.087887  0  1.038645  0
H  H13  1  0.91314061  0.99282743  0.20057028  1  0  0.087908  0  0.960705  0  0  0.09059  0  1.035169  0  0  0.094065  0  1.030368  0  0  0.108022  0.087967  0  1.038613  0
H  H14  1  0.63546861  0.26510471  0.50127295  1  0  0.322143  0  0.924783  0  0  0.301849  0  0.997054  0  0  0.309473  0  0.991018  0  0  0.283025  0.296366  0  1.001436  0
H  H15  1  0.63550198  0.73489223  0.49872855  1  0  0.32221  0  0.924714  0  0  0.301848  0  0.997056  0  0  0.309501  0  0.990993  0  0  0.283023  0.29636  0  1.001453  0
H  H16  1  0.13539318  0.76510696  0.99873168  1  0  0.32221  0  0.924651  0  0  0.301867  0  0.996983  0  0  0.309517  0  0.990923  0  0  0.283059  0.296378  0  1.001377  0
H  H17  1  0.13537753  0.23488989  0.00126137  1  0  0.32216  0  0.924574  0  0  0.301849  0  0.996892  0  0  0.309479  0  0.99085  0  0  0.283062  0.296359  0  1.001291  0
H  H18  1  0.46974536  0.14970803  0.54043139  1  0  0.354419  0  0.855153  0  0  0.335228  0  0.916828  0  0  0.343058  0  0.909691  0  0  0.319998  0.32971  0  0.921856  0
H  H19  1  0.46978311  0.85029653  0.45957709  1  0  0.354316  0  0.855209  0  0  0.33516  0  0.916856  0  0  0.342975  0  0.909744  0  0  0.319908  0.329652  0  0.921875  0
H  H20  1  0.96974666  0.64969281  0.95957157  1  0  0.35434  0  0.854997  0  0  0.335229  0  0.916589  0  0  0.343047  0  0.909466  0  0  0.319975  0.329734  0  0.921581  0
H  H21  1  0.96971235  0.35029649  0.04040948  1  0  0.354423  0  0.855039  0  0  0.3352  0  0.916748  0  0  0.34304  0  0.909601  0  0  0.319999  0.329688  0  0.921771  0
C  C22  1  0.20311951  0.22055112  0.68212265  1  0  -0.205792  0  3.653328  0  0  -0.219387  0  3.903426  0  0  -0.232882  0  3.923283  0  0  -0.091697  -0.210823  0  3.890154  0
C  C23  1  0.20316688  0.77945400  0.31787437  1  0  -0.205475  0  3.653206  0  0  -0.219135  0  3.903375  0  0  -0.232642  0  3.923218  0  0  -0.09168  -0.210566  0  3.890101  0
C  C24  1  0.70315525  0.72054305  0.81787322  1  0  -0.205559  0  3.652642  0  0  -0.219292  0  3.90297  0  0  -0.232802  0  3.922792  0  0  -0.091768  -0.210719  0  3.889688  0
C  C25  1  0.70312643  0.27945449  0.18212006  1  0  -0.205516  0  3.653296  0  0  -0.219213  0  3.903439  0  0  -0.232692  0  3.923292  0  0  -0.091633  -0.210655  0  3.890166  0
C  C26  1  0.10095147  0.27106087  0.75478762  1  0  -0.022992  0  3.731144  0  0  -0.052331  0  3.992581  0  0  -0.043709  0  4.008939  0  0  -0.070764  -0.05747  0  3.981318  0
C  C27  1  0.10099960  0.72893108  0.24521211  1  0  -0.023173  0  3.731541  0  0  -0.052507  0  3.99295  0  0  -0.043887  0  4.00931  0  0  -0.070865  -0.05765  0  3.981671  0
C  C28  1  0.60098422  0.77105811  0.74520660  1  0  -0.023134  0  3.730982  0  0  -0.05254  0  3.99245  0  0  -0.043917  0  4.008805  0  0  -0.070902  -0.057678  0  3.981174  0
C  C29  1  0.60100359  0.22894389  0.25479005  1  0  -0.023016  0  3.731268  0  0  -0.052336  0  3.992792  0  0  -0.043711  0  4.009133  0  0  -0.070831  -0.057465  0  3.981501  0
C  C30  1  0.18840559  0.37559419  0.76322809  1  0  -0.011905  0  3.733115  0  0  -0.029985  0  3.994834  0  0  -0.042621  0  4.019242  0  0  0.057955  -0.022078  0  3.978399  0
C  C31  1  0.18841479  0.62440194  0.23676803  1  0  -0.011758  0  3.733286  0  0  -0.02978  0  3.994891  0  0  -0.042414  0  4.019301  0  0  0.058027  -0.021865  0  3.978446  0
C  C32  1  0.68837770  0.87560059  0.73675800  1  0  -0.012173  0  3.732928  0  0  -0.029861  0  3.994288  0  0  -0.042497  0  4.018689  0  0  0.05804  -0.021955  0  3.977858  0
C  C33  1  0.68842761  0.12441326  0.26323376  1  0  -0.011952  0  3.733043  0  0  -0.030076  0  3.994791  0  0  -0.042708  0  4.019194  0  0  0.057866  -0.022167  0  3.978354  0
C  C34  1  0.35561734  0.42562146  0.69601757  1  0  0.124265  0  3.735832  0  0  0.078626  0  4.004955  0  0  0.092088  0  4.021309  0  0  0.047572  0.070147  0  3.993566  0
C  C35  1  0.35562595  0.57438312  0.30398306  1  0  0.124218  0  3.736106  0  0  0.07848  0  4.005267  0  0  0.091933  0  4.021617  0  0  0.047494  0.070006  0  3.993871  0
C  C36  1  0.85557196  0.92561972  0.80397830  1  0  0.12481  0  3.735271  0  0  0.079132  0  4.004339  0  0  0.092576  0  4.020682  0  0  0.047752  0.070658  0  3.992944  0
C  C37  1  0.85562259  0.07438724  0.19602309  1  0  0.124596  0  3.735687  0  0  0.078911  0  4.004849  0  0  0.092381  0  4.021207  0  0  0.047672  0.070429  0  3.993468  0
C  C38  1  0.38528570  0.27494895  0.61699543  1  0  0.505706  0  3.798099  0  0  0.47779  0  4.056572  0  0  0.501323  0  4.069124  0  0  0.240593  0.46209  0  4.047532  0
C  C39  1  0.38531692  0.72504296  0.38300569  1  0  0.505491  0  3.79798  0  0  0.477588  0  4.056516  0  0  0.501171  0  4.068998  0  0  0.240475  0.461889  0  4.047475  0
C  C40  1  0.88528750  0.77496398  0.88301078  1  0  0.505716  0  3.797963  0  0  0.477883  0  4.056421  0  0  0.5015  0  4.068854  0  0  0.24069  0.462165  0  4.047397  0
C  C41  1  0.88527933  0.22505256  0.11699110  1  0  0.505581  0  3.798299  0  0  0.477846  0  4.056533  0  0  0.501369  0  4.069108  0  0  0.240659  0.462145  0  4.047497  0
Br  Br42  1  0.97495698  0.61385762  0.58401704  1  0  -0.469992  0  1.135483  0  0  -0.405931  0  1.448091  0  0  -0.42802  0  1.427197  0  0  -0.214433  -0.389706  0  1.463228  0
Br  Br43  1  0.97500860  0.38613928  0.41599526  1  0  -0.47004  0  1.135529  0  0  -0.405983  0  1.44815  0  0  -0.42808  0  1.427263  0  0  -0.214474  -0.389757  0  1.463275  0
Br  Br44  1  0.47502515  0.11386277  0.91600124  1  0  -0.470029  0  1.135484  0  0  -0.405941  0  1.44807  0  0  -0.428021  0  1.427173  0  0  -0.214478  -0.389709  0  1.463203  0
Br  Br45  1  0.47500470  0.88612484  0.08401095  1  0  -0.469974  0  1.13542  0  0  -0.405929  0  1.448068  0  0  -0.428017  0  1.427167  0  0  -0.214478  -0.389693  0  1.463205  0
N  N46  1  0.44297012  0.37831131  0.62331744  1  0  -0.433023  0  3.148556  0  0  -0.362842  0  3.412846  0  0  -0.389068  0  3.429807  0  0  -0.338827  -0.345072  0  3.400745  0
N  N47  1  0.44299485  0.62167905  0.37668215  1  0  -0.432838  0  3.148815  0  0  -0.362628  0  3.413093  0  0  -0.388869  0  3.430043  0  0  -0.338718  -0.344853  0  3.400985  0
N  N48  1  0.94292775  0.87833340  0.87668280  1  0  -0.433309  0  3.148667  0  0  -0.363155  0  3.413009  0  0  -0.389408  0  3.429948  0  0  -0.33888  -0.34538  0  3.400907  0
N  N49  1  0.94293929  0.12169155  0.12332202  1  0  -0.433173  0  3.148911  0  0  -0.363009  0  3.413155  0  0  -0.389237  0  3.430122  0  0  -0.338857  -0.345229  0  3.401049  0
N  N50  1  0.50370026  0.22636493  0.54776257  1  0  -0.620124  0  3.134599  0  0  -0.586154  0  3.366425  0  0  -0.61  0  3.365823  0  0  -0.552586  -0.569302  0  3.366282  0
N  N51  1  0.50373366  0.77363073  0.45223988  1  0  -0.620003  0  3.134486  0  0  -0.585992  0  3.366353  0  0  -0.609869  0  3.365705  0  0  -0.552413  -0.569137  0  3.366223  0
N  N52  1  0.00367462  0.72636273  0.95224011  1  0  -0.620111  0  3.134428  0  0  -0.586127  0  3.366247  0  0  -0.610014  0  3.365579  0  0  -0.552594  -0.569286  0  3.366091  0
N  N53  1  0.00365266  0.27363438  0.04775261  1  0  -0.620139  0  3.134452  0  0  -0.586155  0  3.366274  0  0  -0.610018  0  3.365641  0  0  -0.552669  -0.569298  0  3.366157  0
N  N54  1  0.09262030  0.43156126  0.83860821  1  0  0.474331  0  3.982888  0  0  0.533268  0  4.241625  0  0  0.555763  0  4.25105  0  0  0.041621  0.518288  0  4.235286  0
N  N55  1  0.09259332  0.56843234  0.16139111  1  0  0.474229  0  3.982996  0  0  0.533291  0  4.241555  0  0  0.555783  0  4.250978  0  0  0.04171  0.518307  0  4.235208  0
N  N56  1  0.59261156  0.93157425  0.66138783  1  0  0.474345  0  3.982961  0  0  0.533006  0  4.241933  0  0  0.555503  0  4.251355  0  0  0.041481  0.518023  0  4.235596  0
N  N57  1  0.59263879  0.06843477  0.33861160  1  0  0.473985  0  3.983263  0  0  0.533145  0  4.241727  0  0  0.555637  0  4.251156  0  0  0.041636  0.518161  0  4.235388  0
O  O58  1  0.91045941  0.38696475  0.89331943  1  0  -0.379322  0  1.757556  0  0  -0.372741  0  1.957971  0  0  -0.383  0  1.952093  0  0  -0.154066  -0.365993  0  1.962215  0
O  O59  1  0.91044152  0.61303611  0.10668178  1  0  -0.379248  0  1.757454  0  0  -0.372797  0  1.957859  0  0  -0.383054  0  1.951976  0  0  -0.154175  -0.366044  0  1.962099  0
O  O60  1  0.41046792  0.88696475  0.60667527  1  0  -0.379294  0  1.757441  0  0  -0.372663  0  1.957912  0  0  -0.382921  0  1.95203  0  0  -0.153992  -0.365912  0  1.962152  0
O  O61  1  0.41048174  0.11302375  0.39332582  1  0  -0.379152  0  1.757856  0  0  -0.372609  0  1.958153  0  0  -0.382869  0  1.952279  0  0  -0.153973  -0.365855  0  1.96238  0
O  O62  1  0.19075949  0.52266072  0.84630194  1  0  -0.395005  0  1.771751  0  0  -0.385102  0  1.974742  0  0  -0.396736  0  1.969262  0  0  -0.152138  -0.377397  0  1.978682  0
O  O63  1  0.19071205  0.47732847  0.15371015  1  0  -0.395012  0  1.771896  0  0  -0.385097  0  1.974778  0  0  -0.396729  0  1.969306  0  0  -0.152128  -0.377389  0  1.978716  0
O  O64  1  0.69078183  0.02267383  0.65369863  1  0  -0.394958  0  1.771769  0  0  -0.384997  0  1.974882  0  0  -0.396628  0  1.9694  0  0  -0.152107  -0.37729  0  1.978823  0
O  O65  1  0.69079118  0.97733539  0.34630587  1  0  -0.39482  0  1.771655  0  0  -0.385118  0  1.974695  0  0  -0.39675  0  1.969208  0  0  -0.152226  -0.377414  0  1.978644  0
