# generated using pymatgen
data_CuB2H32C14S4(OF2)4
_symmetry_space_group_name_H-M   'P 1'
_cell_length_a   7.68253834
_cell_length_b   10.90591623
_cell_length_c   15.09400000
_cell_angle_alpha   90.00000000
_cell_angle_beta   96.14103019
_cell_angle_gamma   90.00000000
_symmetry_Int_Tables_number   1
_chemical_formula_structural   CuB2H32C14S4(OF2)4
_chemical_formula_sum   'Cu2 B4 H64 C28 S8 O8 F16'
_cell_volume   1257.39550300
_cell_formula_units_Z   2
loop_
 _symmetry_equiv_pos_site_id
 _symmetry_equiv_pos_as_xyz
  1  'x, y, z'
loop_
 _atom_site_type_symbol
 _atom_site_label
 _atom_site_symmetry_multiplicity
 _atom_site_fract_x
 _atom_site_fract_y
 _atom_site_fract_z
 _atom_site_occupancy
 _atom_site_hle17_ddec_charge
 _atom_site_hle17_ddec_spin_density
 _atom_site_hle17_ddec_sum_bond_order
 _atom_site_hle17_magmom
 _atom_site_hse06_10hf_ddec_charge
 _atom_site_hse06_10hf_ddec_spin_density
 _atom_site_hse06_10hf_ddec_sum_bond_order
 _atom_site_hse06_10hf_magmom
 _atom_site_hse06_ddec_charge
 _atom_site_hse06_ddec_spin_density
 _atom_site_hse06_ddec_sum_bond_order
 _atom_site_hse06_magmom
 _atom_site_pbe_cm5_charge
 _atom_site_pbe_ddec_charge
 _atom_site_pbe_ddec_spin_density
 _atom_site_pbe_ddec_sum_bond_order
 _atom_site_pbe_magmom
Cu  Cu0  1  0.00000131  0.50000017  0.99999808  1  1.007006  -0.677324  1.669843  -0.508  1.014034  -0.784015  2.054423  -0.64  1.101015  -0.851671  1.994177  -0.733  0.70496  0.943703  -0.73384  2.121112  -0.579
Cu  Cu1  1  0.50000178  0.00000550  0.50000036  1  1.006984  -0.677308  1.669781  -0.508  1.014048  -0.784008  2.054365  -0.64  1.101044  -0.851649  1.994144  -0.733  0.704993  0.94375  -0.733844  2.121024  -0.579
B  B2  1  0.76155344  0.25021373  0.10118797  1  1.238635  -3.9e-05  2.849766  0.0  1.067022  1.5e-05  3.243522  0.0  1.107489  5e-06  3.191907  0.0  0.034362  1.03834  1.2e-05  3.279769  0.0
B  B3  1  0.73845583  0.75021574  0.39881797  1  1.238857  -3.9e-05  2.849405  0.0  1.066943  1.5e-05  3.243703  0.0  1.107501  6e-06  3.191921  0.0  0.034338  1.038265  1.2e-05  3.279943  0.0
B  B4  1  0.23844881  0.74978295  0.89881467  1  1.238938  -4e-05  2.849239  0.0  1.067057  1.5e-05  3.243464  0.0  1.107606  4e-06  3.191705  0.0  0.034361  1.038313  1.2e-05  3.279829  0.0
B  B5  1  0.26154511  0.24979194  0.60118394  1  1.23857  -4e-05  2.849617  0.0  1.066733  1.6e-05  3.244097  0.0  1.107256  4e-06  3.192411  0.0  0.034308  1.038134  1.2e-05  3.28015  0.0
H  H6  1  0.99976006  0.47789932  0.36118993  1  0.116155  -1e-05  0.949993  0.0  0.138638  7e-06  1.008982  0.0  0.139271  1.6e-05  1.010163  0.0  0.094579  0.138086  -5e-06  1.00826  0.0
H  H7  1  0.50023874  0.97790133  0.13880815  1  0.116256  -1.9e-05  0.949999  0.0  0.138703  6e-06  1.00903  0.0  0.139337  1.6e-05  1.010215  0.0  0.094624  0.138156  -5e-06  1.008298  0.0
H  H8  1  0.00023041  0.52209644  0.63880544  1  0.116158  -5e-06  0.949963  0.0  0.138619  7e-06  1.008995  0.0  0.139254  1.6e-05  1.010184  0.0  0.094589  0.138069  -4e-06  1.008269  0.0
H  H9  1  0.49975828  0.02210085  0.86119089  1  0.116128  -1.4e-05  0.950028  0.0  0.138629  7e-06  1.008994  0.0  0.139259  1.6e-05  1.010182  0.0  0.094564  0.13806  -4e-06  1.008297  0.0
H  H10  1  0.21324476  0.43681979  0.33740260  1  0.093546  3e-06  0.964052  0.0  0.114095  -7e-06  1.030051  0.0  0.114997  2e-06  1.0309  0.0  0.086416  0.113367  -1.8e-05  1.029547  0.0
H  H11  1  0.28675441  0.93681537  0.16259232  1  0.093493  -6e-06  0.964034  0.0  0.114066  -7e-06  1.030025  0.0  0.114966  2e-06  1.030876  0.0  0.086423  0.113338  -1.8e-05  1.02952  0.0
H  H12  1  0.78674440  0.56318056  0.66259006  1  0.093417  7e-06  0.964126  0.0  0.114017  -7e-06  1.030079  0.0  0.114916  2e-06  1.030933  0.0  0.08639  0.113288  -1.8e-05  1.029576  0.0
H  H13  1  0.71324654  0.06318405  0.83740494  1  0.093496  -3e-06  0.964137  0.0  0.114083  -7e-06  1.030087  0.0  0.114983  2e-06  1.030941  0.0  0.086435  0.113358  -1.8e-05  1.029574  0.0
H  H14  1  0.02841020  0.40272178  0.25891870  1  0.116711  -6.2e-05  0.946749  0.0  0.134985  -7e-05  1.010275  0.0  0.137324  -4.1e-05  1.008849  0.0  0.09232  0.133226  -9.8e-05  1.011358  0.0
H  H15  1  0.47158896  0.90272379  0.24107556  1  0.11674  -5.5e-05  0.946543  0.0  0.134983  -7e-05  1.010153  0.0  0.137334  -4.1e-05  1.008705  0.0  0.092309  0.133224  -9.8e-05  1.011233  0.0
H  H16  1  0.97157634  0.59727490  0.74107580  1  0.116718  -5.3e-05  0.94658  0.0  0.134995  -7e-05  1.010135  0.0  0.137332  -4.1e-05  1.008705  0.0  0.092336  0.133237  -9.8e-05  1.011214  0.0
H  H17  1  0.52841067  0.09727748  0.75892164  1  0.116695  -6.6e-05  0.946617  0.0  0.134945  -7e-05  1.010196  0.0  0.137299  -4.1e-05  1.008746  0.0  0.092317  0.133185  -9.8e-05  1.011276  0.0
H  H18  1  0.16281569  0.66485290  0.30888365  1  0.109311  0.000101  0.917403  0.0  0.127036  1e-06  0.972859  0.0  0.128325  3e-06  0.972439  0.0  0.109353  0.125948  -8e-06  0.973465  0.0
H  H19  1  0.33717823  0.16485181  0.19111430  1  0.109425  9.6e-05  0.9174  0.0  0.127117  1e-06  0.972856  0.0  0.128403  4e-06  0.972448  0.0  0.109367  0.126031  -8e-06  0.973461  0.0
H  H20  1  0.83717608  0.33514195  0.69111379  1  0.109372  9.7e-05  0.917425  0.0  0.127096  1e-06  0.972861  0.0  0.128383  3e-06  0.97245  0.0  0.109372  0.126007  -7e-06  0.973466  0.0
H  H21  1  0.66282009  0.83514946  0.80888415  1  0.109348  0.00011  0.917367  0.0  0.127065  1e-06  0.972814  0.0  0.128353  3e-06  0.972396  0.0  0.109347  0.125974  -7e-06  0.973422  0.0
H  H22  1  0.96576495  0.63160397  0.24151663  1  0.122436  7.6e-05  0.924227  0.0  0.137219  -3.6e-05  0.979838  0.0  0.139184  -2e-05  0.978934  0.0  0.108301  0.135712  -6.3e-05  0.980692  0.0
H  H23  1  0.53422992  0.13160380  0.25847991  1  0.122393  7.9e-05  0.924428  0.0  0.137238  -3.6e-05  0.979922  0.0  0.139179  -2e-05  0.979056  0.0  0.108292  0.135731  -6.3e-05  0.980777  0.0
H  H24  1  0.03422421  0.36840096  0.75847801  1  0.122394  8.5e-05  0.924398  0.0  0.137235  -3.6e-05  0.979911  0.0  0.139197  -2e-05  0.979014  0.0  0.108301  0.135724  -6.2e-05  0.980767  0.0
H  H25  1  0.46576972  0.86839746  0.74151662  1  0.122372  9.1e-05  0.924386  0.0  0.137179  -3.6e-05  0.979942  0.0  0.13914  -2e-05  0.979043  0.0  0.108282  0.135669  -6.2e-05  0.980797  0.0
H  H26  1  0.46622792  0.61839188  0.26721270  1  0.128873  -0.000707  0.950346  -0.001  0.141561  -0.000705  1.009407  -0.001  0.143558  -0.000479  1.00847  -0.001  0.106112  0.139991  -0.000883  1.010338  -0.001
H  H27  1  0.03376731  0.11839262  0.23278996  1  0.128807  -0.000699  0.95052  -0.001  0.141566  -0.000705  1.009475  -0.001  0.143589  -0.000479  1.00851  -0.001  0.106105  0.139992  -0.000883  1.010411  -0.001
H  H28  1  0.53377040  0.38160755  0.73278840  1  0.128791  -0.000705  0.950484  -0.001  0.141577  -0.000705  1.00942  -0.001  0.143575  -0.000479  1.008485  -0.001  0.106107  0.139996  -0.000883  1.01036  -0.001
H  H29  1  0.96623494  0.88160314  0.76721003  1  0.128903  -0.0007  0.950441  -0.001  0.141573  -0.000705  1.009445  -0.001  0.143567  -0.000479  1.008514  -0.001  0.106095  0.140003  -0.000883  1.010379  -0.001
H  H30  1  0.42015315  0.46166960  0.23606546  1  0.123158  0.000379  0.920633  0.0  0.14182  0.000128  0.971003  0.0  0.1432  0.000132  0.971431  0.0  0.112651  0.140773  8.6e-05  0.970858  0.0
H  H31  1  0.07984732  0.96166886  0.26393417  1  0.123222  0.000393  0.920599  0.0  0.141868  0.000128  0.970958  0.0  0.143255  0.000132  0.971378  0.0  0.112674  0.140821  8.6e-05  0.97081  0.0
H  H32  1  0.57984910  0.53832983  0.76393453  1  0.123202  0.000397  0.920586  0.0  0.141839  0.000129  0.970969  0.0  0.143224  0.000132  0.971389  0.0  0.112667  0.140791  8.6e-05  0.97082  0.0
H  H33  1  0.92016147  0.03833149  0.73606816  1  0.123229  0.000389  0.920688  0.0  0.141829  0.000129  0.971064  0.0  0.143214  0.000132  0.971483  0.0  0.11265  0.140784  8.6e-05  0.970915  0.0
H  H34  1  0.50160944  0.50660026  0.08182302  1  0.081422  -0.000168  0.943985  0.0  0.092227  -8.9e-05  1.016064  0.0  0.093167  -4.3e-05  1.016104  0.0  0.091479  0.091366  -0.000145  1.016391  0.0
H  H35  1  0.99839590  0.00659459  0.41818005  1  0.081445  -0.000165  0.943854  0.0  0.09221  -8.9e-05  1.016031  0.0  0.093158  -4.2e-05  1.016043  0.0  0.091465  0.091339  -0.000145  1.016383  0.0
H  H36  1  0.49839936  0.49339825  0.91817931  1  0.081412  -0.000174  0.943945  0.0  0.092217  -8.9e-05  1.016035  0.0  0.093156  -4.3e-05  1.016073  0.0  0.091473  0.091355  -0.000145  1.016367  0.0
H  H37  1  0.00160896  0.99340393  0.58182141  1  0.081364  -0.000161  0.94398  0.0  0.092189  -8.9e-05  1.016089  0.0  0.093135  -4.2e-05  1.016104  0.0  0.091471  0.091322  -0.000145  1.016428  0.0
H  H38  1  0.67721961  0.52138948  0.16544200  1  0.101346  -0.000294  0.917134  0.0  0.119034  -0.000166  0.971236  0.0  0.119808  -8.6e-05  0.971511  0.0  0.103579  0.118412  -0.000242  0.971146  0.0
H  H39  1  0.82278181  0.02138656  0.33456152  1  0.101369  -0.000307  0.917102  0.0  0.119055  -0.000166  0.97123  0.0  0.119849  -8.6e-05  0.971474  0.0  0.103578  0.118433  -0.000242  0.971142  0.0
H  H40  1  0.32278264  0.47861270  0.83456130  1  0.101366  -0.000294  0.917148  0.0  0.119032  -0.000166  0.971272  0.0  0.119824  -8.6e-05  0.971522  0.0  0.103585  0.118409  -0.000242  0.971182  0.0
H  H41  1  0.17722568  0.97861287  0.66543942  1  0.10132  -0.000295  0.917122  0.0  0.119062  -0.000166  0.971183  0.0  0.119861  -8.6e-05  0.971427  0.0  0.103571  0.118437  -0.000242  0.971096  0.0
H  H42  1  0.45893194  0.73968567  0.08332929  1  0.113701  -0.00034  0.956083  0.0  0.124307  -0.000429  1.024501  0.0  0.125837  -0.00031  1.0243  0.0  0.102685  0.122931  -0.000526  1.025174  -0.001
H  H43  1  0.04107245  0.23968183  0.41667519  1  0.113756  -0.000329  0.956103  0.0  0.124337  -0.000429  1.024531  0.0  0.125867  -0.000311  1.024329  0.0  0.102679  0.122967  -0.000526  1.025175  -0.001
H  H44  1  0.54107031  0.26031192  0.91667136  1  0.113713  -0.000341  0.95604  0.0  0.124273  -0.000429  1.024507  0.0  0.125801  -0.000311  1.024309  0.0  0.10267  0.122909  -0.000526  1.025147  -0.001
H  H45  1  0.95893242  0.76031760  0.58332494  1  0.113703  -0.00034  0.956075  0.0  0.124318  -0.00043  1.024474  0.0  0.125845  -0.00031  1.024278  0.0  0.102694  0.122947  -0.000526  1.025117  -0.001
H  H46  1  0.64700537  0.74914293  0.16558434  1  0.121271  5.6e-05  0.948232  0.0  0.134915  1.9e-05  1.007488  0.0  0.136723  6.9e-05  1.007292  0.0  0.104698  0.133612  -5.1e-05  1.007758  0.0
H  H47  1  0.85300259  0.24913909  0.33441821  1  0.121267  6.4e-05  0.948187  0.0  0.134935  1.9e-05  1.007425  0.0  0.136712  6.8e-05  1.00728  0.0  0.104687  0.133614  -5.1e-05  1.0077  0.0
H  H48  1  0.35299819  0.25085742  0.83441572  1  0.121261  6.5e-05  0.94814  0.0  0.134877  1.9e-05  1.007438  0.0  0.136681  6.9e-05  1.007248  0.0  0.104683  0.133562  -5.1e-05  1.007704  0.0
H  H49  1  0.14700359  0.75085851  0.66558133  1  0.121183  6.4e-05  0.948235  0.0  0.134851  1.9e-05  1.007473  0.0  0.136655  6.9e-05  1.007283  0.0  0.104658  0.133531  -5.1e-05  1.007742  0.0
H  H50  1  0.64118482  0.90634659  0.01146525  1  0.11676  -0.000392  0.932585  0.0  0.132614  -0.000403  0.990387  0.0  0.133879  -0.00027  0.990134  0.0  0.106793  0.131534  -0.00051  0.990862  -0.001
H  H51  1  0.85880743  0.40635100  0.48853380  1  0.116725  -0.00039  0.932621  0.0  0.132564  -0.000403  0.990431  0.0  0.133827  -0.00027  0.99018  0.0  0.106785  0.131502  -0.00051  0.990877  -0.001
H  H52  1  0.35882005  0.09365100  0.98853621  1  0.116732  -0.000386  0.932575  0.0  0.1326  -0.000403  0.99036  0.0  0.133865  -0.00027  0.990112  0.0  0.106801  0.131528  -0.00051  0.990823  -0.001
H  H53  1  0.14118566  0.59365576  0.51146569  1  0.116731  -0.000389  0.932533  0.0  0.13257  -0.000403  0.990365  0.0  0.133834  -0.00027  0.990112  0.0  0.10676  0.131506  -0.00051  0.990814  -0.001
H  H54  1  0.82525875  0.86948495  0.95358469  1  0.112887  0.000369  0.940177  0.0  0.128698  0.000122  0.995786  0.0  0.129815  8.3e-05  0.996008  0.0  0.10332  0.127858  0.000145  0.995723  0.0
H  H55  1  0.67473743  0.36948569  0.54641458  1  0.112882  0.000369  0.940104  0.0  0.128748  0.000122  0.995627  0.0  0.129866  8.3e-05  0.995846  0.0  0.103316  0.127887  0.000145  0.995595  0.0
H  H56  1  0.17474612  0.13051907  0.04641545  1  0.11286  0.000371  0.940289  0.0  0.128708  0.000122  0.995836  0.0  0.129846  8.3e-05  0.996029  0.0  0.103306  0.127846  0.000145  0.995809  0.0
H  H57  1  0.32526744  0.63052016  0.45358887  1  0.112988  0.000367  0.940123  0.0  0.128779  0.000122  0.99573  0.0  0.129903  8.3e-05  0.995939  0.0  0.103338  0.127917  0.000145  0.995703  0.0
H  H58  1  0.92089854  0.99690203  0.08791564  1  0.118903  -4.1e-05  0.963653  0.0  0.139438  7e-06  1.024073  0.0  0.14075  2.1e-05  1.024106  0.0  0.092849  0.138455  -1e-05  1.024101  0.0
H  H59  1  0.57909371  0.49690277  0.41208407  1  0.118981  -4.6e-05  0.963617  0.0  0.13948  7e-06  1.024065  0.0  0.14079  2.1e-05  1.024099  0.0  0.092869  0.138496  -1e-05  1.024094  0.0
H  H60  1  0.07909848  0.00309924  0.91208871  1  0.118984  -4.5e-05  0.963699  0.0  0.139472  7e-06  1.024149  0.0  0.140777  2.1e-05  1.024194  0.0  0.092863  0.138479  -1e-05  1.024194  0.0
H  H61  1  0.42090068  0.50310124  0.58791549  1  0.118937  -4.7e-05  0.963656  0.0  0.13948  7e-06  1.024055  0.0  0.140788  2.1e-05  1.024096  0.0  0.092852  0.138492  -1e-05  1.024092  0.0
H  H62  1  0.84179613  0.88544326  0.15903196  1  0.103948  -7e-06  0.958087  0.0  0.126299  -1.4e-05  1.01755  0.0  0.127374  -9e-06  1.018004  0.0  0.088646  0.125453  -2e-05  1.017326  0.0
H  H63  1  0.65819743  0.38544125  0.34096782  1  0.103838  -9e-06  0.958073  0.0  0.126188  -1.4e-05  1.017556  0.0  0.127242  -8e-06  1.018041  0.0  0.088597  0.125343  -2e-05  1.017333  0.0
H  H64  1  0.15819958  0.11455800  0.84097164  1  0.103863  -1e-05  0.958118  0.0  0.126226  -1.4e-05  1.017589  0.0  0.127297  -8e-06  1.018049  0.0  0.088609  0.125378  -2e-05  1.017357  0.0
H  H65  1  0.34180089  0.61455909  0.65903196  1  0.103895  -3e-06  0.958094  0.0  0.126251  -1.4e-05  1.017557  0.0  0.127326  -8e-06  1.018011  0.0  0.088623  0.125404  -2e-05  1.017333  0.0
H  H66  1  0.01765148  0.84733825  0.09597037  1  0.099269  -3.7e-05  0.966381  0.0  0.114271  -2.9e-05  1.039002  0.0  0.116179  -8e-06  1.038402  0.0  0.084926  0.112804  -5.6e-05  1.039568  0.0
H  H67  1  0.48233852  0.34733900  0.40403001  1  0.099313  -3.4e-05  0.966272  0.0  0.114272  -2.9e-05  1.038921  0.0  0.116183  -8e-06  1.038313  0.0  0.084925  0.112804  -5.6e-05  1.039491  0.0
H  H68  1  0.98234292  0.15266118  0.90403449  1  0.09927  -4.3e-05  0.966346  0.0  0.114291  -2.9e-05  1.038932  0.0  0.1162  -8e-06  1.038329  0.0  0.084921  0.112828  -5.6e-05  1.039493  0.0
H  H69  1  0.51766373  0.65266043  0.59597263  1  0.099359  -3.4e-05  0.966199  0.0  0.114303  -2.9e-05  1.038871  0.0  0.116212  -8e-06  1.038271  0.0  0.084934  0.112837  -5.6e-05  1.039437  0.0
C  C70  1  0.08527250  0.47014390  0.30772499  1  -0.272904  -4.3e-05  3.699876  0.0  -0.351327  -5.9e-05  3.946681  0.0  -0.353666  3.5e-05  3.957785  0.0  -0.245489  -0.349424  -0.000184  3.939198  0.0
C  C71  1  0.41472666  0.97014499  0.19226993  1  -0.272875  -1e-05  3.699794  0.0  -0.351319  -5.9e-05  3.946589  0.0  -0.353654  3.4e-05  3.957698  0.0  -0.245529  -0.349412  -0.000184  3.939094  0.0
C  C72  1  0.91471796  0.52985278  0.69226906  1  -0.272695  -6.3e-05  3.699712  0.0  -0.35118  -5.9e-05  3.9465  0.0  -0.353516  3.4e-05  3.957633  0.0  -0.245478  -0.349279  -0.000183  3.939013  0.0
C  C73  1  0.58527559  0.02985444  0.80772940  1  -0.272808  -1e-06  3.69978  0.0  -0.351273  -5.9e-05  3.946571  0.0  -0.353614  3.4e-05  3.957682  0.0  -0.245499  -0.34937  -0.000183  3.939089  0.0
C  C74  1  0.09600897  0.59525764  0.26459817  1  -0.182166  -0.00125  3.621404  -0.002  -0.215614  -0.000748  3.892614  -0.001  -0.216261  -0.00038  3.902017  -0.001  -0.147524  -0.215204  -0.001091  3.886235  -0.001
C  C75  1  0.40398757  0.09525655  0.23539793  1  -0.182303  -0.00125  3.621603  -0.002  -0.215764  -0.000748  3.892844  -0.001  -0.216404  -0.00038  3.902226  -0.001  -0.147495  -0.215353  -0.001092  3.88647  -0.001
C  C76  1  0.90397888  0.40474362  0.73539772  1  -0.182252  -0.001258  3.621503  -0.002  -0.215747  -0.000748  3.892786  -0.001  -0.216381  -0.000379  3.902147  -0.001  -0.147539  -0.215336  -0.001091  3.886411  -0.001
C  C77  1  0.59601206  0.90474287  0.76459860  1  -0.182164  -0.00129  3.621374  -0.002  -0.2156  -0.000748  3.892553  -0.001  -0.216239  -0.000379  3.901932  -0.001  -0.147492  -0.215195  -0.001091  3.886177  -0.001
C  C78  1  0.42819143  0.55586710  0.21120102  1  -0.23327  -0.009297  3.580427  -0.01  -0.266176  -0.005725  3.833782  -0.006  -0.270008  -0.003672  3.845616  -0.004  -0.147033  -0.263641  -0.007364  3.826022  -0.008
C  C79  1  0.07180774  0.05586692  0.28879919  1  -0.233403  -0.009336  3.580624  -0.01  -0.266235  -0.005725  3.833847  -0.006  -0.270094  -0.003671  3.845675  -0.004  -0.147054  -0.263695  -0.007363  3.826096  -0.008
C  C80  1  0.57180952  0.44413233  0.78879956  1  -0.23336  -0.009324  3.580734  -0.01  -0.26622  -0.005724  3.833926  -0.006  -0.270063  -0.003671  3.845773  -0.004  -0.14706  -0.263682  -0.007363  3.82617  -0.008
C  C81  1  0.92819452  0.94413434  0.71120278  1  -0.233541  -0.009333  3.580871  -0.01  -0.266222  -0.005725  3.83394  -0.006  -0.270066  -0.003671  3.845791  -0.004  -0.147009  -0.263697  -0.007363  3.826197  -0.008
C  C82  1  0.55232913  0.56318789  0.13907782  1  -0.075447  0.001294  3.688026  0.001  -0.115828  0.000345  3.944113  0.0  -0.115683  0.000323  3.957655  0.0  -0.164487  -0.115804  0.000294  3.935165  0.0
C  C83  1  0.94767359  0.06318405  0.36092445  1  -0.075427  0.001348  3.687963  0.001  -0.115849  0.000344  3.944082  0.0  -0.115691  0.000322  3.957602  0.0  -0.164519  -0.115843  0.000294  3.935124  0.0
C  C84  1  0.44767312  0.43681337  0.86092217  1  -0.075473  0.001322  3.688113  0.001  -0.115828  0.000345  3.944096  0.0  -0.115669  0.000322  3.957604  0.0  -0.164498  -0.115816  0.000294  3.935145  0.0
C  C85  1  0.05233259  0.93681537  0.63907840  1  -0.07528  0.001304  3.688116  0.001  -0.115823  0.000345  3.944203  0.0  -0.115666  0.000322  3.957726  0.0  -0.164495  -0.115817  0.000294  3.935251  0.0
C  C86  1  0.58141486  0.69496408  0.11052833  1  -0.252652  -0.00532  3.606758  -0.006  -0.287994  -0.00336  3.863774  -0.004  -0.291958  -0.002183  3.876284  -0.003  -0.155988  -0.285518  -0.004305  3.855913  -0.005
C  C87  1  0.91859179  0.19495932  0.38947349  1  -0.252788  -0.005363  3.606849  -0.006  -0.288056  -0.00336  3.86374  -0.004  -0.292015  -0.002182  3.876247  -0.003  -0.155929  -0.285527  -0.004306  3.855814  -0.005
C  C88  1  0.41858739  0.30503627  0.88947166  1  -0.25261  -0.005337  3.606644  -0.006  -0.287879  -0.00336  3.863614  -0.004  -0.291851  -0.002183  3.876134  -0.003  -0.155933  -0.285372  -0.004305  3.85571  -0.005
C  C89  1  0.08141439  0.80504103  0.61052738  1  -0.252605  -0.005339  3.606707  -0.006  -0.287941  -0.00336  3.863689  -0.004  -0.291915  -0.002183  3.876214  -0.003  -0.155939  -0.285408  -0.004306  3.85575  -0.005
C  C90  1  0.76764237  0.85846799  0.01654534  1  -0.184238  -0.004873  3.61058  -0.005  -0.217897  -0.002979  3.877201  -0.003  -0.219267  -0.00186  3.887873  -0.002  -0.148186  -0.217004  -0.003917  3.870123  -0.004
C  C91  1  0.73235119  0.35847057  0.48345246  1  -0.184301  -0.004877  3.610651  -0.005  -0.217891  -0.002979  3.877117  -0.003  -0.219256  -0.001861  3.887778  -0.002  -0.148192  -0.216995  -0.003917  3.87005  -0.004
C  C92  1  0.23235726  0.14153327  0.98345650  1  -0.184339  -0.004891  3.610709  -0.005  -0.217955  -0.002979  3.877225  -0.003  -0.219333  -0.00186  3.887889  -0.002  -0.148206  -0.217053  -0.003917  3.870158  -0.004
C  C93  1  0.26764975  0.64153436  0.51654614  1  -0.184369  -0.004871  3.610594  -0.005  -0.217969  -0.002979  3.877139  -0.003  -0.219336  -0.001861  3.887805  -0.002  -0.148195  -0.217067  -0.003917  3.870072  -0.004
C  C94  1  0.89470606  0.89875897  0.09498492  1  -0.275343  0.000195  3.707206  0.0  -0.353857  2.5e-05  3.954319  0.0  -0.35586  8.3e-05  3.964676  0.0  -0.248328  -0.3522  -8.3e-05  3.947326  0.0
C  C95  1  0.60528619  0.39875971  0.40501479  1  -0.275254  0.000213  3.707133  0.0  -0.353753  2.5e-05  3.954314  0.0  -0.355752  8.1e-05  3.964671  0.0  -0.248292  -0.352106  -8.3e-05  3.947335  0.0
C  C96  1  0.10528965  0.10123771  0.90501736  1  -0.275215  0.000232  3.707202  0.0  -0.353764  2.5e-05  3.954396  0.0  -0.35577  8.1e-05  3.964765  0.0  -0.248275  -0.352119  -8.2e-05  3.947416  0.0
C  C97  1  0.39470951  0.60124339  0.59498484  1  -0.275354  0.000195  3.70716  0.0  -0.353842  2.5e-05  3.954311  0.0  -0.355849  8.2e-05  3.964673  0.0  -0.248312  -0.352198  -8.2e-05  3.947332  0.0
S  S98  1  0.20961051  0.59791767  0.16548681  1  0.639788  -0.002826  3.45249  0.001  0.609348  -0.002936  3.890547  0.0  0.624982  -0.000207  3.890092  0.001  0.301565  0.598869  -0.006024  3.889336  -0.001
S  S99  1  0.29038865  0.09791841  0.33451208  1  0.639788  -0.002813  3.4524  0.001  0.609304  -0.002935  3.890438  0.0  0.624941  -0.000206  3.889995  0.001  0.301501  0.598817  -0.006023  3.889239  -0.001
S  S100  1  0.79038258  0.40207993  0.83451135  1  0.639808  -0.002825  3.45253  0.001  0.609293  -0.002937  3.890617  0.0  0.624928  -0.000208  3.890172  0.001  0.301489  0.598805  -0.006025  3.889405  -0.001
S  S101  1  0.70961884  0.90208560  0.66548753  1  0.639797  -0.00281  3.452542  0.001  0.609307  -0.002935  3.890551  0.0  0.624932  -0.000207  3.890109  0.001  0.301527  0.598826  -0.006023  3.889344  -0.001
S  S102  1  0.71343113  0.69651094  0.01859957  1  0.670387  -0.003261  3.397168  0.0  0.637715  -0.003383  3.833116  -0.001  0.655121  -0.000698  3.830154  0.0  0.317326  0.625991  -0.006433  3.833541  -0.002
S  S103  1  0.78656505  0.19651169  0.48140168  1  0.67052  -0.003254  3.397153  0.0  0.637817  -0.003382  3.83301  -0.001  0.655222  -0.000697  3.830049  0.0  0.317351  0.626086  -0.006431  3.833403  -0.002
S  S104  1  0.28656589  0.30348940  0.98139947  1  0.670503  -0.003253  3.397187  0.0  0.6378  -0.003383  3.833053  -0.001  0.655203  -0.000698  3.8301  0.0  0.317364  0.626078  -0.006433  3.833446  -0.002
S  S105  1  0.21343851  0.80349233  0.51859772  1  0.670474  -0.003253  3.396893  0.0  0.637774  -0.003383  3.83281  -0.001  0.655173  -0.000697  3.829864  0.0  0.317381  0.626044  -0.006433  3.833199  -0.002
O  O106  1  0.15122696  0.48120487  0.11210253  1  -0.621003  -0.0691  2.041703  -0.095  -0.592014  -0.045393  2.359528  -0.068  -0.626682  -0.033963  2.349622  -0.055  -0.355892  -0.566209  -0.052199  2.365639  -0.074
O  O107  1  0.34877482  0.98120504  0.38789651  1  -0.620889  -0.069112  2.041499  -0.095  -0.591953  -0.045397  2.359415  -0.068  -0.626637  -0.033968  2.349534  -0.055  -0.355865  -0.566153  -0.052202  2.365528  -0.074
O  O108  1  0.84877529  0.51879089  0.88789481  1  -0.620942  -0.069097  2.041581  -0.095  -0.591981  -0.045393  2.359501  -0.068  -0.626666  -0.033964  2.34961  -0.055  -0.355859  -0.566173  -0.052203  2.365604  -0.074
O  O109  1  0.65123136  0.01880080  0.61210370  1  -0.6209  -0.069101  2.041585  -0.095  -0.591972  -0.045394  2.35945  -0.068  -0.626648  -0.033966  2.349566  -0.055  -0.355909  -0.566177  -0.052205  2.365565  -0.074
O  O110  1  0.88584824  0.63455558  0.05775425  1  -0.636134  -0.067323  2.074903  -0.093  -0.600344  -0.043782  2.396947  -0.066  -0.635589  -0.032517  2.387174  -0.053  -0.355008  -0.573885  -0.05077  2.402548  -0.072
O  O111  1  0.61415055  0.13455816  0.44224118  1  -0.636256  -0.067328  2.07493  -0.093  -0.600426  -0.043784  2.396936  -0.066  -0.635683  -0.032521  2.387186  -0.053  -0.355018  -0.573971  -0.05077  2.402546  -0.072
O  O112  1  0.11415270  0.36544385  0.94224103  1  -0.636243  -0.067324  2.074873  -0.093  -0.600417  -0.043783  2.396893  -0.066  -0.635664  -0.032517  2.38712  -0.053  -0.355034  -0.573949  -0.050771  2.402494  -0.072
O  O113  1  0.38584908  0.86545044  0.55775602  1  -0.636172  -0.067327  2.074708  -0.093  -0.600346  -0.043781  2.396694  -0.066  -0.635618  -0.032519  2.386983  -0.053  -0.355048  -0.573896  -0.050769  2.402306  -0.072
F  F114  1  0.65011857  0.15442902  0.06512380  1  -0.525624  -0.0  0.99893  0.0  -0.46154  -1e-06  1.172521  0.0  -0.475819  1.4e-05  1.151748  0.0  -0.161287  -0.451317  -2.2e-05  1.18698  0.0
F  F115  1  0.84988415  0.65443195  0.43488377  1  -0.525654  -0.0  0.998896  0.0  -0.461525  -1e-06  1.172636  0.0  -0.475812  1.3e-05  1.151821  0.0  -0.16129  -0.451291  -2.2e-05  1.187071  0.0
F  F116  1  0.34987714  0.84557224  0.93487981  1  -0.525671  -0.0  0.998821  0.0  -0.46154  -1e-06  1.172519  0.0  -0.47584  1.4e-05  1.151718  0.0  -0.161262  -0.451277  -2.2e-05  1.186981  0.0
F  F117  1  0.15011679  0.34557757  0.56511681  1  -0.525614  0.0  0.998926  0.0  -0.461476  -1e-06  1.172632  0.0  -0.475768  1.4e-05  1.151837  0.0  -0.161262  -0.451271  -2.2e-05  1.187067  0.0
F  F118  1  0.71241129  0.28609426  0.18538981  1  -0.521844  -1.6e-05  0.997792  0.0  -0.461974  -1.5e-05  1.172801  0.0  -0.475992  -1.4e-05  1.1517  0.0  -0.159179  -0.451939  -2e-05  1.187502  0.0
F  F119  1  0.78759667  0.78609260  0.31461606  1  -0.521868  -1.6e-05  0.997705  0.0  -0.461928  -1.5e-05  1.17279  0.0  -0.476011  -1.4e-05  1.151683  0.0  -0.159143  -0.451909  -2e-05  1.187507  0.0
F  F120  1  0.28758442  0.71391251  0.81460916  1  -0.521904  -1.5e-05  0.99767  0.0  -0.461999  -1.5e-05  1.172772  0.0  -0.476047  -1.3e-05  1.151632  0.0  -0.159172  -0.451949  -2e-05  1.187484  0.0
F  F121  1  0.21240427  0.21391784  0.68538784  1  -0.521821  -1.6e-05  0.99778  0.0  -0.461887  -1.5e-05  1.172852  0.0  -0.475932  -1.3e-05  1.151722  0.0  -0.159162  -0.451869  -2e-05  1.187525  0.0
F  F122  1  0.93794125  0.20872066  0.11199252  1  -0.516989  1.6e-05  1.033748  0.0  -0.456703  -2e-06  1.211362  0.0  -0.471444  3.1e-05  1.190174  0.0  -0.150774  -0.446027  -4.5e-05  1.225819  0.0
F  F123  1  0.56206932  0.70872358  0.38801614  1  -0.51713  1.6e-05  1.033745  0.0  -0.456663  -2e-06  1.211386  0.0  -0.471403  3.1e-05  1.19015  0.0  -0.150741  -0.446009  -4.5e-05  1.225862  0.0
F  F124  1  0.06205707  0.79126593  0.88801189  1  -0.51713  1.6e-05  1.0337  0.0  -0.45668  -2e-06  1.211338  0.0  -0.471424  3.1e-05  1.190113  0.0  -0.150759  -0.446027  -4.5e-05  1.225849  0.0
F  F125  1  0.43793686  0.29128318  0.61198871  1  -0.516967  1.6e-05  1.033685  0.0  -0.45667  -2e-06  1.211424  0.0  -0.471409  3.1e-05  1.190196  0.0  -0.150775  -0.445997  -4.5e-05  1.225846  0.0
F  F126  1  0.74636450  0.35121487  0.04152035  1  -0.534383  0.001553  1.071122  0.0  -0.487004  0.001668  1.279651  0.0  -0.499277  0.001777  1.253364  0.0  -0.155245  -0.476406  0.001476  1.297733  0.0
F  F127  1  0.75364346  0.85122330  0.45848154  1  -0.534447  0.001553  1.071061  0.0  -0.487035  0.001668  1.279707  0.0  -0.499315  0.001776  1.253368  0.0  -0.155296  -0.476428  0.001476  1.297783  0.0
F  F128  1  0.25365084  0.64877905  0.95848168  1  -0.534447  0.001553  1.071019  0.0  -0.487024  0.001667  1.279642  0.0  -0.499309  0.001778  1.253311  0.0  -0.155289  -0.476412  0.001476  1.297748  0.0
F  F129  1  0.24635486  0.14878438  0.54152089  1  -0.534363  0.001554  1.071053  0.0  -0.486957  0.001668  1.279695  0.0  -0.499233  0.001776  1.253366  0.0  -0.155247  -0.476382  0.001476  1.297762  0.0
