# generated using pymatgen
data_ZnH9C16S2NO10
_symmetry_space_group_name_H-M   'P 1'
_cell_length_a   9.72568935
_cell_length_b   10.79686193
_cell_length_c   14.99444596
_cell_angle_alpha   89.21641919
_cell_angle_beta   76.51660893
_cell_angle_gamma   90.49566136
_symmetry_Int_Tables_number   1
_chemical_formula_structural   ZnH9C16S2NO10
_chemical_formula_sum   'Zn2 H18 C32 S4 N2 O20'
_cell_volume   1530.86633732
_cell_formula_units_Z   2
loop_
 _symmetry_equiv_pos_site_id
 _symmetry_equiv_pos_as_xyz
  1  'x, y, z'
loop_
 _atom_site_type_symbol
 _atom_site_label
 _atom_site_symmetry_multiplicity
 _atom_site_fract_x
 _atom_site_fract_y
 _atom_site_fract_z
 _atom_site_occupancy
 _atom_site_pbe_bader_charge
 _atom_site_pbe_bader_spin_density
 _atom_site_pbe_cm5_charge
 _atom_site_pbe_ddec_charge
 _atom_site_pbe_ddec_spin_density
 _atom_site_pbe_ddec_sum_bond_order
 _atom_site_pbe_magmom
Zn  Zn0  1  0.85903340  0.49609569  0.48458437  1  1.294829  0  0.689139  0.825043  0  2.399351  0
Zn  Zn1  1  0.14840899  0.49987729  0.50304553  1  1.297775  0  0.696008  0.843512  0  2.343589  0
H  H2  1  0.20681213  0.54324107  0.88388039  1  0.075858  0  0.104445  0.106057  0  1.003188  0
H  H3  1  0.76148624  0.33276634  0.09682003  1  0.076459  0  0.106811  0.11014  0  0.988011  0
H  H4  1  0.65487157  0.48284599  0.76318506  1  0.05406  0  0.101176  0.09564  0  1.041867  0
H  H5  1  0.32582014  0.44226426  0.22292364  1  0.05859  0  0.100787  0.098655  0  1.042989  0
H  H6  1  0.06808763  0.39782575  0.79953923  1  0.058488  0  0.108383  0.112208  0  0.992245  0
H  H7  1  0.92652845  0.57372431  0.18951219  1  0.136405  0  0.105456  0.109274  0  1.000939  0
H  H8  1  0.01544987  0.57423456  0.01983551  1  0.081432  0  0.106451  0.109859  0  0.996777  0
H  H9  1  0.96579711  0.34522275  0.96410330  1  0.089317  0  0.106806  0.108041  0  0.999048  0
H  H10  1  0.45360863  0.49605463  0.81465768  1  0.031778  0  0.101244  0.098022  0  1.019438  0
H  H11  1  0.51251259  0.37221204  0.16574811  1  0.062924  0  0.100284  0.098801  0  1.015456  0
H  H12  1  0.33493925  0.55212645  0.63589062  1  0.1709  0  0.138277  0.112427  0  0.967138  0
H  H13  1  0.67178249  0.43865926  0.35519987  1  0.173309  0  0.142134  0.120297  0  0.947992  0
H  H14  1  0.59968012  0.55716601  0.62420663  1  0.138714  0  0.139038  0.116717  0  0.967204  0
H  H15  1  0.40663757  0.44508671  0.36437232  1  0.16304  0  0.132867  0.110685  0  1.00094  0
H  H16  1  0.35502950  0.14598501  0.36046952  1  0.661164  0  0.356382  0.407039  0  0.828903  0
H  H17  1  0.90839932  0.70317330  0.34716746  1  0.650784  0  0.30943  0.378899  0  0.950868  0
H  H18  1  0.06966559  0.68343812  0.66184954  1  0.642846  0  0.311137  0.379651  0  0.944919  0
H  H19  1  0.75786803  0.28909460  0.60185212  1  0.655246  0  0.313152  0.378051  0  0.942188  0
C  C20  1  0.00956922  0.26526403  0.49568885  1  1.632516  0  0.213898  0.580884  0  4.195731  0
C  C21  1  0.99404497  0.72863333  0.50532637  1  1.617827  0  0.208425  0.56455  0  4.249493  0
C  C22  1  0.41595867  0.48862877  0.88883889  1  -0.040001  0  -0.083326  -0.112054  0  4.002017  0
C  C23  1  0.55317580  0.39091805  0.09269080  1  -0.064429  0  -0.089759  -0.125743  0  4.018608  0
C  C24  1  0.27744160  0.51467150  0.92702345  1  -0.019205  0  -0.08654  -0.130446  0  4.006788  0
C  C25  1  0.69279680  0.36843042  0.05454686  1  -0.009382  0  -0.086272  -0.129974  0  4.00898  0
C  C26  1  0.11802448  0.05794574  0.52067500  1  -0.009704  0  0.008906  -0.07935  0  3.831226  0
C  C27  1  0.88885426  0.93447545  0.47786411  1  -0.109817  0  0.011303  -0.071868  0  3.817645  0
C  C28  1  0.10005614  0.93008199  0.53824688  1  -0.097289  0  0.009707  -0.074089  0  3.818718  0
C  C29  1  0.88226014  0.06274137  0.49190286  1  -0.102738  0  0.013115  -0.067597  0  3.813589  0
C  C30  1  0.99313859  0.86748511  0.50748482  1  0.073503  0  0.004215  -0.013759  0  3.913015  0
C  C31  1  0.00429142  0.12622411  0.50261606  1  0.020668  0  -0.000372  -0.033509  0  3.907897  0
C  C32  1  0.41062878  0.52801443  0.57311054  1  0.521824  0  0.090074  0.09876  0  3.841662  0
C  C33  1  0.59587305  0.46589039  0.41713074  1  0.50619  0  0.0841  0.087313  0  3.859141  0
C  C34  1  0.55548087  0.52931340  0.56710833  1  0.536298  0  0.086586  0.087897  0  3.825838  0
C  C35  1  0.45138918  0.46822381  0.42221367  1  0.505289  0  0.082206  0.078272  0  3.842943  0
C  C36  1  0.07655565  0.51005016  0.31679775  1  1.556703  0  0.226448  0.612587  0  4.105176  0
C  C37  1  0.91907580  0.47241352  0.67341155  1  1.533844  0  0.231094  0.623365  0  4.08725  0
C  C38  1  0.12376585  0.50726348  0.21520843  1  -0.114504  0  -0.022233  -0.044301  0  3.998643  0
C  C39  1  0.86482882  0.44498791  0.77286756  1  -0.054124  0  -0.018671  -0.037144  0  3.995643  0
C  C40  1  0.08322789  0.54438151  0.06446318  1  0.023217  0  -0.085248  -0.131367  0  3.984814  0
C  C41  1  0.89811149  0.37841423  0.92039169  1  -0.093702  0  -0.08211  -0.126773  0  3.980225  0
C  C42  1  0.03354674  0.54420576  0.15839319  1  -0.098222  0  -0.08563  -0.091111  0  3.995034  0
C  C43  1  0.95529858  0.40741216  0.82927846  1  0.013891  0  -0.083213  -0.093443  0  3.986861  0
C  C44  1  0.26050826  0.46927736  0.17632837  1  0.020605  0  -0.077178  -0.123076  0  3.93643  0
C  C45  1  0.72047779  0.45458534  0.80929047  1  0.049324  0  -0.077024  -0.121596  0  3.933759  0
C  C46  1  0.31475925  0.46897483  0.08074096  1  0.02674  0  -0.000739  0.033353  0  3.946116  0
C  C47  1  0.66015665  0.43249321  0.90303136  1  -0.007197  0  0.002114  0.039012  0  3.944943  0
C  C48  1  0.22357042  0.50873406  0.02378785  1  -0.032361  0  -0.000457  0.084223  0  4.007465  0
C  C49  1  0.75162115  0.39224643  0.95953392  1  -0.036929  0  -0.00102  0.082612  0  4.006306  0
C  C50  1  0.45976549  0.43654293  0.03935429  1  0.039118  0  0.000377  0.036142  0  3.951641  0
C  C51  1  0.51158901  0.45199767  0.94331124  1  -0.055865  0  0.001505  0.035762  0  3.949021  0
S  S52  1  0.29948538  0.11708721  0.50375210  1  3.065304  0  0.549567  1.143876  0  5.924987  0
S  S53  1  0.78152096  0.86607533  0.40421610  1  3.126091  0  0.542739  1.156614  0  5.967388  0
S  S54  1  0.19428919  0.85442484  0.61701939  1  3.118784  0  0.546131  1.156441  0  5.963509  0
S  S55  1  0.70368266  0.12849441  0.52415353  1  3.137681  0  0.545772  1.15821  0  5.953363  0
N  N56  1  0.64680290  0.49686318  0.48960195  1  -1.214372  0  -0.296495  -0.160871  0  3.528322  0
N  N57  1  0.35974952  0.49835794  0.50034559  1  -1.212526  0  -0.289942  -0.147329  0  3.488264  0
O  O58  1  0.92123671  0.31661884  0.45689787  1  -1.159322  0  -0.308047  -0.538663  0  2.391654  0
O  O59  1  0.11479375  0.67997374  0.47914810  1  -1.138093  0  -0.305267  -0.526665  0  2.393407  0
O  O60  1  0.09942648  0.32005062  0.53048217  1  -1.140149  0  -0.297175  -0.505999  0  2.427608  0
O  O61  1  0.87628779  0.67234275  0.52883829  1  -1.151423  0  -0.305571  -0.525496  0  2.390419  0
O  O62  1  0.94999042  0.54970687  0.35208979  1  -1.191149  0  -0.319768  -0.574459  0  2.348506  0
O  O63  1  0.04076189  0.52492182  0.64493003  1  -1.184085  0  -0.308087  -0.565041  0  2.295691  0
O  O64  1  0.16130829  0.47305574  0.36367410  1  -1.16971  0  -0.303405  -0.535774  0  2.350474  0
O  O65  1  0.83788179  0.44119770  0.62113016  1  -1.18394  0  -0.308482  -0.572736  0  2.397785  0
O  O66  1  0.32358641  0.19833919  0.57280335  1  -1.255076  0  -0.286779  -0.471598  0  2.17073  0
O  O67  1  0.38380725  0.00981987  0.47512158  1  -1.261034  0  -0.28463  -0.500908  0  2.213566  0
O  O68  1  0.30988902  0.20016466  0.41055688  1  -1.200395  0  -0.358785  -0.536807  0  2.169771  0
O  O69  1  0.67408208  0.77942933  0.44870346  1  -1.275751  0  -0.298511  -0.501774  0  2.190605  0
O  O70  1  0.74924743  0.97013852  0.35251896  1  -1.272863  0  -0.306298  -0.506754  0  2.139191  0
O  O71  1  0.90539169  0.79517015  0.33578289  1  -1.226868  0  -0.365394  -0.538367  0  2.202891  0
O  O72  1  0.30637992  0.77333879  0.57551095  1  -1.277302  0  -0.295867  -0.509301  0  2.221384  0
O  O73  1  0.21702110  0.95344256  0.67485248  1  -1.263551  0  -0.296301  -0.492687  0  2.127215  0
O  O74  1  0.06571974  0.77391193  0.67670118  1  -1.213415  0  -0.363624  -0.532642  0  2.193784  0
O  O75  1  0.66438261  0.20850318  0.45730398  1  -1.287414  0  -0.307398  -0.529905  0  2.232504  0
O  O76  1  0.61961081  0.02236538  0.56155727  1  -1.256858  0  -0.282244  -0.474557  0  2.173634  0
O  O77  1  0.71769954  0.20372147  0.61279321  1  -1.218577  0  -0.359824  -0.52336  0  2.197032  0
