# generated using pymatgen
data_Zn4H16C48N4(O5F2)5
_symmetry_space_group_name_H-M   'P 1'
_cell_length_a   17.79966464
_cell_length_b   19.34106506
_cell_length_c   19.07464194
_cell_angle_alpha   94.50377973
_cell_angle_beta   104.58284869
_cell_angle_gamma   99.55696053
_symmetry_Int_Tables_number   1
_chemical_formula_structural   Zn4H16C48N4(O5F2)5
_chemical_formula_sum   'Zn4 H16 C48 N4 O25 F10'
_cell_volume   6216.95658358
_cell_formula_units_Z   1
loop_
 _symmetry_equiv_pos_site_id
 _symmetry_equiv_pos_as_xyz
  1  'x, y, z'
loop_
 _atom_site_type_symbol
 _atom_site_label
 _atom_site_symmetry_multiplicity
 _atom_site_fract_x
 _atom_site_fract_y
 _atom_site_fract_z
 _atom_site_occupancy
 _atom_site_pbe_bader_charge
 _atom_site_pbe_bader_spin_density
 _atom_site_pbe_cm5_charge
 _atom_site_pbe_ddec_charge
 _atom_site_pbe_ddec_spin_density
 _atom_site_pbe_ddec_sum_bond_order
 _atom_site_pbe_magmom
Zn  Zn0  1  0.43417044  0.54945527  0.54458177  1  1.319761  0  0.681289  0.965226  0  2.368083  0
Zn  Zn1  1  0.57321019  0.45428770  0.56713626  1  1.318772  0  0.682542  0.969347  0  2.350482  0
Zn  Zn2  1  0.56793167  0.57230307  0.46666550  1  1.318  0  0.68345  0.968725  0  2.369253  0
Zn  Zn3  1  0.43117461  0.42663075  0.42203134  1  1.325696  0  0.685271  0.985943  0  2.33203  0
H  H4  1  0.94509214  0.71087227  0.61540646  1  0.016944  0  0.103025  0.096684  0  1.020608  0
H  H5  1  0.75952448  0.43977199  0.55333790  1  0.652641  0  0.317697  0.366423  0  0.934591  0
H  H6  1  0.55487924  0.42680964  0.96992039  1  0.620143  0  0.298598  0.280394  0  1.077861  0
H  H7  1  0.48193646  0.36843497  0.03340941  1  0.621099  0  0.333787  0.355213  0  0.900399  0
H  H8  1  0.46136711  0.61331684  0.71013286  1  0.649045  0  0.312248  0.368907  0  0.94722  0
H  H9  1  0.43684950  0.65569232  0.85958990  1  0.636651  0  0.336921  0.373165  0  0.873809  0
H  H10  1  0.05426797  0.70967942  0.64630735  1  0.590523  0  0.333546  0.360125  0  0.894081  0
H  H11  1  0.81692616  0.39831488  0.37418701  1  0.641025  0  0.338653  0.375918  0  0.879174  0
H  H12  1  0.36668710  0.74888893  0.52438345  1  0.139766  0  0.121937  0.155756  0  0.970563  0
H  H13  1  0.80055008  0.67602672  0.59508440  1  0.09592  0  0.111756  0.118833  0  0.97941  0
H  H14  1  0.20244841  0.51733983  0.52938646  1  0.180159  0  0.104919  0.122619  0  1.049308  0
H  H15  1  0.92905400  0.32798907  0.32070844  1  0.660771  0  0.322558  0.375024  0  0.916215  0
H  H16  1  0.37733054  0.25004702  0.41164163  1  0.660901  0  0.316002  0.363292  0  0.93876  0
H  H17  1  0.38266046  0.01622028  0.45020135  1  0.634811  0  0.303183  0.292294  0  1.049666  0
H  H18  1  0.59081727  0.73810187  0.45489150  1  0.639926  0  0.313615  0.366414  0  0.943597  0
H  H19  1  0.57717803  0.41998559  0.73375641  1  0.637764  0  0.310197  0.355132  0  0.959665  0
C  C20  1  0.50189761  0.31039667  0.48576154  1  1.565859  0  0.232007  0.643097  0  4.136983  0
C  C21  1  0.08116346  0.57397152  0.56057798  1  0.46884  0  0.09055  0.134668  0  4.007482  0
C  C22  1  0.04238719  0.62250338  0.58607187  1  0.56066  0  0.068692  0.139389  0  4.121175  0
C  C23  1  0.48238363  0.68651898  0.49599627  1  1.533199  0  0.227931  0.617034  0  4.140651  0
C  C24  1  0.95866663  0.60600438  0.57385509  1  0.032579  0  -0.011021  0.00391  0  4.063381  0
C  C25  1  0.91864672  0.53660702  0.54032380  1  0.065618  0  -0.009528  -0.048358  0  3.90555  0
C  C26  1  0.91592712  0.65620066  0.59479127  1  0.055681  0  -0.113393  -0.180714  0  4.065272  0
C  C27  1  0.83570471  0.63728413  0.58476156  1  -0.124724  0  -0.082684  -0.052172  0  4.027393  0
C  C28  1  0.84140443  0.51403482  0.54975595  1  0.574614  0  0.114988  0.306145  0  3.98318  0
C  C29  1  0.47616336  0.76121195  0.49237350  1  0.036491  0  -0.032615  -0.147919  0  4.014405  0
C  C30  1  0.53488331  0.80856876  0.47238334  1  0.640639  0  0.085909  0.196437  0  4.097594  0
C  C31  1  0.15423596  0.38244042  0.39312950  1  0.615925  0  0.097615  0.173414  0  4.084539  0
C  C32  1  0.52814257  0.88000358  0.47255157  1  0.522343  0  0.105015  0.138256  0  3.993865  0
C  C33  1  0.46401381  0.90502575  0.48873268  1  0.450641  0  0.085558  -0.011868  0  4.09006  0
C  C34  1  0.40540320  0.85512984  0.50553302  1  0.476245  0  0.09484  0.217958  0  4.081579  0
C  C35  1  0.51919644  0.51498935  0.69033973  1  1.462966  0  0.228843  0.634004  0  4.110254  0
C  C36  1  0.41142632  0.78551487  0.50906552  1  0.010966  0  -0.097176  -0.212483  0  4.018215  0
C  C37  1  0.43601497  0.11073455  0.46167942  1  0.61734  0  0.099094  0.182722  0  3.995471  0
C  C38  1  0.43559853  0.18306522  0.45254958  1  0.639096  0  0.089332  0.215668  0  4.045499  0
C  C39  1  0.50796169  0.09018560  0.49690336  1  0.501687  0  0.079025  -0.030208  0  4.086734  0
C  C40  1  0.50516337  0.23437274  0.48356182  1  -0.029617  0  -0.037259  -0.259565  0  4.001707  0
C  C41  1  0.57656948  0.21243670  0.51741853  1  0.607723  0  0.082796  0.154484  0  4.111597  0
C  C42  1  0.16399789  0.47666369  0.48761414  1  -0.035248  0  -0.079191  -0.116177  0  3.932145  0
C  C43  1  0.57825947  0.14238436  0.52336479  1  0.514678  0  0.089143  0.108036  0  4.104496  0
C  C44  1  0.51776954  0.49222043  0.24292554  1  0.07151  0  -0.028598  -0.225205  0  4.01007  0
C  C45  1  0.53635021  0.55452531  0.21229677  1  0.543158  0  0.089949  0.1605  0  4.094194  0
C  C46  1  0.53515428  0.55288823  0.13905231  1  0.620379  0  0.09464  0.114552  0  4.082158  0
C  C47  1  0.51419469  0.49476070  0.32045869  1  1.587929  0  0.234136  0.654864  0  4.138551  0
C  C48  1  0.51711104  0.48777175  0.09380652  1  0.44746  0  0.078874  -0.007893  0  4.109592  0
C  C49  1  0.50003858  0.42430663  0.12423334  1  0.559819  0  0.079434  0.138499  0  4.10693  0
C  C50  1  0.50003568  0.42780218  0.19758516  1  0.572202  0  0.095163  0.177837  0  4.04151  0
C  C51  1  0.53978845  0.46674169  0.88195220  1  0.58059  0  0.078867  0.148321  0  4.022934  0
C  C52  1  0.54592666  0.46553087  0.80981847  1  0.570384  0  0.076063  0.203638  0  4.072641  0
C  C53  1  0.08133041  0.46664726  0.47527730  1  0.05713  0  -0.008367  0.05637  0  3.971681  0
C  C54  1  0.50805139  0.52142335  0.91269998  1  0.446977  0  0.08262  -0.020663  0  4.051283  0
C  C55  1  0.51770493  0.51765168  0.76676176  1  0.061386  0  -0.045483  -0.285164  0  4.030793  0
C  C56  1  0.48585964  0.57167484  0.79772856  1  0.570713  0  0.059049  0.166477  0  4.129083  0
C  C57  1  0.48179610  0.57422526  0.86977857  1  0.562024  0  0.074285  0.146072  0  4.078471  0
C  C58  1  0.71317150  0.54589652  0.55724218  1  1.444952  0  0.217115  0.606358  0  4.167484  0
C  C59  1  0.28878792  0.45493139  0.46316007  1  1.566945  0  0.226473  0.627249  0  4.157279  0
C  C60  1  0.20160202  0.43686247  0.44799732  1  0.013456  0  -0.034786  -0.15101  0  4.02329  0
C  C61  1  0.79791423  0.56560946  0.56500539  1  0.034743  0  -0.047098  -0.211119  0  4.03026  0
C  C62  1  0.07340666  0.37054894  0.38085144  1  0.406485  0  0.080923  0.115787  0  4.040046  0
C  C63  1  0.03371861  0.41065339  0.41950614  1  0.069868  0  -0.0203  -0.10468  0  4.095396  0
C  C64  1  0.04184579  0.51033523  0.51382453  1  0.00877  0  -0.010533  -0.061676  0  4.002976  0
C  C65  1  0.95777925  0.49359988  0.50145303  1  0.095162  0  -0.008167  -0.035855  0  3.962518  0
C  C66  1  0.91368883  0.44137911  0.44173080  1  0.571436  0  0.08364  0.18608  0  4.053969  0
C  C67  1  0.95048059  0.40048636  0.40289790  1  0.437183  0  0.05575  0.126898  0  4.116741  0
N  N68  1  0.45263673  0.97462506  0.48478247  1  -0.550983  0  -0.153347  -0.111586  0  3.358602  0
N  N69  1  0.51647074  0.02169872  0.50593632  1  -0.465399  0  -0.143676  -0.066235  0  3.273761  0
N  N70  1  0.51814279  0.47828083  0.02098181  1  -0.624941  0  -0.171836  -0.1575  0  3.430277  0
N  N71  1  0.50209390  0.52894409  0.98323330  1  -0.473658  0  -0.143576  -0.04796  0  3.257803  0
O  O72  1  0.49994547  0.49898128  0.49982154  1  -1.23493  0  -0.577173  -1.036918  0  2.561441  0
O  O73  1  0.68442399  0.48102719  0.56402093  1  -1.159741  0  -0.311992  -0.559019  0  2.325673  0
O  O74  1  0.32072465  0.42711857  0.41795363  1  -1.166848  0  -0.318986  -0.553536  0  2.352282  0
O  O75  1  0.66999829  0.59233833  0.54254342  1  -1.175849  0  -0.323072  -0.555517  0  2.31229  0
O  O76  1  0.32563750  0.49855597  0.52053757  1  -1.172631  0  -0.321169  -0.550638  0  2.331351  0
O  O77  1  0.89916661  0.35465149  0.34559615  1  -1.159597  0  -0.36249  -0.460574  0  2.299513  0
O  O78  1  0.36639254  0.19883494  0.41681946  1  -1.139869  0  -0.33827  -0.397804  0  2.263368  0
O  O79  1  0.36862609  0.06353132  0.43661262  1  -1.107861  0  -0.314962  -0.350425  0  2.299446  0
O  O80  1  0.59749652  0.79023476  0.45378369  1  -1.121152  0  -0.344846  -0.410664  0  2.268913  0
O  O81  1  0.57718268  0.41279907  0.78472667  1  -1.122923  0  -0.34946  -0.407411  0  2.267767  0
O  O82  1  0.81325809  0.44483576  0.54517655  1  -1.142336  0  -0.327692  -0.405734  0  2.320866  0
O  O83  1  0.48639447  0.55927388  0.65155899  1  -1.182112  0  -0.30784  -0.551347  0  2.350063  0
O  O84  1  0.56557368  0.41613773  0.92111548  1  -1.114389  0  -0.340849  -0.376055  0  2.308592  0
O  O85  1  0.48188084  0.36019490  0.08348914  1  -1.104993  0  -0.337077  -0.388714  0  2.271618  0
O  O86  1  0.45787820  0.62382136  0.76106548  1  -1.161287  0  -0.363518  -0.455721  0  2.284452  0
O  O87  1  0.45137502  0.62608872  0.89835842  1  -1.115292  0  -0.338608  -0.403827  0  2.265096  0
O  O88  1  0.08717077  0.68478633  0.62367139  1  -1.089832  0  -0.347638  -0.410369  0  2.276409  0
O  O89  1  0.83427853  0.43507050  0.41643659  1  -1.133997  0  -0.334387  -0.404593  0  2.321072  0
O  O90  1  0.45758520  0.45204776  0.33229903  1  -1.160179  0  -0.306951  -0.539363  0  2.332133  0
O  O91  1  0.55277088  0.35270116  0.53613347  1  -1.163678  0  -0.308982  -0.531853  0  2.371719  0
O  O92  1  0.53782736  0.66543735  0.47191183  1  -1.170958  0  -0.307501  -0.554644  0  2.377171  0
O  O93  1  0.44552870  0.32844806  0.43744525  1  -1.169923  0  -0.305574  -0.557499  0  2.32241  0
O  O94  1  0.43429718  0.64702587  0.52210315  1  -1.180325  0  -0.308914  -0.529991  0  2.31861  0
O  O95  1  0.55300826  0.46860909  0.66441087  1  -1.171612  0  -0.303185  -0.544706  0  2.346162  0
O  O96  1  0.56765662  0.53975958  0.36706827  1  -1.140144  0  -0.313589  -0.541429  0  2.316603  0
F  F97  1  0.34273771  0.87873439  0.52067193  1  -0.619753  0  -0.103828  -0.135824  0  1.32086  0
F  F98  1  0.16145712  0.59335671  0.57886096  1  -0.620001  0  -0.083286  -0.104071  0  1.388023  0
F  F99  1  0.64541726  0.25972129  0.54211649  1  -0.615914  0  -0.096682  -0.107418  0  1.371731  0
F  F100  1  0.58373363  0.92341255  0.45188614  1  -0.613112  0  -0.082517  -0.09725  0  1.387382  0
F  F101  1  0.64712668  0.12286467  0.55412105  1  -0.607182  0  -0.091108  -0.104786  0  1.372237  0
F  F102  1  0.48368562  0.36614230  0.22446915  1  -0.612558  0  -0.090517  -0.103638  0  1.355776  0
F  F103  1  0.55470472  0.61439419  0.11355627  1  -0.602073  0  -0.082991  -0.096088  0  1.392305  0
F  F104  1  0.55312285  0.61833707  0.25308094  1  -0.613271  0  -0.092766  -0.105118  0  1.365113  0
F  F105  1  0.02980837  0.31642833  0.32743845  1  -0.627837  0  -0.083007  -0.126717  0  1.357624  0
F  F106  1  0.18499396  0.34042847  0.35270342  1  -0.616038  0  -0.089449  -0.104896  0  1.375703  0
