# generated using pymatgen
data_CuH12C12S2(NO3)2
_symmetry_space_group_name_H-M   'P 1'
_cell_length_a   4.96467522
_cell_length_b   7.73288140
_cell_length_c   9.56360182
_cell_angle_alpha   93.15543223
_cell_angle_beta   104.82989568
_cell_angle_gamma   99.13651919
_symmetry_Int_Tables_number   1
_chemical_formula_structural   CuH12C12S2(NO3)2
_chemical_formula_sum   'Cu1 H12 C12 S2 N2 O6'
_cell_volume   348.65992114
_cell_formula_units_Z   1
loop_
 _symmetry_equiv_pos_site_id
 _symmetry_equiv_pos_as_xyz
  1  'x, y, z'
loop_
 _atom_site_type_symbol
 _atom_site_label
 _atom_site_symmetry_multiplicity
 _atom_site_fract_x
 _atom_site_fract_y
 _atom_site_fract_z
 _atom_site_occupancy
 _atom_site_hle17_ddec_charge
 _atom_site_hle17_ddec_spin_density
 _atom_site_hle17_ddec_sum_bond_order
 _atom_site_hle17_magmom
 _atom_site_hse06_10hf_ddec_charge
 _atom_site_hse06_10hf_ddec_spin_density
 _atom_site_hse06_10hf_ddec_sum_bond_order
 _atom_site_hse06_10hf_magmom
 _atom_site_hse06_ddec_charge
 _atom_site_hse06_ddec_spin_density
 _atom_site_hse06_ddec_sum_bond_order
 _atom_site_hse06_magmom
 _atom_site_pbe_cm5_charge
 _atom_site_pbe_ddec_charge
 _atom_site_pbe_ddec_spin_density
 _atom_site_pbe_ddec_sum_bond_order
 _atom_site_pbe_magmom
Cu  Cu0  1  0.00000245  0.00000133  0.00000037  1  0.903618  -0.723393  1.8213  -0.545  0.885468  -0.80103  2.204055  -0.658  0.966478  -0.860908  2.14353  -0.738  0.773622  0.832639  -0.756311  2.247862  -0.602
H  H1  1  0.18660073  0.44883279  0.61554655  1  0.110192  -0.000189  0.956719  0.0  0.119966  7.1e-05  1.017542  0.0  0.122988  9.7e-05  1.015738  0.0  0.10996  0.117743  2.4e-05  1.018996  0.0
H  H2  1  0.81339125  0.55116746  0.38445408  1  0.110188  -0.000192  0.956752  0.0  0.120015  7e-05  1.017517  0.0  0.123039  9.7e-05  1.015711  0.0  0.109957  0.117789  2.4e-05  1.018986  0.0
H  H3  1  0.88210409  0.37097136  0.78003686  1  0.129846  -0.000583  0.964037  -0.001  0.135534  -0.000458  1.02696  -0.001  0.139098  -0.000302  1.025256  0.0  0.112307  0.132943  -0.000595  1.028192  -0.001
H  H4  1  0.11788863  0.62903153  0.21996503  1  0.129907  -0.00059  0.964041  -0.001  0.135573  -0.000458  1.026979  -0.001  0.139138  -0.000303  1.025272  0.0  0.112335  0.132985  -0.000595  1.028212  -0.001
H  H5  1  0.79308975  0.61600555  0.93998926  1  0.09846  -0.000985  0.944492  -0.002  0.105983  -0.000735  1.006092  -0.001  0.108025  -0.000521  1.00479  -0.001  0.122558  0.104328  -0.000906  1.007264  -0.002
H  H6  1  0.20690782  0.38400000  0.06001127  1  0.098404  -0.000992  0.944505  -0.002  0.105919  -0.000736  1.006128  -0.001  0.107961  -0.000521  1.004826  -0.001  0.122531  0.104267  -0.000906  1.007282  -0.002
H  H7  1  0.61524444  0.87653277  0.61772644  1  0.13092  -0.000168  0.963311  0.0  0.147999  -0.000101  1.02856  0.0  0.149464  -7.8e-05  1.028897  0.0  0.095498  0.146886  -0.000134  1.0285  0.0
H  H8  1  0.38475719  0.12346491  0.38227217  1  0.130918  -0.000155  0.963311  0.0  0.147996  -0.000101  1.028561  0.0  0.149459  -7.8e-05  1.028899  0.0  0.095499  0.146878  -0.000134  1.028499  0.0
H  H9  1  0.29247838  0.83504634  0.47990735  1  0.145315  -0.000254  0.941899  0.0  0.166427  -8.7e-05  1.001458  0.0  0.168111  -9e-05  1.00093  0.0  0.103174  0.164948  -6.3e-05  1.002053  0.0
H  H10  1  0.70752501  0.16495004  0.52009247  1  0.145338  -0.000243  0.941938  0.0  0.166437  -8.6e-05  1.001507  0.0  0.168122  -9e-05  1.000979  0.0  0.103182  0.164958  -6.3e-05  1.002106  0.0
H  H11  1  0.48412716  0.66165657  0.52450250  1  0.107577  -0.000554  0.955722  -0.001  0.127703  -0.000318  1.022275  0.0  0.128587  -0.000188  1.022914  0.0  0.089469  0.126922  -0.000416  1.022076  0.0
H  H12  1  0.51587174  0.33833847  0.47549879  1  0.107619  -0.000548  0.955702  -0.001  0.127738  -0.000317  1.022246  0.0  0.128623  -0.000188  1.022883  0.0  0.089502  0.126953  -0.000416  1.022058  0.0
C  C13  1  0.20468427  0.85254223  0.77472974  1  -0.005066  0.01159  3.645672  0.008  0.002139  0.002505  3.894213  0.002  0.004049  0.003886  3.91473  0.003  0.116625  0.000352  0.001422  3.881454  0.001
C  C14  1  0.79531846  0.14745940  0.22527024  1  -0.005109  0.011558  3.645747  0.008  0.002142  0.002505  3.894262  0.002  0.004057  0.003887  3.914781  0.003  0.116613  0.000357  0.001422  3.881482  0.001
C  C15  1  0.25933427  0.72891913  0.67733735  1  0.130839  -0.007834  3.709633  -0.008  0.148038  -0.002218  3.948865  -0.003  0.146911  -0.002141  3.972345  -0.003  0.012909  0.147995  -0.002318  3.933806  -0.003
C  C16  1  0.74066357  0.27107984  0.32266189  1  0.130868  -0.007825  3.709526  -0.008  0.148045  -0.002215  3.948797  -0.003  0.146921  -0.002144  3.972275  -0.003  0.012903  0.148008  -0.002319  3.933715  -0.003
C  C17  1  0.14287348  0.55298493  0.68349055  1  -0.064759  0.014508  3.657795  0.009  -0.089569  0.004502  3.904286  0.003  -0.087312  0.004996  3.920825  0.003  -0.062942  -0.090599  0.004133  3.893127  0.002
C  C18  1  0.85712092  0.44701665  0.31650941  1  -0.064683  0.014523  3.657766  0.009  -0.08954  0.004499  3.904268  0.003  -0.087284  0.005  3.920807  0.003  -0.062913  -0.090579  0.004134  3.893114  0.002
C  C19  1  0.97353027  0.50786248  0.77628644  1  -0.093347  -0.010945  3.699099  -0.012  -0.107849  -0.003736  3.951716  -0.005  -0.112076  -0.003271  3.969116  -0.004  -0.075547  -0.105053  -0.004109  3.939757  -0.005
C  C20  1  0.02646622  0.49213912  0.22371378  1  -0.093523  -0.010932  3.699236  -0.012  -0.10801  -0.003734  3.951873  -0.005  -0.112235  -0.003271  3.969272  -0.004  -0.07559  -0.105218  -0.004109  3.939929  -0.005
C  C21  1  0.92414006  0.64074095  0.86531399  1  0.12538  0.011586  3.662972  0.007  0.095354  0.002271  3.923488  0.001  0.103142  0.004029  3.941411  0.003  0.046414  0.090708  0.00099  3.911377  0.0
C  C22  1  0.07585926  0.35926329  0.13468776  1  0.125576  0.011609  3.662997  0.008  0.095579  0.002275  3.923494  0.001  0.103373  0.004024  3.941422  0.003  0.046473  0.090935  0.00099  3.911379  0.0
C  C23  1  0.42404883  0.77819867  0.57013856  1  -0.350569  -0.000964  3.695922  -0.001  -0.436744  -0.000874  3.935917  -0.001  -0.439587  -0.00055  3.946359  -0.001  -0.245459  -0.434402  -0.001232  3.929105  -0.001
C  C24  1  0.57595249  0.22179770  0.42986205  1  -0.350636  -0.001019  3.695913  -0.001  -0.436804  -0.000876  3.935955  -0.001  -0.439646  -0.00055  3.946395  -0.001  -0.245508  -0.434465  -0.001232  3.929141  -0.001
S  S25  1  0.34438397  0.08409618  0.78857604  1  1.279819  -0.001217  5.593204  -0.001  1.185631  -0.004111  6.117393  -0.003  1.236504  -0.002691  6.093541  -0.003  0.521921  1.150689  -0.005339  6.131662  -0.004
S  S26  1  0.65562044  0.91590415  0.21142200  1  1.279964  -0.001211  5.593158  -0.001  1.185793  -0.004109  6.117307  -0.003  1.236678  -0.002693  6.093445  -0.003  0.522012  1.150865  -0.005338  6.13156  -0.004
N  N27  1  0.04230680  0.80964366  0.86492809  1  -0.292898  -0.080022  3.395288  -0.104  -0.257714  -0.049737  3.69185  -0.069  -0.286095  -0.039661  3.716306  -0.059  -0.350033  -0.240643  -0.055788  3.67716  -0.073
N  N28  1  0.95769628  0.19035929  0.13507199  1  -0.293024  -0.080014  3.395453  -0.104  -0.257888  -0.049737  3.692055  -0.069  -0.286289  -0.039658  3.716528  -0.059  -0.35007  -0.240815  -0.055786  3.677355  -0.073
O  O29  1  0.29116221  0.15207203  0.92758036  1  -0.656741  -0.056652  2.067591  -0.078  -0.625908  -0.038029  2.369423  -0.056  -0.657897  -0.028821  2.355057  -0.046  -0.351362  -0.603859  -0.044533  2.379038  -0.062
O  O30  1  0.70884189  0.84792698  0.07241967  1  -0.656753  -0.05666  2.067557  -0.078  -0.625946  -0.038032  2.369395  -0.056  -0.657936  -0.028815  2.355025  -0.046  -0.351388  -0.603908  -0.044528  2.379022  -0.062
O  O31  1  0.64873831  0.10344282  0.80421516  1  -0.649896  -0.01122  2.043252  -0.017  -0.618521  -0.005886  2.324347  -0.01  -0.643398  -0.002866  2.309029  -0.006  -0.323794  -0.600223  -0.008987  2.333695  -0.014
O  O32  1  0.35126432  0.89655880  0.19578062  1  -0.649952  -0.011224  2.043322  -0.017  -0.618564  -0.005887  2.324394  -0.01  -0.643444  -0.002866  2.309073  -0.006  -0.32382  -0.600268  -0.008986  2.333731  -0.014
O  O33  1  0.18608205  0.15116156  0.66008407  1  -0.596879  -0.004399  1.936014  -0.006  -0.541184  -0.002546  2.166163  -0.004  -0.563729  -0.001374  2.155665  -0.002  -0.308503  -0.525026  -0.003998  2.17256  -0.006
O  O34  1  0.81391614  0.84883873  0.33991527  1  -0.596915  -0.004389  1.935972  -0.006  -0.541244  -0.002544  2.166146  -0.004  -0.563799  -0.001377  2.155653  -0.002  -0.308534  -0.525091  -0.003998  2.172543  -0.006
