# generated using pymatgen
data_ZnH14C14NO7
_symmetry_space_group_name_H-M   'P 1'
_cell_length_a   7.38812688
_cell_length_b   8.09771677
_cell_length_c   12.18948249
_cell_angle_alpha   107.94622953
_cell_angle_beta   92.96635853
_cell_angle_gamma   96.83504678
_symmetry_Int_Tables_number   1
_chemical_formula_structural   ZnH14C14NO7
_chemical_formula_sum   'Zn2 H28 C28 N2 O14'
_cell_volume   685.82300448
_cell_formula_units_Z   2
loop_
 _symmetry_equiv_pos_site_id
 _symmetry_equiv_pos_as_xyz
  1  'x, y, z'
loop_
 _atom_site_type_symbol
 _atom_site_label
 _atom_site_symmetry_multiplicity
 _atom_site_fract_x
 _atom_site_fract_y
 _atom_site_fract_z
 _atom_site_occupancy
 _atom_site_hle17_bader_spin_density
 _atom_site_hle17_ddec_charge
 _atom_site_hle17_ddec_spin_density
 _atom_site_hle17_ddec_sum_bond_order
 _atom_site_hle17_magmom
 _atom_site_hse06_10hf_bader_spin_density
 _atom_site_hse06_10hf_ddec_charge
 _atom_site_hse06_10hf_ddec_spin_density
 _atom_site_hse06_10hf_ddec_sum_bond_order
 _atom_site_hse06_10hf_magmom
 _atom_site_hse06_bader_spin_density
 _atom_site_hse06_ddec_charge
 _atom_site_hse06_ddec_spin_density
 _atom_site_hse06_ddec_sum_bond_order
 _atom_site_hse06_magmom
 _atom_site_pbe_bader_spin_density
 _atom_site_pbe_cm5_charge
 _atom_site_pbe_ddec_charge
 _atom_site_pbe_ddec_spin_density
 _atom_site_pbe_ddec_sum_bond_order
 _atom_site_pbe_magmom
Zn  Zn0  1  0.34852450  0.27070803  0.45317517  1  0  1.167613  0  1.67728  0  0  1.00099  0  2.123781  0  0  1.04724  0  2.065354  0  0  0.682401  0.968325  0  2.164182  0
Zn  Zn1  1  0.65147650  0.72928420  0.54682202  1  0  1.167592  0  1.677307  0  0  1.000963  0  2.123816  0  0  1.04721  0  2.065396  0  0  0.682399  0.968299  0  2.164218  0
H  H2  1  0.71664373  0.15058013  0.16018061  1  0  0.103643  0  0.961722  0  0  0.112885  0  1.025656  0  0  0.11613  0  1.024169  0  0  0.105099  0.110544  0  1.026859  0
H  H3  1  0.28335982  0.84941996  0.83981992  1  0  0.103647  0  0.961744  0  0  0.112891  0  1.025675  0  0  0.116136  0  1.024195  0  0  0.105098  0.11055  0  1.026878  0
H  H4  1  0.66184547  0.28889127  0.06229781  1  0  0.099358  0  0.976099  0  0  0.108065  0  1.041799  0  0  0.11178  0  1.039005  0  0  0.100395  0.105387  0  1.043845  0
H  H5  1  0.33816042  0.71110618  0.93769898  1  0  0.099335  0  0.976085  0  0  0.108007  0  1.04182  0  0  0.111739  0  1.038998  0  0  0.100384  0.105324  0  1.043876  0
H  H6  1  0.62493491  0.44505023  0.92178089  1  0  0.092293  0  0.983046  0  0  0.101322  0  1.046673  0  0  0.103383  0  1.047632  0  0  0.099598  0.099852  0  1.046078  0
H  H7  1  0.37506690  0.55494724  0.07821740  1  0  0.092297  0  0.983042  0  0  0.10133  0  1.046658  0  0  0.103392  0  1.047614  0  0  0.099595  0.099861  0  1.046064  0
H  H8  1  0.14055378  0.54826156  0.40213440  1  0  0.0899  0  0.947737  0  0  0.100929  0  1.006422  0  0  0.103567  0  1.003873  0  0  0.119434  0.098905  0  1.008438  0
H  H9  1  0.85945090  0.45173721  0.59786836  1  0  0.089866  0  0.947817  0  0  0.100896  0  1.006488  0  0  0.103533  0  1.003945  0  0  0.119432  0.098872  0  1.008504  0
H  H10  1  0.01218397  0.62201090  0.23451323  1  0  0.118607  0  0.977271  0  0  0.125964  0  1.041081  0  0  0.129882  0  1.039257  0  0  0.107871  0.123098  0  1.042619  0
H  H11  1  0.98781805  0.37799707  0.76549213  1  0  0.118563  0  0.977274  0  0  0.125916  0  1.041106  0  0  0.129834  0  1.03928  0  0  0.107836  0.123048  0  1.042647  0
H  H12  1  0.14601118  0.12871859  0.01463367  1  0  0.098793  0  0.976928  0  0  0.108795  0  1.039492  0  0  0.111061  0  1.040776  0  0  0.101797  0.107189  0  1.038714  0
H  H13  1  0.85398180  0.87129205  0.98536618  1  0  0.098751  0  0.976897  0  0  0.108752  0  1.039459  0  0  0.111018  0  1.040743  0  0  0.101802  0.107146  0  1.038683  0
H  H14  1  0.26786954  0.07536859  0.19377379  1  0  0.078488  0  0.964488  0  0  0.086184  0  1.030038  0  0  0.087942  0  1.029286  0  0  0.112828  0.084861  0  1.030637  0
H  H15  1  0.73212573  0.92463022  0.80622045  1  0  0.078457  0  0.964535  0  0  0.086154  0  1.030089  0  0  0.087912  0  1.029339  0  0  0.112805  0.084832  0  1.030684  0
H  H16  1  0.01400709  0.31246872  0.92172608  1  0  0.100155  0  0.942104  0  0  0.111558  0  1.002287  0  0  0.114547  0  1.001188  0  0  0.107174  0.109419  0  1.003111  0
H  H17  1  0.98598492  0.68754455  0.07827756  1  0  0.10018  0  0.941996  0  0  0.111565  0  1.002215  0  0  0.114557  0  1.001114  0  0  0.107179  0.109422  0  1.003045  0
H  H18  1  0.00258346  0.23173268  0.46701761  1  0  0.415971  0  0.900262  0  0  0.379152  0  0.973113  0  0  0.391449  0  0.955455  0  0  0.286459  0.370507  0  0.985498  0
H  H19  1  0.99742124  0.76826609  0.53298186  1  0  0.415962  0  0.900268  0  0  0.37913  0  0.973128  0  0  0.391423  0  0.955477  0  0  0.286472  0.370488  0  0.985508  0
H  H20  1  0.17689152  0.95106015  0.36261792  1  0  0.430295  0  0.864777  0  0  0.397409  0  0.930885  0  0  0.408901  0  0.914009  0  0  0.29529  0.389277  0  0.942813  0
H  H21  1  0.82310463  0.04893604  0.63738402  1  0  0.430358  0  0.864687  0  0  0.397409  0  0.93088  0  0  0.408899  0  0.914009  0  0  0.29526  0.389278  0  0.942808  0
H  H22  1  0.58941487  0.42564586  0.35474465  1  0  0.415673  0  0.901479  0  0  0.380967  0  0.971287  0  0  0.393412  0  0.953654  0  0  0.284212  0.372229  0  0.983638  0
H  H23  1  0.41058306  0.57435294  0.64525624  1  0  0.415668  0  0.90147  0  0  0.38095  0  0.971299  0  0  0.393395  0  0.953666  0  0  0.2842  0.372209  0  0.983655  0
H  H24  1  0.10003018  0.22324189  0.58537005  1  0  0.416799  0  0.892889  0  0  0.385833  0  0.957371  0  0  0.3958  0  0.942973  0  0  0.291717  0.378809  0  0.967504  0
H  H25  1  0.89997318  0.77675688  0.41462856  1  0  0.416817  0  0.892855  0  0  0.385853  0  0.957335  0  0  0.395821  0  0.942933  0  0  0.291738  0.37883  0  0.967474  0
H  H26  1  0.38710141  0.91448803  0.38641195  1  0  0.437979  0  0.853517  0  0  0.405277  0  0.918374  0  0  0.416404  0  0.902375  0  0  0.29391  0.397401  0  0.929672  0
H  H27  1  0.61289706  0.08550552  0.61358871  1  0  0.438017  0  0.853481  0  0  0.405331  0  0.918308  0  0  0.416457  0  0.90231  0  0  0.293923  0.397457  0  0.929604  0
H  H28  1  0.68479379  0.28714961  0.40110563  1  0  0.42955  0  0.875537  0  0  0.396047  0  0.94149  0  0  0.407799  0  0.924773  0  0  0.290542  0.387799  0  0.953186  0
H  H29  1  0.31520976  0.71285048  0.59889490  1  0  0.429567  0  0.875535  0  0  0.396047  0  0.9415  0  0  0.407798  0  0.924784  0  0  0.290556  0.387802  0  0.953191  0
C  C30  1  0.66867250  0.92607242  0.21650394  1  0  -0.072948  0  3.754032  0  0  -0.060375  0  3.997006  0  0  -0.065071  0  4.016869  0  0  -0.014955  -0.057429  0  3.983797  0
C  C31  1  0.33133200  0.07392504  0.78349608  1  0  -0.072923  0  3.754007  0  0  -0.060349  0  3.996969  0  0  -0.065042  0  4.016831  0  0  -0.014923  -0.05739  0  3.983749  0
C  C32  1  0.63845988  0.02051222  0.14066011  1  0  -0.123909  0  3.700892  0  0  -0.153713  0  3.952394  0  0  -0.154748  0  3.970439  0  0  -0.085305  -0.152941  0  3.940274  0
C  C33  1  0.36154347  0.97948655  0.85933932  1  0  -0.123908  0  3.700985  0  0  -0.153729  0  3.952507  0  0  -0.154768  0  3.970559  0  0  -0.085314  -0.152959  0  3.940382  0
C  C34  1  0.51510409  0.94946405  0.04012199  1  0  0.044082  0  3.781457  0  0  0.05919  0  4.0159  0  0  0.059322  0  4.03881  0  0  -0.008662  0.059056  0  4.000329  0
C  C35  1  0.48489811  0.05053605  0.95987768  1  0  0.044035  0  3.781566  0  0  0.059139  0  4.016022  0  0  0.059272  0  4.03893  0  0  -0.008656  0.059005  0  4.000451  0
C  C36  1  0.57422948  0.22251680  0.98254669  1  0  -0.098642  0  3.708068  0  0  -0.123209  0  3.962265  0  0  -0.124729  0  3.980681  0  0  -0.086171  -0.122063  0  3.94978  0
C  C37  1  0.42577639  0.77748065  0.01745173  1  0  -0.098583  0  3.707868  0  0  -0.123116  0  3.9621  0  0  -0.124645  0  3.980493  0  0  -0.086141  -0.121971  0  3.949611  0
C  C38  1  0.55036065  0.31426464  0.90457648  1  0  -0.071583  0  3.753381  0  0  -0.093062  0  4.003296  0  0  -0.093894  0  4.023626  0  0  -0.085439  -0.092489  0  3.989587  0
C  C39  1  0.44964113  0.68573283  0.09542509  1  0  -0.071597  0  3.753362  0  0  -0.093072  0  4.003284  0  0  -0.093904  0  4.023618  0  0  -0.085438  -0.092504  0  3.989573  0
C  C40  1  0.56703835  0.75942097  0.19662212  1  0  -0.06405  0  3.735359  0  0  -0.051659  0  3.970993  0  0  -0.055906  0  3.990231  0  0  -0.012323  -0.048951  0  3.958198  0
C  C41  1  0.43296480  0.24057649  0.80337786  1  0  -0.063983  0  3.735297  0  0  -0.051568  0  3.970888  0  0  -0.055816  0  3.990126  0  0  -0.012339  -0.048876  0  3.958109  0
C  C42  1  0.56918399  0.66770120  0.28622267  1  0  0.662609  0  3.884551  0  0  0.606016  0  4.187208  0  0  0.640262  0  4.179127  0  0  0.215599  0.582734  0  4.19203  0
C  C43  1  0.43081428  0.33229104  0.71377689  1  0  0.662447  0  3.884865  0  0  0.605848  0  4.187504  0  0  0.640095  0  4.179425  0  0  0.215557  0.582572  0  4.192321  0
C  C44  1  0.17861903  0.00301299  0.68805079  1  0  0.680766  0  3.868069  0  0  0.616147  0  4.181453  0  0  0.65038  0  4.17206  0  0  0.222502  0.592967  0  4.187106  0
C  C45  1  0.82138317  0.99698710  0.31194805  1  0  0.68079  0  3.867971  0  0  0.616183  0  4.181359  0  0  0.650412  0  4.171968  0  0  0.222518  0.593008  0  4.187011  0
C  C46  1  0.14107130  0.45968015  0.31460695  1  0  0.152963  0  3.674451  0  0  0.120105  0  3.927615  0  0  0.128204  0  3.94411  0  0  0.048806  0.114795  0  3.916503  0
C  C47  1  0.85893129  0.54032257  0.68539490  1  0  0.152943  0  3.674526  0  0  0.120102  0  3.927687  0  0  0.128197  0  3.944185  0  0  0.048808  0.114791  0  3.916574  0
C  C48  1  0.06986931  0.50017563  0.22005507  1  0  -0.152347  0  3.648814  0  0  -0.170864  0  3.896698  0  0  -0.178663  0  3.91634  0  0  -0.080211  -0.165884  0  3.883684  0
C  C49  1  0.93013329  0.49982709  0.77994514  1  0  -0.152298  0  3.648819  0  0  -0.170819  0  3.896717  0  0  -0.178618  0  3.916358  0  0  -0.080194  -0.16584  0  3.883701  0
C  C50  1  0.07381295  0.38354135  0.10770472  1  0  0.127227  0  3.80623  0  0  0.141427  0  4.039497  0  0  0.146943  0  4.06128  0  0  0.0077  0.13793  0  4.024592  0
C  C51  1  0.92618232  0.61646665  0.89229796  1  0  0.127173  0  3.806235  0  0  0.141369  0  4.039512  0  0  0.146885  0  4.061294  0  0  0.00769  0.137872  0  4.024601  0
C  C52  1  0.14145025  0.22522562  0.09914363  1  0  -0.165629  0  3.698513  0  0  -0.181233  0  3.94234  0  0  -0.19001  0  3.964497  0  0  -0.084102  -0.175546  0  3.927427  0
C  C53  1  0.85854096  0.77478240  0.90085809  1  0  -0.165483  0  3.698368  0  0  -0.181071  0  3.942205  0  0  -0.189845  0  3.964361  0  0  -0.084089  -0.175385  0  3.92729  0
C  C54  1  0.21063120  0.19491802  0.19823992  1  0  0.134045  0  3.710839  0  0  0.104033  0  3.960544  0  0  0.111429  0  3.979161  0  0  0.043689  0.09929  0  3.947828  0
C  C55  1  0.78936173  0.80508343  0.80175888  1  0  0.134009  0  3.710779  0  0  0.103991  0  3.960505  0  0  0.111386  0  3.979123  0  0  0.043697  0.099249  0  3.947787  0
C  C56  1  0.01869478  0.42124622  0.00225859  1  0  -0.091913  0  3.687674  0  0  -0.109982  0  3.935411  0  0  -0.112949  0  3.955007  0  0  -0.072991  -0.107843  0  3.921862  0
C  C57  1  0.98130339  0.57876308  0.99774445  1  0  -0.091958  0  3.687637  0  0  -0.11002  0  3.935381  0  0  -0.112991  0  3.954976  0  0  -0.073023  -0.107874  0  3.921829  0
N  N58  1  0.21386825  0.31132467  0.30471546  1  0  -0.349149  0  3.265167  0  0  -0.270808  0  3.531918  0  0  -0.290126  0  3.548519  0  0  -0.325411  -0.257743  0  3.520508  0
N  N59  1  0.78613259  0.68867543  0.69528416  1  0  -0.349076  0  3.265032  0  0  -0.270752  0  3.531797  0  0  -0.290069  0  3.548401  0  0  -0.325402  -0.257688  0  3.520386  0
O  O60  1  0.59362198  0.50943148  0.25654067  1  0  -0.583038  0  1.965194  0  0  -0.527331  0  2.18253  0  0  -0.552323  0  2.175394  0  0  -0.300144  -0.509914  0  2.186999  0
O  O61  1  0.40636817  0.49056079  0.74345862  1  0  -0.58299  0  1.965342  0  0  -0.527264  0  2.182661  0  0  -0.552258  0  2.175527  0  0  -0.300125  -0.509844  0  2.187126  0
O  O62  1  0.53906725  0.76143191  0.38896933  1  0  -0.685075  0  2.031451  0  0  -0.605268  0  2.274331  0  0  -0.63483  0  2.261565  0  0  -0.319783  -0.584527  0  2.282498  0
O  O63  1  0.46092892  0.23856428  0.61103097  1  0  -0.685031  0  2.03155  0  0  -0.605255  0  2.274444  0  0  -0.634808  0  2.261659  0  0  -0.319791  -0.584527  0  2.28262  0
O  O64  1  0.06492951  0.10591012  0.67882988  1  0  -0.65999  0  1.99578  0  0  -0.594339  0  2.22059  0  0  -0.619111  0  2.208341  0  0  -0.315121  -0.576963  0  2.228544  0
O  O65  1  0.93507112  0.89408867  0.32117192  1  0  -0.659985  0  1.995754  0  0  -0.594359  0  2.220569  0  0  -0.61913  0  2.208317  0  0  -0.315102  -0.576983  0  2.228522  0
O  O66  1  0.16499384  0.84305139  0.62563492  1  0  -0.615824  0  2.049948  0  0  -0.54216  0  2.264882  0  0  -0.56891  0  2.254382  0  0  -0.29798  -0.523636  0  2.271678  0
O  O67  1  0.83500972  0.15694869  0.37436315  1  0  -0.615823  0  2.049835  0  0  -0.542187  0  2.26479  0  0  -0.568939  0  2.254289  0  0  -0.298012  -0.523664  0  2.27159  0
O  O68  1  0.10850231  0.28924835  0.52892092  1  0  -0.847385  0  1.95985  0  0  -0.782212  0  2.180797  0  0  -0.806127  0  2.146676  0  0  -0.580006  -0.765274  0  2.204313  0
O  O69  1  0.89150009  0.71075305  0.47107901  1  0  -0.8474  0  1.95983  0  0  -0.78223  0  2.180846  0  0  -0.806141  0  2.146732  0  0  -0.580046  -0.7653  0  2.204353  0
O  O70  1  0.30868293  0.99997483  0.37347986  1  0  -0.848879  0  1.922591  0  0  -0.784706  0  2.137163  0  0  -0.806174  0  2.100056  0  0  -0.575406  -0.769591  0  2.163043  0
O  O71  1  0.69131439  0.00002004  0.62652021  1  0  -0.848982  0  1.922545  0  0  -0.784757  0  2.137205  0  0  -0.806224  0  2.100102  0  0  -0.575387  -0.769645  0  2.163084  0
O  O72  1  0.59494172  0.37370987  0.42162798  1  0  -0.866449  0  1.956294  0  0  -0.797324  0  2.198465  0  0  -0.822218  0  2.158226  0  0  -0.572981  -0.779521  0  2.225906  0
O  O73  1  0.40506026  0.62628892  0.57837305  1  0  -0.866452  0  1.956241  0  0  -0.797327  0  2.198484  0  0  -0.822217  0  2.158243  0  0  -0.572999  -0.779524  0  2.225924  0
