# generated using pymatgen
data_CdH12C13(NO)2
_symmetry_space_group_name_H-M   'P 1'
_cell_length_a   10.74402142
_cell_length_b   18.29307802
_cell_length_c   18.29313053
_cell_angle_alpha   85.04905483
_cell_angle_beta   72.92191029
_cell_angle_gamma   72.92079791
_symmetry_Int_Tables_number   1
_chemical_formula_structural   CdH12C13(NO)2
_chemical_formula_sum   'Cd8 H96 C104 N16 O16'
_cell_volume   3285.25370232
_cell_formula_units_Z   8
loop_
 _symmetry_equiv_pos_site_id
 _symmetry_equiv_pos_as_xyz
  1  'x, y, z'
loop_
 _atom_site_type_symbol
 _atom_site_label
 _atom_site_symmetry_multiplicity
 _atom_site_fract_x
 _atom_site_fract_y
 _atom_site_fract_z
 _atom_site_occupancy
 _atom_site_pbe_bader_charge
 _atom_site_pbe_bader_spin_density
 _atom_site_pbe_cm5_charge
 _atom_site_pbe_ddec_charge
 _atom_site_pbe_ddec_spin_density
 _atom_site_pbe_ddec_sum_bond_order
 _atom_site_pbe_magmom
Cd  Cd0  1  0.51861890  0.66935878  0.22489869  1  1.239902  0  0.800167  0.858826  0  2.29957  0
Cd  Cd1  1  0.18799259  0.72492487  0.33063290  1  1.240992  0  0.800219  0.859522  0  2.298532  0
Cd  Cd2  1  0.91287769  0.83064308  0.27510477  1  1.240619  0  0.800136  0.859723  0  2.299177  0
Cd  Cd3  1  0.74350781  0.77506850  0.16935072  1  1.240896  0  0.800193  0.859098  0  2.300104  0
Cd  Cd4  1  0.48138160  0.33064106  0.77510119  1  1.23993  0  0.800175  0.858831  0  2.299555  0
Cd  Cd5  1  0.81200817  0.27507554  0.66936643  1  1.241008  0  0.800222  0.859564  0  2.298509  0
Cd  Cd6  1  0.08712362  0.16935676  0.72489528  1  1.240601  0  0.800142  0.859745  0  2.29918  0
Cd  Cd7  1  0.25649186  0.22493192  0.83064970  1  1.240889  0  0.800208  0.859085  0  2.300072  0
H  H8  1  0.06757383  0.89807029  0.11448445  1  0.110973  0  0.098451  0.09982  0  1.037234  0
H  H9  1  0.96557074  0.61453846  0.10187475  1  0.107471  0  0.098533  0.100379  0  1.037428  0
H  H10  1  0.58003128  0.60192515  0.38550968  1  0.099808  0  0.098826  0.100985  0  1.036217  0
H  H11  1  0.18213055  0.88542944  0.39804199  1  0.094391  0  0.098718  0.100362  0  1.037771  0
H  H12  1  0.93242613  0.10193012  0.88551471  1  0.108471  0  0.098445  0.099803  0  1.037298  0
H  H13  1  0.03442895  0.38546081  0.89812622  1  0.107462  0  0.098528  0.10037  0  1.037431  0
H  H14  1  0.41997028  0.39807526  0.61448982  1  0.100088  0  0.098818  0.100973  0  1.036232  0
H  H15  1  0.81786899  0.11456696  0.60195666  1  0.094431  0  0.098681  0.100268  0  1.03784  0
H  H16  1  0.11917597  0.94430324  0.98003530  1  0.065462  0  0.096999  0.099458  0  1.01478  0
H  H17  1  0.06330490  0.48006012  0.05572058  1  0.0453  0  0.097019  0.0993  0  1.014636  0
H  H18  1  0.54336147  0.55572864  0.51998499  1  0.034343  0  0.096735  0.099046  0  1.013321  0
H  H19  1  0.09916985  0.01987861  0.44430333  1  0.061632  0  0.096905  0.099209  0  1.015286  0
H  H20  1  0.88082428  0.05569660  0.01996386  1  0.065407  0  0.097019  0.099475  0  1.01475  0
H  H21  1  0.93669585  0.51993972  0.94428002  1  0.045225  0  0.097025  0.09931  0  1.014594  0
H  H22  1  0.45663954  0.44427177  0.48001506  1  0.034325  0  0.096746  0.099087  0  1.013253  0
H  H23  1  0.90083016  0.98012008  0.55569567  1  0.061572  0  0.096915  0.099211  0  1.015299  0
H  H24  1  0.52714913  0.79575771  0.93590087  1  0.061668  0  0.094128  0.092465  0  1.026406  0
H  H25  1  0.32276205  0.43592083  0.20423384  1  0.014439  0  0.094413  0.092694  0  1.026902  0
H  H26  1  0.75882210  0.70419173  0.56403979  1  0.013145  0  0.09442  0.092758  0  1.025347  0
H  H27  1  0.46288996  0.06413847  0.29578238  1  0.041817  0  0.094378  0.093249  0  1.027685  0
H  H28  1  0.47284996  0.20424385  0.06409955  1  0.061658  0  0.094151  0.092494  0  1.026354  0
H  H29  1  0.67723817  0.56407958  0.79576604  1  0.014435  0  0.094407  0.092708  0  1.02689  0
H  H30  1  0.24117840  0.29580811  0.43596009  1  0.013155  0  0.094407  0.092719  0  1.025362  0
H  H31  1  0.53710755  0.93586194  0.70421825  1  0.041787  0  0.094373  0.093247  0  1.027668  0
H  H32  1  0.47385325  0.74771771  0.06880437  1  0.102095  0  0.099351  0.095197  0  1.074528  0
H  H33  1  0.22157048  0.56884727  0.25217676  1  0.093688  0  0.099248  0.094553  0  1.075338  0
H  H34  1  0.79045743  0.75218277  0.43113762  1  0.114605  0  0.099512  0.094875  0  1.075229  0
H  H35  1  0.54263329  0.93123402  0.24772549  1  0.101363  0  0.099663  0.095003  0  1.075189  0
H  H36  1  0.52614719  0.25228385  0.93119568  1  0.102066  0  0.09935  0.095207  0  1.074481  0
H  H37  1  0.77843086  0.43115257  0.74782131  1  0.093687  0  0.099246  0.094552  0  1.075285  0
H  H38  1  0.20954224  0.24781764  0.56886280  1  0.114613  0  0.099517  0.094887  0  1.075199  0
H  H39  1  0.45736529  0.06876697  0.75227477  1  0.101378  0  0.099662  0.094985  0  1.075195  0
H  H40  1  0.46970313  0.88396746  0.84254746  1  0.01219  0  0.093276  0.088478  0  0.990185  0
H  H41  1  0.35345058  0.34256879  0.11605384  1  0.01465  0  0.092758  0.087232  0  0.990082  0
H  H42  1  0.69619515  0.61599225  0.65742558  1  0.01007  0  0.093049  0.088188  0  0.989125  0
H  H43  1  0.31205520  0.15741500  0.38395713  1  0.023533  0  0.092768  0.087293  0  0.990956  0
H  H44  1  0.53029844  0.11603296  0.15745204  1  0.012211  0  0.093284  0.08848  0  0.990167  0
H  H45  1  0.64655127  0.65743105  0.88394566  1  0.014672  0  0.092761  0.087216  0  0.990092  0
H  H46  1  0.30380644  0.38400702  0.34257447  1  0.010073  0  0.093064  0.088207  0  0.989123  0
H  H47  1  0.68794507  0.84258370  0.61604258  1  0.02348  0  0.09274  0.087248  0  0.991017  0
H  H48  1  0.32834801  0.86037595  0.83267206  1  0.034564  0  0.098248  0.100156  0  0.97086  0
H  H49  1  0.18853934  0.33264757  0.13963940  1  0.035673  0  0.098837  0.101086  0  0.97119  0
H  H50  1  0.52136197  0.63961301  0.66731616  1  0.032377  0  0.098465  0.100395  0  0.972211  0
H  H51  1  0.16086433  0.16729228  0.36032374  1  0.030122  0  0.098642  0.100763  0  0.972232  0
H  H52  1  0.67165111  0.13962503  0.16732765  1  0.034553  0  0.098231  0.100127  0  0.970881  0
H  H53  1  0.81146088  0.66735284  0.86036047  1  0.035666  0  0.098838  0.101063  0  0.971204  0
H  H54  1  0.47863879  0.36038740  0.33268317  1  0.032372  0  0.098454  0.100392  0  0.972203  0
H  H55  1  0.83913703  0.83270584  0.63967614  1  0.030087  0  0.098644  0.10076  0  0.972269  0
H  H56  1  0.24238505  0.93563133  0.70539430  1  0.069785  0  0.092568  0.128352  0  0.994017  0
H  H57  1  0.17800494  0.20544638  0.06430691  1  0.048434  0  0.09263  0.128732  0  0.993308  0
H  H58  1  0.38342623  0.56433856  0.79451898  1  0.037739  0  0.092605  0.128818  0  0.993448  0
H  H59  1  0.94775981  0.29462633  0.43563968  1  0.008777  0  0.092603  0.129  0  0.994367  0
H  H60  1  0.75761596  0.06436908  0.29460575  1  0.069785  0  0.092569  0.128368  0  0.99401  0
H  H61  1  0.82199444  0.79455460  0.93569351  1  0.048808  0  0.092666  0.128831  0  0.993284  0
H  H62  1  0.61657427  0.43566128  0.20548090  1  0.037738  0  0.092602  0.128812  0  0.993452  0
H  H63  1  0.05224017  0.70537237  0.56436129  1  0.008747  0  0.09261  0.128977  0  0.994344  0
H  H64  1  0.08157347  0.00497883  0.73191234  1  0.056022  0  0.098814  0.14095  0  0.999589  0
H  H65  1  0.08647836  0.23193405  0.99498990  1  0.065693  0  0.098934  0.141107  0  0.998516  0
H  H66  1  0.31839680  0.49501829  0.76803432  1  0.0442  0  0.098292  0.140091  0  0.998695  0
H  H67  1  0.81341426  0.26813731  0.50496401  1  0.068511  0  0.098781  0.140771  0  0.999515  0
H  H68  1  0.91842671  0.99502216  0.26808825  1  0.056025  0  0.098797  0.140944  0  0.999597  0
H  H69  1  0.91352022  0.76806693  0.00501035  1  0.065681  0  0.098922  0.141109  0  0.99854  0
H  H70  1  0.68160342  0.50498212  0.23196556  1  0.044194  0  0.098285  0.140078  0  0.998704  0
H  H71  1  0.18658569  0.73186253  0.49503642  1  0.068569  0  0.098767  0.140732  0  0.999516  0
H  H72  1  0.11588958  0.92207295  0.78881820  1  0.0469  0  0.095456  0.133855  0  0.98878  0
H  H73  1  0.03781401  0.28881703  0.07792907  1  0.033939  0  0.095304  0.133596  0  0.988092  0
H  H74  1  0.32659781  0.57796385  0.71114891  1  0.051757  0  0.095426  0.133545  0  0.988266  0
H  H75  1  0.90464488  0.21122250  0.42205471  1  0.038367  0  0.09517  0.133734  0  0.988534  0
H  H76  1  0.88411063  0.07792747  0.21118168  1  0.046886  0  0.095492  0.13393  0  0.988714  0
H  H77  1  0.96218509  0.71118452  0.92207135  1  0.033982  0  0.095316  0.133624  0  0.988108  0
H  H78  1  0.67340214  0.42203599  0.28885152  1  0.051751  0  0.095434  0.133545  0  0.988264  0
H  H79  1  0.09535456  0.78877734  0.57794428  1  0.038392  0  0.095166  0.133716  0  0.988526  0
H  H80  1  0.34734003  0.02925812  0.98767782  1  0.040911  0  0.092872  0.130284  0  1.001817  0
H  H81  1  0.37661394  0.48772594  0.97077342  1  0.076431  0  0.093023  0.130802  0  1.001121  0
H  H82  1  0.86426468  0.47071655  0.51223375  1  0.042664  0  0.092956  0.130651  0  1.00162  0
H  H83  1  0.33504035  0.01221851  0.52921362  1  0.046796  0  0.093332  0.130948  0  1.001559  0
H  H84  1  0.65265828  0.97074229  0.01232298  1  0.040952  0  0.092856  0.130248  0  1.001904  0
H  H85  1  0.62338572  0.51227447  0.02922700  1  0.076431  0  0.093023  0.130798  0  1.001141  0
H  H86  1  0.13573418  0.52928386  0.48776651  1  0.042668  0  0.092968  0.130682  0  1.001585  0
H  H87  1  0.66495851  0.98778190  0.47078663  1  0.046792  0  0.093374  0.131029  0  1.001471  0
H  H88  1  0.39035261  0.10914087  0.93416916  1  0.038988  0  0.093348  0.131765  0  1.012862  0
H  H89  1  0.49941577  0.43415447  0.89089816  1  0.055354  0  0.093406  0.131638  0  1.01327  0
H  H90  1  0.93358580  0.39083275  0.56578078  1  0.0543  0  0.093186  0.131202  0  1.013883  0
H  H91  1  0.32437913  0.06579808  0.60908502  1  0.045136  0  0.093448  0.131555  0  1.013616  0
H  H92  1  0.60964677  0.89085954  0.06583253  1  0.038924  0  0.093339  0.131744  0  1.012912  0
H  H93  1  0.50058444  0.56584594  0.10910172  1  0.055365  0  0.093381  0.131575  0  1.013329  0
H  H94  1  0.06641441  0.60916766  0.43421910  1  0.054232  0  0.093192  0.131214  0  1.013866  0
H  H95  1  0.67562137  0.93420176  0.39091486  1  0.045135  0  0.0934  0.131485  0  1.01363  0
H  H96  1  0.49478908  0.01506035  0.90890602  1  0.069206  0  0.097545  0.139579  0  0.981221  0
H  H97  1  0.50981700  0.40890710  0.98497090  1  0.037174  0  0.09717  0.139682  0  0.981974  0
H  H98  1  0.91873250  0.48490729  0.59101223  1  0.049404  0  0.097354  0.140098  0  0.980102  0
H  H99  1  0.40365168  0.09102403  0.51502710  1  0.058882  0  0.096721  0.13887  0  0.981472  0
H  H100  1  0.50521033  0.98493949  0.09109495  1  0.069185  0  0.097535  0.13956  0  0.981229  0
H  H101  1  0.49018350  0.59109274  0.01502897  1  0.037175  0  0.097179  0.139696  0  0.981958  0
H  H102  1  0.08126772  0.51509312  0.40898765  1  0.049414  0  0.09734  0.140067  0  0.980122  0
H  H103  1  0.59634801  0.90897581  0.48497261  1  0.058877  0  0.096747  0.138933  0  0.981558  0
C  C104  1  0.23715532  0.78905344  0.17965781  1  1.517821  0  0.207788  0.600244  0  4.14053  0
C  C105  1  0.02613062  0.67965525  0.21092871  1  1.516703  0  0.207619  0.600215  0  4.14117  0
C  C106  1  0.70577336  0.71095927  0.32035689  1  1.514139  0  0.207463  0.599894  0  4.140406  0
C  C107  1  0.41682088  0.82040273  0.28893888  1  1.521468  0  0.206901  0.600786  0  4.140386  0
C  C108  1  0.76284276  0.21094640  0.82034156  1  1.518033  0  0.207771  0.600239  0  4.140404  0
C  C109  1  0.97386855  0.32034345  0.78907209  1  1.516692  0  0.207643  0.600181  0  4.141229  0
C  C110  1  0.29422714  0.28904057  0.67964298  1  1.514214  0  0.207439  0.59982  0  4.140422  0
C  C111  1  0.58318017  0.17959711  0.71106046  1  1.521657  0  0.206846  0.600738  0  4.140491  0
C  C112  1  0.26730580  0.81915456  0.10019264  1  -0.039626  0  -0.023112  -0.043937  0  3.974358  0
C  C113  1  0.08635240  0.60021465  0.18080299  1  0.030952  0  -0.022936  -0.042087  0  3.972063  0
C  C114  1  0.68660976  0.68081229  0.39978665  1  -1.4e-05  0  -0.022144  -0.041949  0  3.972052  0
C  C115  1  0.36748309  0.89981692  0.31912009  1  -0.048078  0  -0.022431  -0.042484  0  3.971874  0
C  C116  1  0.73269228  0.18084528  0.89980673  1  -0.039581  0  -0.023129  -0.043938  0  3.974361  0
C  C117  1  0.91364596  0.39978405  0.81919765  1  0.03119  0  -0.022937  -0.042084  0  3.972032  0
C  C118  1  0.31339154  0.31918755  0.60021339  1  -2.3e-05  0  -0.022167  -0.041945  0  3.972136  0
C  C119  1  0.63251551  0.10018292  0.68088071  1  -0.048107  0  -0.022467  -0.042536  0  3.97189  0
C  C120  1  0.16813707  0.87553547  0.07506262  1  0.013701  0  -0.084103  -0.074656  0  3.964225  0
C  C121  1  0.04354744  0.57511059  0.12442896  1  -0.065914  0  -0.083662  -0.076096  0  3.96323  0
C  C122  1  0.61865730  0.62444895  0.42491106  1  -0.042287  0  -0.084313  -0.077258  0  3.961694  0
C  C123  1  0.24322357  0.92486306  0.37552688  1  0.020191  0  -0.08423  -0.075852  0  3.963793  0
C  C124  1  0.83186292  0.12446437  0.92493583  1  0.016131  0  -0.084086  -0.074628  0  3.964237  0
C  C125  1  0.95645115  0.42488925  0.87557184  1  -0.065934  0  -0.083663  -0.076064  0  3.963115  0
C  C126  1  0.38134320  0.37555089  0.57508881  1  -0.042579  0  -0.084289  -0.077235  0  3.961777  0
C  C127  1  0.75677290  0.07513621  0.62447341  1  0.020249  0  -0.084197  -0.075726  0  3.963608  0
C  C128  1  0.19716193  0.90109464  0.99961649  1  -0.099187  0  -0.097922  -0.151113  0  3.986898  0
C  C129  1  0.09807076  0.49963983  0.09892875  1  -0.041195  0  -0.098376  -0.151097  0  3.986536  0
C  C130  1  0.59774760  0.59891770  0.50038000  1  -0.031482  0  -0.097551  -0.14936  0  3.983766  0
C  C131  1  0.19672309  0.00031997  0.40109227  1  -0.090993  0  -0.097345  -0.150175  0  3.983754  0
C  C132  1  0.80283774  0.09890634  0.00038268  1  -0.099153  0  -0.097934  -0.151128  0  3.986927  0
C  C133  1  0.90192838  0.50036001  0.90107151  1  -0.041187  0  -0.098379  -0.151102  0  3.9865  0
C  C134  1  0.40225371  0.40108214  0.49962004  1  -0.03148  0  -0.097569  -0.149407  0  3.983703  0
C  C135  1  0.80327530  0.99967816  0.59890764  1  -0.090984  0  -0.097363  -0.150227  0  3.983739  0
C  C136  1  0.32592008  0.87230482  0.94823381  1  -0.03903  0  -0.005485  0.129232  0  3.960692  0
C  C137  1  0.19798487  0.44824037  0.12773752  1  -0.044718  0  -0.006195  0.129789  0  3.960591  0
C  C138  1  0.64637752  0.62767899  0.55174076  1  -0.048099  0  -0.006149  0.128603  0  3.961087  0
C  C139  1  0.27402496  0.05172178  0.37230409  1  -0.051514  0  -0.006629  0.128649  0  3.958489  0
C  C140  1  0.67407959  0.12769616  0.05176535  1  -0.039028  0  -0.005515  0.129212  0  3.960823  0
C  C141  1  0.80201615  0.55176004  0.87226253  1  -0.044729  0  -0.006206  0.129738  0  3.960659  0
C  C142  1  0.35362407  0.37232027  0.44825928  1  -0.048144  0  -0.006129  0.128622  0  3.961082  0
C  C143  1  0.72597392  0.94827749  0.62769671  1  -0.051476  0  -0.006552  0.128771  0  3.958624  0
C  C144  1  0.42533743  0.81769095  0.97456272  1  -0.135378  0  -0.101969  -0.160745  0  4.004319  0
C  C145  1  0.24287740  0.47457685  0.18229876  1  0.019491  0  -0.1014  -0.160455  0  4.004545  0
C  C146  1  0.71760065  0.68224781  0.52539309  1  0.004413  0  -0.101727  -0.159907  0  4.00427  0
C  C147  1  0.39979160  0.02545576  0.31769450  1  0.003046  0  -0.101236  -0.160723  0  4.005943  0
C  C148  1  0.57466227  0.18230889  0.02543699  1  -0.135349  0  -0.10192  -0.160709  0  4.004377  0
C  C149  1  0.75712367  0.52542241  0.81769986  1  0.019583  0  -0.101398  -0.160486  0  4.004594  0
C  C150  1  0.28240066  0.31775203  0.47460696  1  0.004663  0  -0.101733  -0.159896  0  4.004352  0
C  C151  1  0.60020915  0.97454408  0.68230609  1  0.003049  0  -0.101222  -0.16071  0  4.005951  0
C  C152  1  0.39627608  0.79062492  0.04924367  1  0.052768  0  -0.084883  -0.074802  0  3.973584  0
C  C153  1  0.18681390  0.54928070  0.20931588  1  -0.085126  0  -0.085156  -0.07529  0  3.97506  0
C  C154  1  0.73616650  0.70930538  0.45070603  1  -0.049799  0  -0.086037  -0.076372  0  3.974689  0
C  C155  1  0.44548752  0.95077780  0.29060781  1  -0.059405  0  -0.085879  -0.075784  0  3.972888  0
C  C156  1  0.60372334  0.20937606  0.95075478  1  0.052751  0  -0.084876  -0.074805  0  3.97357  0
C  C157  1  0.81318714  0.45071800  0.79068597  1  -0.08537  0  -0.085166  -0.075302  0  3.975123  0
C  C158  1  0.26383480  0.29069446  0.54929402  1  -0.049979  0  -0.086035  -0.076366  0  3.974678  0
C  C159  1  0.55451246  0.04922147  0.70939190  1  -0.059433  0  -0.085896  -0.075805  0  3.972898  0
C  C160  1  0.35831018  0.89704588  0.86530008  1  -0.000573  0  -0.149394  -0.196054  0  4.022002  0
C  C161  1  0.25510516  0.36532951  0.10300044  1  0.022825  0  -0.149564  -0.196093  0  4.022632  0
C  C162  1  0.62060589  0.60294759  0.63466070  1  0.009213  0  -0.149764  -0.197003  0  4.022956  0
C  C163  1  0.22342517  0.13464859  0.39700150  1  0.018234  0  -0.149482  -0.195811  0  4.022945  0
C  C164  1  0.64169030  0.10295510  0.13469925  1  -0.000572  0  -0.149412  -0.19606  0  4.021951  0
C  C165  1  0.74489641  0.63467090  0.89699906  1  0.022788  0  -0.149518  -0.195949  0  4.022578  0
C  C166  1  0.37939432  0.39705282  0.36533917  1  0.009216  0  -0.149792  -0.197047  0  4.023053  0
C  C167  1  0.77657509  0.86534953  0.60299947  1  0.018305  0  -0.149467  -0.195788  0  4.023005  0
C  C168  1  0.29334927  0.97890019  0.84990351  1  0.024877  0  -0.047809  -0.130329  0  4.002328  0
C  C169  1  0.27206279  0.34997673  0.02114331  1  -0.005542  0  -0.047144  -0.129327  0  4.001778  0
C  C170  1  0.62208809  0.52111618  0.65004388  1  0.012722  0  -0.047335  -0.129318  0  4.000392  0
C  C171  1  0.14309992  0.15005858  0.47885432  1  0.040452  0  -0.048342  -0.130462  0  4.001138  0
C  C172  1  0.70665041  0.02110079  0.15009565  1  0.024838  0  -0.047784  -0.130343  0  4.002377  0
C  C173  1  0.72793639  0.65002254  0.97885623  1  -0.005542  0  -0.047162  -0.129418  0  4.001858  0
C  C174  1  0.37791241  0.47888366  0.34995600  1  0.012732  0  -0.047346  -0.12937  0  4.000478  0
C  C175  1  0.85690138  0.84994126  0.52114573  1  0.039815  0  -0.048342  -0.130445  0  4.001049  0
C  C176  1  0.21091071  0.00712271  0.80084314  1  0.435727  0  0.078782  0.185746  0  4.055245  0
C  C177  1  0.21783923  0.30094584  0.99288652  1  0.441456  0  0.078491  0.183807  0  4.056975  0
C  C178  1  0.51876394  0.49289649  0.69905792  1  0.440346  0  0.077792  0.182543  0  4.054647  0
C  C179  1  0.01167115  0.19917410  0.50710582  1  0.411037  0  0.078827  0.183416  0  4.055655  0
C  C180  1  0.78908758  0.99287885  0.19915712  1  0.435696  0  0.078825  0.185874  0  4.055068  0
C  C181  1  0.78215934  0.69905514  0.00711374  1  0.441491  0  0.07853  0.183943  0  4.056953  0
C  C182  1  0.48123628  0.50710392  0.30094196  1  0.440352  0  0.077764  0.182541  0  4.054576  0
C  C183  1  0.98832855  0.80082574  0.49289388  1  0.411186  0  0.078793  0.183334  0  4.055659  0
C  C184  1  0.16044104  0.96525287  0.75441765  1  -0.094494  0  -0.233441  -0.419301  0  3.994844  0
C  C185  1  0.12556526  0.25446358  0.03472208  1  -0.066813  0  -0.23354  -0.419394  0  3.992775  0
C  C186  1  0.38000125  0.53475785  0.74550661  1  -0.054977  0  -0.232583  -0.417621  0  3.990669  0
C  C187  1  0.91477449  0.24561736  0.46524347  1  -0.034977  0  -0.232586  -0.418514  0  3.99523  0
C  C188  1  0.83955917  0.03474754  0.24558223  1  -0.094492  0  -0.23343  -0.419389  0  3.994895  0
C  C189  1  0.87443412  0.74553740  0.96527835  1  -0.067231  0  -0.233599  -0.419588  0  3.992877  0
C  C190  1  0.61999925  0.46524199  0.25449326  1  -0.054968  0  -0.232589  -0.417601  0  3.990651  0
C  C191  1  0.08522549  0.75438190  0.53475624  1  -0.035027  0  -0.232581  -0.418427  0  3.995171  0
C  C192  1  0.30880847  0.04428579  0.87755450  1  0.41358  0  0.084972  0.198849  0  4.033369  0
C  C193  1  0.35295919  0.37761441  0.95578416  1  0.438869  0  0.084696  0.199036  0  4.031402  0
C  C194  1  0.73058223  0.45572766  0.62240913  1  0.409894  0  0.085036  0.200258  0  4.028757  0
C  C195  1  0.18630134  0.12239742  0.54420234  1  0.425558  0  0.085501  0.20083  0  4.029896  0
C  C196  1  0.69119171  0.95571520  0.12244609  1  0.413561  0  0.085002  0.198899  0  4.033521  0
C  C197  1  0.64704102  0.62238600  0.04421572  1  0.438883  0  0.084739  0.199102  0  4.031396  0
C  C198  1  0.26941744  0.54427275  0.37759129  1  0.40971  0  0.085054  0.200305  0  4.028787  0
C  C199  1  0.81369916  0.87760242  0.45579753  1  0.426044  0  0.08551  0.200861  0  4.029912  0
C  C200  1  0.38878696  0.04990995  0.92994110  1  -0.055771  0  -0.232589  -0.414336  0  3.972395  0
C  C201  1  0.43863939  0.42997097  0.95014317  1  -0.085361  0  -0.23249  -0.415258  0  3.97224  0
C  C202  1  0.86860070  0.45006773  0.56997198  1  -0.052355  0  -0.23254  -0.415305  0  3.970234  0
C  C203  1  0.31867965  0.06997077  0.54983980  1  -0.057226  0  -0.232451  -0.414615  0  3.97092  0
C  C204  1  0.61121296  0.95009046  0.07006004  1  -0.0557  0  -0.232566  -0.414261  0  3.972517  0
C  C205  1  0.56136166  0.57002887  0.04985616  1  -0.085376  0  -0.232474  -0.415211  0  3.972258  0
C  C206  1  0.13139952  0.54993269  0.43002790  1  -0.052298  0  -0.232566  -0.415346  0  3.970254  0
C  C207  1  0.68132030  0.93002907  0.45016062  1  -0.057217  0  -0.232467  -0.414708  0  3.970946  0
N  N208  1  0.23952874  0.10703097  0.84656381  1  -0.774462  0  -0.293582  -0.272163  0  3.554782  0
N  N209  1  0.34650128  0.34662910  0.89301297  1  -0.773742  0  -0.293011  -0.272203  0  3.554968  0
N  N210  1  0.69305956  0.39298233  0.65339665  1  -0.779561  0  -0.29392  -0.274276  0  3.555116  0
N  N211  1  0.08612963  0.15342033  0.60697356  1  -0.789921  0  -0.294051  -0.274576  0  3.558129  0
N  N212  1  0.76046983  0.89297001  0.15343645  1  -0.774456  0  -0.293674  -0.272316  0  3.554945  0
N  N213  1  0.65349839  0.65337132  0.10698745  1  -0.77374  0  -0.293014  -0.272175  0  3.554956  0
N  N214  1  0.30694039  0.60701751  0.34660378  1  -0.779348  0  -0.293847  -0.274161  0  3.555085  0
N  N215  1  0.91387113  0.84657951  0.39302703  1  -0.789934  0  -0.294084  -0.274615  0  3.558245  0
N  N216  1  0.18014360  0.08432062  0.79945788  1  -0.814719  0  -0.295382  -0.275706  0  3.58116  0
N  N217  1  0.26436677  0.29954002  0.91569239  1  -0.813816  0  -0.295635  -0.274215  0  3.583822  0
N  N218  1  0.56382559  0.41569787  0.70047556  1  -0.804919  0  -0.29445  -0.272697  0  3.581566  0
N  N219  1  0.97961529  0.20056645  0.58429785  1  -0.806635  0  -0.295009  -0.27324  0  3.584497  0
N  N220  1  0.81985550  0.91568093  0.20054255  1  -0.814633  0  -0.295407  -0.275731  0  3.580869  0
N  N221  1  0.73563344  0.70046039  0.08430749  1  -0.813825  0  -0.295681  -0.274341  0  3.583923  0
N  N222  1  0.43617436  0.58430197  0.29952486  1  -0.804921  0  -0.294462  -0.272767  0  3.581541  0
N  N223  1  0.02038386  0.79943339  0.41570240  1  -0.806631  0  -0.294958  -0.27314  0  3.584481  0
O  O224  1  0.30511578  0.72161204  0.19366210  1  -1.177921  0  -0.334559  -0.566682  0  2.2996  0
O  O225  1  0.02672623  0.69361812  0.27835973  1  -1.17524  0  -0.333942  -0.566894  0  2.299727  0
O  O226  1  0.72029447  0.77839703  0.30638199  1  -1.171503  0  -0.334191  -0.566433  0  2.299336  0
O  O227  1  0.49873462  0.80648255  0.22148841  1  -1.175302  0  -0.333571  -0.56704  0  2.299967  0
O  O228  1  0.69488499  0.27838895  0.80633597  1  -1.177982  0  -0.334596  -0.566746  0  2.299517  0
O  O229  1  0.97327481  0.30638172  0.72163960  1  -1.175213  0  -0.333968  -0.566922  0  2.299766  0
O  O230  1  0.27970632  0.22160223  0.69361789  1  -1.171514  0  -0.334171  -0.56639  0  2.299305  0
O  O231  1  0.50126671  0.19351672  0.77851092  1  -1.175467  0  -0.333593  -0.567047  0  2.299975  0
O  O232  1  0.14335718  0.83052871  0.23288712  1  -1.177424  0  -0.338687  -0.573814  0  2.281371  0
O  O233  1  0.97376102  0.73291937  0.16949876  1  -1.181085  0  -0.33905  -0.574408  0  2.282647  0
O  O234  1  0.70665555  0.66951117  0.26710774  1  -1.180489  0  -0.338837  -0.573848  0  2.280647  0
O  O235  1  0.37637165  0.76710898  0.33037445  1  -1.18594  0  -0.339068  -0.57454  0  2.280531  0
O  O236  1  0.85664303  0.16947170  0.76711276  1  -1.177612  0  -0.338684  -0.573821  0  2.281358  0
O  O237  1  0.02624002  0.26707990  0.83050184  1  -1.181129  0  -0.339047  -0.574359  0  2.282714  0
O  O238  1  0.29334440  0.33048867  0.73289268  1  -1.180554  0  -0.338827  -0.573841  0  2.280659  0
O  O239  1  0.62362995  0.23289086  0.66962434  1  -1.18596  0  -0.338996  -0.574496  0  2.280576  0
