# generated using pymatgen
data_Co4H27C38(N3O5)3
_symmetry_space_group_name_H-M   'P 1'
_cell_length_a   12.20440350
_cell_length_b   15.50352338
_cell_length_c   16.02155651
_cell_angle_alpha   74.22691420
_cell_angle_beta   66.52281132
_cell_angle_gamma   67.42808629
_symmetry_Int_Tables_number   1
_chemical_formula_structural   Co4H27C38(N3O5)3
_chemical_formula_sum   'Co8 H54 C76 N18 O30'
_cell_volume   2542.08856285
_cell_formula_units_Z   2
loop_
 _symmetry_equiv_pos_site_id
 _symmetry_equiv_pos_as_xyz
  1  'x, y, z'
loop_
 _atom_site_type_symbol
 _atom_site_label
 _atom_site_symmetry_multiplicity
 _atom_site_fract_x
 _atom_site_fract_y
 _atom_site_fract_z
 _atom_site_occupancy
 _atom_site_pbe_bader_charge
 _atom_site_pbe_bader_spin_density
 _atom_site_pbe_cm5_charge
 _atom_site_pbe_ddec_charge
 _atom_site_pbe_ddec_spin_density
 _atom_site_pbe_ddec_sum_bond_order
 _atom_site_pbe_magmom
Co  Co0  1  0.22740352  0.67957532  0.03102648  1  1.309491  2.608796  0.705763  0.862813  2.850867  2.635723  2.593
Co  Co1  1  0.77274323  0.32034634  0.96885033  1  1.310419  2.60892  0.706032  0.863138  2.851123  2.637883  2.593
Co  Co2  1  0.03835263  0.63396463  0.26081265  1  1.218363  2.56487  0.696394  0.806858  2.743627  2.585333  2.504
Co  Co3  1  0.96174229  0.36593558  0.73923918  1  1.217358  2.565148  0.695912  0.806393  2.743824  2.584327  2.504
Co  Co4  1  0.43353360  0.66188976  0.80696175  1  1.254341  2.611096  0.658779  0.847537  2.833625  2.409679  2.589
Co  Co5  1  0.56646513  0.33817816  0.19305437  1  1.254889  2.610871  0.658475  0.847798  2.833566  2.409518  2.588
Co  Co6  1  0.05604114  0.02880896  0.21448761  1  1.190421  2.52767  0.664769  0.772586  2.71541  2.612849  2.48
Co  Co7  1  0.94400462  0.97112260  0.78546681  1  1.189832  2.527665  0.664814  0.772747  2.715324  2.613336  2.48
H  H8  1  0.64811952  0.83674481  0.83770176  1  0.077101  0.000873  0.104068  0.111706  0.000417  1.023328  0.0
H  H9  1  0.35194927  0.16315834  0.16226039  1  0.077085  0.000872  0.104134  0.111788  0.000416  1.023362  0.0
H  H10  1  0.64280042  0.91964292  0.07608781  1  0.097037  0.000554  0.114319  0.134536  0.000314  0.984658  0.0
H  H11  1  0.35702282  0.08049579  0.92381942  1  0.100061  0.000553  0.114524  0.134769  0.000313  0.984154  0.0
H  H12  1  0.40467071  0.75939065  0.10459189  1  0.089692  0.000209  0.10752  0.120583  -3e-05  1.04261  0.0
H  H13  1  0.59531295  0.24059252  0.89538190  1  0.089869  0.000215  0.107437  0.120404  -2.6e-05  1.042683  0.0
H  H14  1  0.39365425  0.74151105  0.26383277  1  0.058638  6.3e-05  0.115279  0.094466  -3e-06  0.938478  0.0
H  H15  1  0.60646731  0.25852127  0.73612189  1  0.058106  6.5e-05  0.11527  0.094346  -2e-06  0.938538  0.0
H  H16  1  0.29499004  0.84341203  0.21497402  1  0.086032  0.000409  0.105191  0.074112  0.000255  1.028938  0.0
H  H17  1  0.70497149  0.15652965  0.78497679  1  0.086244  0.000413  0.105332  0.074422  0.000258  1.028614  0.0
H  H18  1  0.41928252  0.95242855  0.29506097  1  0.112031  0.000159  0.112227  0.118284  6.6e-05  0.999159  0.0
H  H19  1  0.58061423  0.04769627  0.70482779  1  0.119947  0.000157  0.112144  0.118221  6.5e-05  0.999156  0.0
H  H20  1  0.31980032  0.01904655  0.44240355  1  0.085407  3e-05  0.110985  0.113864  -6e-06  0.992863  0.0
H  H21  1  0.68017127  0.98098702  0.55753376  1  0.085223  3.2e-05  0.111068  0.114096  -5e-06  0.992467  0.0
H  H22  1  0.07315621  0.84776235  0.54569273  1  0.108168  8.7e-05  0.104938  0.10665  -6.5e-05  1.023649  0.0
H  H23  1  0.92693040  0.15222931  0.45424008  1  0.107367  8.6e-05  0.104856  0.106377  -6.5e-05  1.023585  0.0
H  H24  1  0.17914940  0.77647269  0.40117706  1  0.056898  -1.5e-05  0.105104  0.108462  -7.3e-05  0.999505  0.0
H  H25  1  0.82085246  0.22357911  0.59873479  1  0.05862  -1.5e-05  0.10511  0.10843  -7.3e-05  0.999191  0.0
H  H26  1  0.19762170  0.47553445  0.79995822  1  0.120442  0.000845  0.106698  0.116352  0.000385  1.013825  0.0
H  H27  1  0.80227357  0.52448051  0.20017194  1  0.11886  0.000849  0.106896  0.116681  0.000384  1.013745  0.0
H  H28  1  0.02108962  0.32091419  0.05291134  1  0.073924  0.000182  0.105678  0.119866  -5.1e-05  1.029223  0.0
H  H29  1  0.97867365  0.67917985  0.94723470  1  0.07534  0.00018  0.105544  0.119563  -5.2e-05  1.029057  0.0
H  H30  1  0.26364026  0.46514815  0.04824134  1  0.11683  0.000217  0.111227  0.126426  -0.000166  1.026705  0.0
H  H31  1  0.73630776  0.53485412  0.95185004  1  0.116298  0.000217  0.111199  0.126332  -0.000164  1.026363  0.0
H  H32  1  0.06975769  0.24281783  0.19568780  1  0.069748  0.000161  0.099387  0.072842  -1.4e-05  1.015835  0.0
H  H33  1  0.92999005  0.75716421  0.80440974  1  0.068727  0.00016  0.09929  0.072858  -1.6e-05  1.016081  0.0
H  H34  1  0.95014696  0.35610129  0.20357464  1  0.07233  6.9e-05  0.102697  0.076487  -1.6e-05  0.992411  0.0
H  H35  1  0.04963136  0.64392771  0.79654823  1  0.072604  6.8e-05  0.102871  0.076462  -1.6e-05  0.992169  0.0
H  H36  1  0.17046550  0.17035435  0.31260602  1  0.107541  0.000238  0.100679  0.110867  -1.6e-05  1.022138  0.0
H  H37  1  0.82937882  0.82959147  0.68749735  1  0.109887  0.000239  0.100767  0.1111  -1.5e-05  1.022111  0.0
H  H38  1  0.18874459  0.17612334  0.46217640  1  0.09066  0.000135  0.092328  0.091775  2.3e-05  1.054228  0.0
H  H39  1  0.81140549  0.82393731  0.53778450  1  0.093604  0.000135  0.092359  0.091795  2.5e-05  1.05426  0.0
H  H40  1  0.93100436  0.45766319  0.46801241  1  0.098952  0.00048  0.105187  0.11627  6.4e-05  1.003106  0.0
H  H41  1  0.06915658  0.54240563  0.53195632  1  0.099371  0.000481  0.105098  0.11634  6.4e-05  1.003127  0.0
H  H42  1  0.91584643  0.45455101  0.31822403  1  0.06718  0.000312  0.105527  0.112889  6.2e-05  1.008597  0.0
H  H43  1  0.08399811  0.54541139  0.68189635  1  0.06665  0.000313  0.105365  0.112758  6.4e-05  1.008507  0.0
H  H44  1  0.18598074  0.90582554  0.04773244  1  0.196519  0.000938  0.143513  0.120294  2.4e-05  0.980055  0.001
H  H45  1  0.81403306  0.09411192  0.95232867  1  0.195339  0.000938  0.143712  0.120565  2.4e-05  0.980013  0.001
H  H46  1  0.99309145  0.82965841  0.32621204  1  0.152293  0.000877  0.133467  0.094066  -2e-06  1.046201  0.001
H  H47  1  0.00689988  0.17024762  0.67380871  1  0.152739  0.000879  0.133489  0.094155  -0.0  1.046292  0.001
H  H48  1  0.24481489  0.43153005  0.32008136  1  0.135041  0.000675  0.135225  0.093786  -6.8e-05  0.993985  0.0
H  H49  1  0.75506762  0.56842438  0.67977251  1  0.135106  0.000675  0.135207  0.094046  -7e-05  0.993637  0.0
H  H50  1  0.48189697  0.51899603  0.06272416  1  0.166644  0.000586  0.137222  0.108608  -0.000174  1.019607  0.001
H  H51  1  0.51811980  0.48093593  0.93717390  1  0.16691  0.000581  0.137315  0.108574  -0.000175  1.01944  0.001
H  H52  1  0.23957932  0.83541720  0.70300685  1  0.135743  0.000766  0.133773  0.09907  -8.7e-05  0.998922  0.001
H  H53  1  0.76045304  0.16470957  0.29677977  1  0.137905  0.000771  0.13386  0.099411  -8.1e-05  0.998684  0.001
H  H54  1  0.99434162  0.86303450  0.97455477  1  0.177997  0.000725  0.141617  0.117303  -0.000102  0.979964  0.001
H  H55  1  0.00578669  0.13676858  0.02529541  1  0.158919  0.000725  0.141813  0.117285  -0.000102  0.979586  0.001
H  H56  1  0.15027195  0.05050804  0.65916683  1  0.632273  0.000144  0.342769  0.379595  7.1e-05  0.877632  0.0
H  H57  1  0.84975727  0.94938541  0.34087072  1  0.631516  0.000143  0.342671  0.379618  7.3e-05  0.878092  0.0
H  H58  1  0.55578309  0.76813598  0.69197393  1  0.642047  -0.000107  0.329033  0.417525  -0.000237  0.872409  0.0
H  H59  1  0.44425429  0.23217930  0.30892884  1  0.610142  -9.2e-05  0.328546  0.416679  -0.000232  0.87582  0.0
H  H60  1  0.57384736  0.70923153  0.61942816  1  0.59859  0.00174  0.340913  0.420799  0.000775  0.850113  0.001
H  H61  1  0.42638978  0.29114370  0.38133318  1  0.598754  0.001836  0.341395  0.421087  0.000818  0.849743  0.001
C  C62  1  0.46950676  0.74463868  0.93144700  1  1.536187  0.004049  0.217106  0.598444  0.002246  4.148562  0.004
C  C63  1  0.53048350  0.25544075  0.06850386  1  1.536887  0.003898  0.217294  0.59928  0.002119  4.145803  0.004
C  C64  1  0.51977175  0.79533633  0.96798933  1  0.032758  0.008253  -0.019212  -0.011716  0.004375  3.988192  0.006
C  C65  1  0.48017772  0.20469308  0.03201368  1  0.032981  0.008341  -0.019227  -0.011714  0.004419  3.987041  0.006
C  C66  1  0.61049009  0.83886013  0.91137347  1  -0.013201  0.003701  -0.081766  -0.120734  0.002011  3.933121  0.002
C  C67  1  0.38951887  0.16110245  0.08859791  1  -0.012972  0.00361  -0.081602  -0.120783  0.001964  3.933487  0.002
C  C68  1  0.65536287  0.88240110  0.95148356  1  0.002864  0.002446  -0.019296  -0.021189  0.001331  4.023611  0.001
C  C69  1  0.34462542  0.11757297  0.04848550  1  0.005566  0.002465  -0.01963  -0.021482  0.001344  4.023824  0.001
C  C70  1  0.60753070  0.88499606  0.04614852  1  0.022177  0.001758  -0.082433  -0.185201  0.00092  3.920654  0.001
C  C71  1  0.39231673  0.11510195  0.95379288  1  0.017039  0.00168  -0.08255  -0.185381  0.000872  3.920332  0.001
C  C72  1  0.51469782  0.84300846  0.10198757  1  0.4375  0.000718  0.084204  0.257472  0.00022  4.080163  0.001
C  C73  1  0.48521213  0.15705356  0.89797101  1  0.42977  0.000733  0.084109  0.257354  0.00023  4.08099  0.001
C  C74  1  0.47272931  0.79652397  0.06331367  1  -0.016012  0.002132  -0.096605  -0.222466  0.001091  3.954017  0.001
C  C75  1  0.52721616  0.20348036  0.93668183  1  -0.021116  0.002067  -0.096423  -0.222003  0.001057  3.954029  0.001
C  C76  1  0.75833830  0.92354859  0.89602621  1  1.493764  0.000938  0.200606  0.548566  -0.000212  4.178284  -0.002
C  C77  1  0.24173317  0.07631960  0.10392765  1  1.486704  0.000931  0.200402  0.54814  -0.000214  4.177797  -0.002
C  C78  1  0.36508542  0.81942438  0.25033376  1  0.42935  0.000298  -0.053615  -0.020822  0.000182  3.91649  0.0
C  C79  1  0.63485770  0.18062791  0.74964170  1  0.430518  0.000299  -0.053876  -0.020777  0.000183  3.916725  0.0
C  C80  1  0.30606310  0.86044470  0.33872169  1  0.005047  -0.0001  0.008513  0.115827  -0.000279  3.933576  0.0
C  C81  1  0.69386326  0.13963195  0.66122959  1  0.003505  -5.9e-05  0.008697  0.115926  -0.000233  3.932371  0.0
C  C82  1  0.34462188  0.92920513  0.35055136  1  -0.058222  0.000719  -0.081893  -0.118553  0.000242  3.9496  0.001
C  C83  1  0.65533519  0.07087604  0.64935154  1  -0.063373  0.000707  -0.081992  -0.118631  0.000236  3.948863  0.001
C  C84  1  0.28830440  0.96686133  0.43247340  1  0.067155  -0.00024  -0.072534  -0.068692  -0.000703  3.952397  0.0
C  C85  1  0.71169492  0.03318143  0.56743523  1  0.067664  -0.000206  -0.072777  -0.069368  -0.000673  3.952155  0.0
C  C86  1  0.18989424  0.93807671  0.50292617  1  -0.044879  0.00371  -0.025049  -0.071016  0.001609  4.027761  0.003
C  C87  1  0.81015845  0.06191758  0.49699676  1  -0.045525  0.003683  -0.02478  -0.0706  0.001595  4.027529  0.003
C  C88  1  0.14925204  0.87022719  0.49075582  1  -0.075885  -0.000504  -0.076093  -0.065548  -0.000799  3.949993  0.0
C  C89  1  0.85079862  0.12977392  0.50918224  1  -0.075741  -0.000473  -0.076132  -0.065609  -0.000766  3.948763  0.0
C  C90  1  0.20844323  0.83103127  0.40954278  1  -0.00366  0.000335  -0.087442  -0.142701  0.000137  3.966788  0.0
C  C91  1  0.79153456  0.16900004  0.59040073  1  -0.006269  0.000324  -0.087476  -0.142714  0.000133  3.966007  0.0
C  C92  1  0.13079476  0.97663236  0.58982319  1  1.419292  -0.002599  0.239431  0.572495  -0.004118  4.099318  -0.001
C  C93  1  0.86926390  0.02330655  0.41014614  1  1.420136  -0.002518  0.239721  0.573526  -0.004024  4.099051  -0.001
C  C94  1  0.30941385  0.54614260  0.87335254  1  1.487365  -0.001123  0.205458  0.569974  -0.003057  4.139744  -0.002
C  C95  1  0.69051876  0.45386405  0.12658691  1  1.487584  -0.001102  0.20527  0.57057  -0.003038  4.139669  -0.002
C  C96  1  0.23826247  0.47761387  0.91912538  1  -0.047377  0.004293  -0.021549  -0.018343  0.002194  4.014722  0.003
C  C97  1  0.76161078  0.52243576  0.08099894  1  -0.046267  0.004288  -0.022153  -0.019737  0.002193  4.016653  0.003
C  C98  1  0.18297184  0.45076267  0.87277593  1  -0.07434  -0.000229  -0.086072  -0.13298  -0.000989  3.943819  0.0
C  C99  1  0.81690716  0.54926146  0.12736304  1  -0.071799  -0.00023  -0.085977  -0.13331  -0.000985  3.944351  0.0
C  C100  1  0.10456503  0.39500442  0.92237020  1  0.048277  0.009455  -0.018688  -0.012437  0.004736  4.000395  0.008
C  C101  1  0.89534524  0.60499582  0.07774731  1  0.042054  0.009492  -0.018619  -0.011802  0.004752  4.000751  0.008
C  C102  1  0.08473877  0.36274941  0.01653162  1  -0.011753  -0.001996  -0.095091  -0.2167  -0.002774  3.939422  -0.001
C  C103  1  0.91506959  0.63731063  0.98360323  1  -0.008743  -0.001985  -0.095076  -0.216401  -0.002761  3.938591  -0.001
C  C104  1  0.14543824  0.38627792  0.06072440  1  0.479634  0.001317  0.083671  0.256072  0.000574  4.087103  0.001
C  C105  1  0.85440182  0.61376787  0.93940143  1  0.480469  0.001322  0.083632  0.255787  0.000577  4.087967  0.001
C  C106  1  0.22129421  0.44415959  0.01199335  1  0.023564  -0.002027  -0.086919  -0.18149  -0.002773  3.910349  -0.001
C  C107  1  0.77857416  0.55588446  0.98813320  1  0.021147  -0.002022  -0.086547  -0.180666  -0.002769  3.910532  -0.001
C  C108  1  0.03362370  0.37336078  0.87784866  1  1.513539  -0.000556  0.221031  0.594984  -0.001582  4.132755  0.002
C  C109  1  0.96653447  0.62652356  0.12213271  1  1.514329  -0.000605  0.221021  0.594531  -0.001618  4.135036  0.002
C  C110  1  0.04235804  0.31438517  0.21182432  1  0.375851  -5.3e-05  -0.059941  -0.020149  -9e-05  3.891131  0.0
C  C111  1  0.95742123  0.68559557  0.78829035  1  0.377914  -5.4e-05  -0.060277  -0.02048  -9.2e-05  3.892171  0.0
C  C112  1  0.04194238  0.31210609  0.30625037  1  0.028278  0.001006  -0.013014  0.089227  0.000463  3.978582  0.001
C  C113  1  0.95786744  0.68784967  0.69387205  1  0.029629  0.001007  -0.012759  0.089679  0.000464  3.978198  0.001
C  C114  1  0.11888949  0.23339854  0.34668812  1  -0.132623  0.000677  -0.092867  -0.138794  0.000278  3.978432  0.0
C  C115  1  0.88101454  0.76657443  0.65337877  1  -0.136507  0.000678  -0.092959  -0.139441  0.000278  3.978661  0.0
C  C116  1  0.12917953  0.23619921  0.42946112  1  -0.044883  0.002002  -0.099643  -0.120257  0.000987  4.024866  0.001
C  C117  1  0.87087960  0.76382136  0.57053322  1  -0.046265  0.002005  -0.09961  -0.120213  0.00099  4.024922  0.001
C  C118  1  0.06153997  0.31691591  0.47363595  1  -0.041155  0.003788  -0.029397  -0.050303  0.001857  3.998924  0.003
C  C119  1  0.93855338  0.68311290  0.52634236  1  -0.038227  0.003773  -0.029181  -0.049766  0.001849  3.998986  0.003
C  C120  1  0.98284742  0.39497617  0.43388360  1  -0.03912  0.001715  -0.083899  -0.084184  0.000872  3.967746  0.001
C  C121  1  0.01720704  0.60505538  0.56613186  1  -0.042234  0.001715  -0.084261  -0.085162  0.000872  3.968405  0.001
C  C122  1  0.97401696  0.39260407  0.35049155  1  -0.056727  0.000476  -0.084418  -0.129701  0.00023  3.956705  0.0
C  C123  1  0.02588812  0.60738128  0.64959191  1  -0.05745  0.000474  -0.084105  -0.129028  0.000228  3.955515  0.0
C  C124  1  0.07220514  0.31597224  0.56412315  1  1.542908  0.00416  0.191858  0.552079  0.003517  4.238112  0.002
C  C125  1  0.92794316  0.68399353  0.43585765  1  1.541217  0.004174  0.191443  0.551786  0.003522  4.238567  0.002
C  C126  1  0.14098784  0.86712187  0.11129490  1  0.944625  0.005884  0.148395  0.15973  0.003004  3.938649  0.006
C  C127  1  0.85903255  0.13277801  0.88874118  1  0.947087  0.005825  0.148321  0.159494  0.002972  3.937966  0.006
C  C128  1  0.04296188  0.82993140  0.25303366  1  0.936092  0.009354  0.132873  0.122319  0.006322  4.002044  0.01
C  C129  1  0.95704397  0.16996955  0.74698777  1  0.933289  0.009378  0.132538  0.121604  0.006331  4.003568  0.01
C  C130  1  0.28124306  0.46918525  0.25272602  1  0.971381  0.007546  0.147969  0.163899  0.004978  3.958217  0.009
C  C131  1  0.71871320  0.53077983  0.74715872  1  0.980995  0.007394  0.147631  0.162812  0.004906  3.958295  0.009
C  C132  1  0.40001292  0.51387359  0.12185280  1  0.956742  0.006134  0.144641  0.167253  0.00391  3.92539  0.007
C  C133  1  0.59999767  0.48610359  0.87807512  1  0.955721  0.006044  0.143996  0.166938  0.003859  3.926064  0.007
C  C134  1  0.20007580  0.82724176  0.77736278  1  0.969128  0.005673  0.138683  0.143052  0.004057  3.969622  0.008
C  C135  1  0.80003943  0.17278373  0.22243255  1  0.965239  0.00577  0.138456  0.142645  0.004124  3.971374  0.008
C  C136  1  0.07675641  0.84098839  0.91565322  1  0.969633  0.003108  0.143987  0.154351  0.001189  3.952282  0.003
C  C137  1  0.92335835  0.15891689  0.08416795  1  0.987652  0.003103  0.143942  0.154951  0.001189  3.951338  0.003
N  N138  1  0.13682493  0.78069447  0.11991330  1  -0.743454  0.073409  -0.240959  -0.209424  0.039368  3.528096  0.063
N  N139  1  0.86324499  0.21918475  0.88010568  1  -0.745802  0.073647  -0.241129  -0.209212  0.039462  3.528279  0.063
N  N140  1  0.07273010  0.75701148  0.21081803  1  -0.774698  0.070354  -0.258106  -0.200939  0.036411  3.582198  0.049
N  N141  1  0.92733052  0.24286638  0.78920594  1  -0.772167  0.070277  -0.257751  -0.200362  0.036385  3.582194  0.048
N  N142  1  0.08340869  0.90114992  0.19341250  1  -1.25576  0.072177  -0.38051  -0.377459  0.037334  3.678359  0.047
N  N143  1  0.91659132  0.09875876  0.80661186  1  -1.254624  0.07214  -0.380193  -0.377109  0.037318  3.678608  0.047
N  N144  1  0.28496951  0.57297798  0.12984245  1  -0.7665  0.057214  -0.256231  -0.224738  0.031438  3.551014  0.048
N  N145  1  0.71505211  0.42698449  0.87002531  1  -0.766372  0.057045  -0.255701  -0.224712  0.031349  3.551041  0.048
N  N146  1  0.20853551  0.54510851  0.21464247  1  -0.776365  0.081767  -0.267008  -0.21983  0.042051  3.599875  0.057
N  N147  1  0.79149055  0.45490422  0.78523636  1  -0.785251  0.081646  -0.266628  -0.219421  0.041971  3.599165  0.057
N  N148  1  0.40272472  0.44720184  0.19693683  1  -1.223843  0.059897  -0.36139  -0.357559  0.03181  3.557029  0.045
N  N149  1  0.59723780  0.55279454  0.80301125  1  -1.223634  0.059676  -0.361142  -0.357293  0.031694  3.556654  0.044
N  N150  1  0.18361039  0.77524221  0.92051619  1  -0.759293  0.058322  -0.246972  -0.208934  0.03106  3.514042  0.05
N  N151  1  0.81658256  0.22475656  0.07927137  1  -0.75809  0.058515  -0.246829  -0.208375  0.031168  3.513164  0.05
N  N152  1  0.26297104  0.76656237  0.83159084  1  -0.774316  0.060795  -0.25131  -0.195187  0.03264  3.518318  0.046
N  N153  1  0.73716837  0.23347839  0.16819470  1  -0.774258  0.060569  -0.251783  -0.196914  0.032536  3.517999  0.046
N  N154  1  0.08203154  0.87580679  0.82694591  1  -1.251332  0.076093  -0.378459  -0.371442  0.039147  3.650163  0.052
N  N155  1  0.91806160  0.12414673  0.17290211  1  -1.250558  0.075946  -0.37825  -0.371387  0.039074  3.650312  0.051
O  O156  1  0.39641955  0.70021840  0.99156851  1  -1.179675  0.07819  -0.314983  -0.573598  0.040206  2.454507  0.065
O  O157  1  0.60415149  0.29934029  0.00830617  1  -1.1799  0.078732  -0.314502  -0.573542  0.040518  2.456146  0.065
O  O158  1  0.50210729  0.74669549  0.84480264  1  -1.147786  0.083928  -0.317151  -0.566124  0.043042  2.289926  0.072
O  O159  1  0.49732237  0.25389249  0.15512654  1  -1.147755  0.083657  -0.317885  -0.5665  0.042877  2.287745  0.072
O  O160  1  0.80103795  0.92794822  0.80689916  1  -1.101094  0.117422  -0.318722  -0.521591  0.058811  2.258198  0.091
O  O161  1  0.19911780  0.07184604  0.19305990  1  -1.100872  0.117413  -0.318595  -0.521258  0.058795  2.257927  0.091
O  O162  1  0.80919435  0.95185391  0.93402976  1  -1.162397  0.079256  -0.303807  -0.535188  0.039131  2.196991  0.07
O  O163  1  0.19088027  0.04801805  0.06590224  1  -1.15705  0.079255  -0.303718  -0.534891  0.039146  2.196269  0.07
O  O164  1  0.03076082  0.96605503  0.64844203  1  -1.158368  0.052848  -0.27943  -0.494873  0.027283  2.427312  0.041
O  O165  1  0.96940794  0.03371636  0.35158878  1  -1.158456  0.052773  -0.279757  -0.495297  0.027227  2.426394  0.04
O  O166  1  0.19554236  0.02317966  0.60165681  1  -1.125093  0.001067  -0.311611  -0.45575  0.000147  2.291933  0.001
O  O167  1  0.80439770  0.97690564  0.39826573  1  -1.125564  0.001091  -0.311569  -0.456238  0.000163  2.292259  0.001
O  O168  1  0.47093431  0.85052702  0.19357509  1  -1.091827  0.000352  -0.174461  -0.191118  0.0001  2.554214  0.0
O  O169  1  0.52895264  0.14962740  0.80636038  1  -1.078958  0.000355  -0.174328  -0.191376  0.000102  2.554948  0.0
O  O170  1  0.33273565  0.58430658  0.92473824  1  -1.158837  0.11409  -0.310957  -0.584731  0.060931  2.491472  0.099
O  O171  1  0.66728646  0.41580515  0.07508017  1  -1.160017  0.113808  -0.310772  -0.584886  0.060756  2.490439  0.099
O  O172  1  0.34915036  0.56842643  0.78684538  1  -1.126257  0.0838  -0.31534  -0.535585  0.042289  2.12505  0.072
O  O173  1  0.65072467  0.43146316  0.21309123  1  -1.125271  0.084064  -0.315181  -0.535699  0.042429  2.125876  0.072
O  O174  1  0.07070637  0.38443557  0.78932525  1  -1.105909  0.098514  -0.315708  -0.528556  0.049264  2.332787  0.073
O  O175  1  0.92951591  0.61551056  0.21064587  1  -1.105402  0.098582  -0.316071  -0.528689  0.049307  2.334886  0.073
O  O176  1  0.93975666  0.34577775  0.92938618  1  -1.180656  0.092275  -0.305754  -0.568477  0.047899  2.455845  0.077
O  O177  1  0.06052172  0.65391003  0.07046740  1  -1.181148  0.09208  -0.30555  -0.568249  0.047793  2.456248  0.077
O  O178  1  0.15067024  0.24908518  0.59450354  1  -1.170844  0.023101  -0.342579  -0.566326  0.011091  2.086608  0.017
O  O179  1  0.84950386  0.75085998  0.40542540  1  -1.169379  0.023129  -0.342312  -0.566112  0.011107  2.086262  0.017
O  O180  1  0.99136055  0.38640312  0.60867535  1  -1.139194  0.113864  -0.33629  -0.557543  0.056478  2.347885  0.087
O  O181  1  0.00875590  0.61350101  0.39137969  1  -1.140186  0.113808  -0.336205  -0.557757  0.056445  2.348272  0.087
O  O182  1  0.13531988  0.35973029  0.15114808  1  -1.068903  0.000552  -0.178507  -0.199683  0.000189  2.542731  0.0
O  O183  1  0.86449905  0.64025130  0.84897452  1  -1.069855  0.000551  -0.178708  -0.199657  0.000189  2.544677  0.0
O  O184  1  0.51193000  0.74085652  0.67175637  1  -1.188319  0.041168  -0.547039  -0.734133  0.020947  2.04204  0.032
O  O185  1  0.48811275  0.25978636  0.32876633  1  -1.15666  0.040778  -0.546411  -0.733512  0.020769  2.044685  0.031
