# generated using pymatgen
data_DyH6(C2O3)3
_symmetry_space_group_name_H-M   'P 1'
_cell_length_a   8.24023295
_cell_length_b   8.52738529
_cell_length_c   8.90676857
_cell_angle_alpha   93.57217011
_cell_angle_beta   116.84730616
_cell_angle_gamma   112.17303527
_symmetry_Int_Tables_number   1
_chemical_formula_structural   DyH6(C2O3)3
_chemical_formula_sum   'Dy2 H12 C12 O18'
_cell_volume   496.16299519
_cell_formula_units_Z   2
loop_
 _symmetry_equiv_pos_site_id
 _symmetry_equiv_pos_as_xyz
  1  'x, y, z'
loop_
 _atom_site_type_symbol
 _atom_site_label
 _atom_site_symmetry_multiplicity
 _atom_site_fract_x
 _atom_site_fract_y
 _atom_site_fract_z
 _atom_site_occupancy
 _atom_site_hle17_bader_spin_density
 _atom_site_hle17_ddec_charge
 _atom_site_hle17_ddec_spin_density
 _atom_site_hle17_ddec_sum_bond_order
 _atom_site_hle17_magmom
 _atom_site_hse06_10hf_bader_spin_density
 _atom_site_hse06_10hf_ddec_charge
 _atom_site_hse06_10hf_ddec_spin_density
 _atom_site_hse06_10hf_ddec_sum_bond_order
 _atom_site_hse06_10hf_magmom
 _atom_site_hse06_bader_spin_density
 _atom_site_hse06_ddec_charge
 _atom_site_hse06_ddec_spin_density
 _atom_site_hse06_ddec_sum_bond_order
 _atom_site_hse06_magmom
 _atom_site_pbe_bader_spin_density
 _atom_site_pbe_cm5_charge
 _atom_site_pbe_ddec_charge
 _atom_site_pbe_ddec_spin_density
 _atom_site_pbe_ddec_sum_bond_order
 _atom_site_pbe_magmom
Dy  Dy0  1  0.08978588  0.51923792  0.77253491  1  0  2.32864  0  1.538803  0  0  2.254839  0  1.855604  0  0  2.301652  0  1.814574  0  0  1.505298  2.140799  0  2.034741  0
Dy  Dy1  1  0.91021057  0.48075873  0.22746302  1  0  2.328628  0  1.538783  0  0  2.25482  0  1.855588  0  0  2.301632  0  1.814559  0  0  1.505315  2.140824  0  2.034651  0
H  H2  1  0.16315908  0.22761556  0.90449431  1  0  0.43324  0  0.864126  0  0  0.4011  0  0.928527  0  0  0.41301  0  0.911013  0  0  0.302496  0.392624  0  0.940716  0
H  H3  1  0.83683670  0.77237716  0.09550195  1  0  0.433141  0  0.864216  0  0  0.401023  0  0.928584  0  0  0.412929  0  0.911074  0  0  0.302467  0.392549  0  0.940768  0
H  H4  1  0.35777545  0.40074784  0.06243023  1  0  0.452431  0  0.838131  0  0  0.424278  0  0.895291  0  0  0.435033  0  0.879736  0  0  0.308622  0.416118  0  0.906968  0
H  H5  1  0.64222234  0.59924887  0.93756489  1  0  0.452435  0  0.838135  0  0  0.424274  0  0.895303  0  0  0.435043  0  0.879729  0  0  0.308627  0.416112  0  0.906983  0
H  H6  1  0.20392484  0.80041995  0.61367011  1  0  0.433955  0  0.873099  0  0  0.401073  0  0.940737  0  0  0.411846  0  0.925182  0  0  0.299601  0.393373  0  0.951499  0
H  H7  1  0.79607082  0.19958332  0.38632011  1  0  0.433956  0  0.873098  0  0  0.401097  0  0.94071  0  0  0.411871  0  0.925154  0  0  0.29961  0.3934  0  0.951468  0
H  H8  1  0.97487756  0.82307841  0.79597401  1  0  0.443567  0  0.849218  0  0  0.413008  0  0.910874  0  0  0.423947  0  0.894726  0  0  0.296365  0.404759  0  0.922933  0
H  H9  1  0.02512023  0.17692090  0.20402354  1  0  0.443506  0  0.849305  0  0  0.412962  0  0.910929  0  0  0.423899  0  0.894785  0  0  0.296362  0.404708  0  0.922998  0
H  H10  1  0.90642535  0.69349068  0.90315363  1  0  0.442905  0  0.854014  0  0  0.41457  0  0.912659  0  0  0.425342  0  0.896884  0  0  0.297817  0.406527  0  0.924195  0
H  H11  1  0.09357587  0.30650737  0.09684411  1  0  0.442953  0  0.85396  0  0  0.414603  0  0.912632  0  0  0.425376  0  0.896855  0  0  0.297845  0.406563  0  0.924163  0
H  H12  1  0.30758287  0.90475482  0.81282768  1  0  0.450011  0  0.79587  0  0  0.432037  0  0.850291  0  0  0.440134  0  0.841033  0  0  0.332962  0.425783  0  0.856733  0
H  H13  1  0.69242450  0.09524464  0.18717268  1  0  0.45001  0  0.79586  0  0  0.432037  0  0.850278  0  0  0.440135  0  0.84102  0  0  0.33296  0.425785  0  0.856717  0
C  C14  1  0.34343871  0.71865162  0.19034530  1  0  0.783711  0  3.930376  0  0  0.737009  0  4.217311  0  0  0.77601  0  4.198342  0  0  0.242613  0.709461  0  4.226006  0
C  C15  1  0.65656043  0.28135550  0.80965898  1  0  0.78369  0  3.930321  0  0  0.737103  0  4.217064  0  0  0.776085  0  4.19813  0  0  0.242696  0.709562  0  4.225752  0
C  C16  1  0.33313772  0.50513720  0.61243158  1  0  0.761746  0  3.924738  0  0  0.711883  0  4.215819  0  0  0.749777  0  4.198928  0  0  0.237703  0.686194  0  4.219134  0
C  C17  1  0.66686284  0.49485950  0.38756917  1  0  0.761774  0  3.924847  0  0  0.711881  0  4.215958  0  0  0.749796  0  4.199035  0  0  0.237675  0.686193  0  4.219276  0
C  C18  1  0.89439984  0.06260964  0.62254735  1  0  0.75675  0  3.923505  0  0  0.702306  0  4.219844  0  0  0.739809  0  4.204528  0  0  0.237875  0.676127  0  4.228837  0
C  C19  1  0.10560691  0.93739358  0.37746763  1  0  0.756556  0  3.92375  0  0  0.702139  0  4.220034  0  0  0.739646  0  4.204715  0  0  0.237859  0.675968  0  4.229015  0
C  C20  1  0.53395461  0.83120237  0.35134474  1  0  -0.095488  0  3.641259  0  0  -0.09524  0  3.896649  0  0  -0.097832  0  3.913864  0  0  -0.008655  -0.094953  0  3.888095  0
C  C21  1  0.46604524  0.16880083  0.64865955  1  0  -0.09547  0  3.641267  0  0  -0.095257  0  3.896623  0  0  -0.097842  0  3.913845  0  0  -0.0087  -0.094976  0  3.888078  0
C  C22  1  0.45390624  0.50201018  0.53666978  1  0  -0.098838  0  3.646762  0  0  -0.100185  0  3.903886  0  0  -0.104035  0  3.921649  0  0  -0.001805  -0.098655  0  3.894027  0
C  C23  1  0.54610860  0.49799856  0.46333318  1  0  -0.098682  0  3.646778  0  0  -0.099986  0  3.903861  0  0  -0.103846  0  3.921618  0  0  -0.001648  -0.098449  0  3.893997  0
C  C24  1  0.69953725  0.92739414  0.48102455  1  0  -0.146292  0  3.658355  0  0  -0.148005  0  3.917616  0  0  -0.152583  0  3.935798  0  0  -0.026183  -0.145754  0  3.907733  0
C  C25  1  0.30047013  0.07261048  0.51898292  1  0  -0.146259  0  3.658456  0  0  -0.147988  0  3.917707  0  0  -0.152567  0  3.935884  0  0  -0.026175  -0.145739  0  3.907835  0
O  O26  1  0.39799386  0.51660998  0.77402863  1  0  -0.65666  0  1.979858  0  0  -0.613102  0  2.203805  0  0  -0.6378  0  2.191681  0  0  -0.317322  -0.588342  0  2.2132  0
O  O27  1  0.60201494  0.48338422  0.22597531  1  0  -0.656679  0  1.979826  0  0  -0.613137  0  2.203829  0  0  -0.637842  0  2.191698  0  0  -0.317354  -0.588383  0  2.213219  0
O  O28  1  0.20864542  0.34878098  0.97314997  1  0  -0.919664  0  1.939732  0  0  -0.871135  0  2.120581  0  0  -0.892375  0  2.088198  0  0  -0.611578  -0.846733  0  2.147939  0
O  O29  1  0.79135240  0.65121310  0.02684609  1  0  -0.919566  0  1.939794  0  0  -0.871048  0  2.120672  0  0  -0.892297  0  2.088264  0  0  -0.611551  -0.846654  0  2.148028  0
O  O30  1  0.35562295  0.70868699  0.05325772  1  0  -0.687472  0  1.960846  0  0  -0.647979  0  2.195106  0  0  -0.673094  0  2.1811  0  0  -0.375135  -0.620426  0  2.207724  0
O  O31  1  0.64436731  0.29131607  0.94674263  1  0  -0.687443  0  1.960833  0  0  -0.648016  0  2.195078  0  0  -0.67312  0  2.181083  0  0  -0.375191  -0.620469  0  2.207693  0
O  O32  1  0.27094605  0.79473963  0.73761213  1  0  -0.898581  0  1.891268  0  0  -0.860991  0  2.07885  0  0  -0.87951  0  2.052536  0  0  -0.636781  -0.838759  0  2.102841  0
O  O33  1  0.72904009  0.20525822  0.26237829  1  0  -0.898575  0  1.891319  0  0  -0.860971  0  2.078811  0  0  -0.879489  0  2.052493  0  0  -0.636762  -0.838747  0  2.102798  0
O  O34  1  0.93886833  0.21727146  0.60033295  1  0  -0.724261  0  2.068811  0  0  -0.673406  0  2.306258  0  0  -0.70112  0  2.29606  0  0  -0.355619  -0.644104  0  2.314981  0
O  O35  1  0.06113912  0.78272787  0.39967866  1  0  -0.724239  0  2.068919  0  0  -0.673335  0  2.306304  0  0  -0.701051  0  2.296102  0  0  -0.355576  -0.644042  0  2.31502  0
O  O36  1  0.97452426  0.71577057  0.83317739  1  0  -0.958946  0  1.913717  0  0  -0.919757  0  2.104  0  0  -0.939393  0  2.072216  0  0  -0.664271  -0.895349  0  2.132406  0
O  O37  1  0.02547149  0.28422481  0.16681567  1  0  -0.958923  0  1.913719  0  0  -0.919735  0  2.103992  0  0  -0.939376  0  2.072233  0  0  -0.664287  -0.89533  0  2.132397  0
O  O38  1  0.18288454  0.64031389  0.19649547  1  0  -0.741872  0  2.061788  0  0  -0.705542  0  2.3198  0  0  -0.731738  0  2.305945  0  0  -0.390201  -0.673303  0  2.329763  0
O  O39  1  0.81711325  0.35968801  0.80350450  1  0  -0.74192  0  2.061778  0  0  -0.705612  0  2.319708  0  0  -0.731814  0  2.305887  0  0  -0.390229  -0.673368  0  2.329678  0
O  O40  1  0.00596408  0.02592865  0.75370986  1  0  -0.596231  0  1.916304  0  0  -0.535926  0  2.11486  0  0  -0.56024  0  2.100638  0  0  -0.283206  -0.519645  0  2.125435  0
O  O41  1  0.99403861  0.97407185  0.24630663  1  0  -0.596082  0  1.916266  0  0  -0.535819  0  2.114811  0  0  -0.560131  0  2.100591  0  0  -0.283216  -0.519537  0  2.125376  0
O  O42  1  0.15778147  0.49555448  0.51298440  1  0  -0.762726  0  2.142106  0  0  -0.720921  0  2.394159  0  0  -0.746935  0  2.382098  0  0  -0.390665  -0.685843  0  2.401586  0
O  O43  1  0.84221838  0.50444096  0.48701035  1  0  -0.762735  0  2.14206  0  0  -0.720948  0  2.394183  0  0  -0.746942  0  2.382051  0  0  -0.390659  -0.685868  0  2.40161  0
