# generated using pymatgen
data_Zn2H16C33I4(N3O5)2
_symmetry_space_group_name_H-M   'P 1'
_cell_length_a   9.74113738
_cell_length_b   11.05215660
_cell_length_c   19.13504008
_cell_angle_alpha   80.90297488
_cell_angle_beta   83.94329439
_cell_angle_gamma   81.26398461
_symmetry_Int_Tables_number   1
_chemical_formula_structural   Zn2H16C33I4(N3O5)2
_chemical_formula_sum   'Zn2 H16 C33 I4 N6 O10'
_cell_volume   2003.55597403
_cell_formula_units_Z   1
loop_
 _symmetry_equiv_pos_site_id
 _symmetry_equiv_pos_as_xyz
  1  'x, y, z'
loop_
 _atom_site_type_symbol
 _atom_site_label
 _atom_site_symmetry_multiplicity
 _atom_site_fract_x
 _atom_site_fract_y
 _atom_site_fract_z
 _atom_site_occupancy
 _atom_site_pbe_bader_charge
 _atom_site_pbe_bader_spin_density
 _atom_site_pbe_cm5_charge
 _atom_site_pbe_ddec_charge
 _atom_site_pbe_ddec_spin_density
 _atom_site_pbe_ddec_sum_bond_order
 _atom_site_pbe_magmom
Zn  Zn0  1  0.64542500  0.48546580  0.48839139  1  1.297895  0  0.671914  0.856195  0  2.360352  0
Zn  Zn1  1  0.34890322  0.52527252  0.50624813  1  1.308068  0  0.671448  0.864131  0  2.334425  0
H  H2  1  0.73420372  0.40428816  0.71558937  1  0.07484  0  0.089754  0.083038  0  1.069828  0
H  H3  1  0.83767950  0.83571271  0.51032118  1  0.068789  0  0.095525  0.121434  0  0.975021  0
H  H4  1  0.80195558  0.88533258  0.41969863  1  0.070675  0  0.077317  0.090035  0  1.070112  0
H  H5  1  0.83780860  0.05697564  0.52611184  1  0.100343  0  0.104663  0.112279  0  0.973261  0
H  H6  1  0.84787125  0.32282925  0.62172225  1  0.113788  0  0.108232  0.146229  0  0.994453  0
H  H7  1  0.94123414  0.22676754  0.55967237  1  0.093186  0  0.111333  0.143788  0  0.968915  0
H  H8  1  0.72356301  0.36470074  0.84791024  1  0.107079  0  0.103554  0.101969  0  1.017068  0
H  H9  1  0.17014968  0.27770452  0.59260046  1  0.149929  0  0.110062  0.126418  0  1.00532  0
H  H10  1  0.29270297  0.52803033  0.85822404  1  0.116155  0  0.104986  0.105175  0  1.010667  0
H  H11  1  0.30388203  0.56360522  0.72514152  1  0.102912  0  0.092683  0.095856  0  1.038201  0
H  H12  1  0.70562313  0.37407454  0.15275006  1  0.127728  0  0.107881  0.109627  0  1.005569  0
H  H13  1  0.70277182  0.41279297  0.27866386  1  0.096929  0  0.094141  0.100475  0  1.033969  0
H  H14  1  0.25804317  0.50874097  0.28800503  1  0.077586  0  0.097403  0.099745  0  1.022103  0
H  H15  1  0.25958311  0.47111593  0.16210649  1  0.099969  0  0.105745  0.105233  0  1.011821  0
H  H16  1  0.28099034  0.12731811  0.54999411  1  0.127253  0  0.104359  0.108669  0  1.024237  0
H  H17  1  0.17117515  0.78078681  0.63378499  1  0.607326  0  0.342559  0.37813  0  0.854596  0
C  C18  1  0.49703047  0.26483484  0.51827864  1  1.592161  0  0.217916  0.600723  0  4.16892  0
C  C19  1  0.51776995  0.48252306  0.71252268  1  -0.04222  0  -0.010963  -0.01323  0  3.933365  0
C  C20  1  0.48469306  0.40229267  0.07529167  1  0.909914  0  0.239729  0.245718  0  3.997675  0
C  C21  1  0.49661301  0.41342095  0.93900882  1  0.917382  0  0.24047  0.244207  0  3.995601  0
C  C22  1  0.60820284  0.40427387  0.18253172  1  -0.069988  0  -0.08376  -0.106546  0  3.95499  0
C  C23  1  0.60681329  0.42577883  0.25219849  1  -0.022952  0  -0.084322  -0.089754  0  3.974392  0
C  C24  1  0.48069131  0.46401763  0.29025067  1  -0.084234  0  -0.014188  -0.019773  0  3.93702  0
C  C25  1  0.35539020  0.47975068  0.25772668  1  0.041283  0  -0.081985  -0.08377  0  3.965448  0
C  C26  1  0.35621677  0.45897308  0.18789688  1  -0.068964  0  -0.081638  -0.104588  0  3.956126  0
C  C27  1  0.48283869  0.42117612  0.14958534  1  0.040824  0  -0.001505  0.021822  0  3.995405  0
C  C28  1  0.62103751  0.05144912  0.50176749  1  0.000537  0  -0.00649  0.029798  0  3.890726  0
C  C29  1  0.51814968  0.49403372  0.63341961  1  1.534831  0  0.215984  0.596531  0  4.147996  0
C  C30  1  0.49984962  0.12914239  0.51908535  1  -0.034944  0  -0.006095  -0.045972  0  3.959922  0
C  C31  1  0.37883678  0.07169996  0.53531088  1  -0.020667  0  -0.07433  -0.115408  0  3.934339  0
C  C32  1  0.37861062  0.94547051  0.53390214  1  -0.023635  0  -0.002821  -0.033018  0  3.917708  0
C  C33  1  0.50065798  0.86945216  0.51090465  1  0.060538  0  -0.002027  -0.078301  0  3.895808  0
C  C34  1  0.62028262  0.92672978  0.49640071  1  -0.036673  0  0.003734  0.086973  0  3.868116  0
C  C35  1  0.77482273  0.90423973  0.47436845  1  -0.027243  0  -0.162727  -0.230877  0  3.880135  0
C  C36  1  0.77629035  0.04263266  0.48420373  1  -0.131864  0  -0.087962  -0.018087  0  3.692887  0
C  C37  1  0.06337812  0.45183768  0.53687153  1  0.591076  0  0.125583  0.160831  0  3.901832  0
C  C38  1  0.05749386  0.60942262  0.44555285  1  0.350061  0  0.085364  0.109017  0  3.818409  0
C  C39  1  0.92846533  0.57794134  0.42858111  1  0.398456  0  0.088763  0.119631  0  3.822123  0
C  C40  1  0.50033976  0.74006199  0.49725958  1  1.57088  0  0.214585  0.604267  0  4.167142  0
C  C41  1  0.93584960  0.42538487  0.52231578  1  0.522236  0  0.136655  0.211123  0  3.887497  0
C  C42  1  0.93337883  0.31547269  0.57994246  1  -0.008962  0  -0.141216  -0.25276  0  3.797305  0
C  C43  1  0.07839025  0.34715920  0.59746601  1  -0.16494  0  -0.08725  -0.066667  0  3.693528  0
C  C44  1  0.48127172  0.48715025  0.36516024  1  1.57042  0  0.214869  0.597042  0  4.154249  0
C  C45  1  0.63730976  0.42988781  0.74707050  1  0.024357  0  -0.086406  -0.093386  0  3.981495  0
C  C46  1  0.63199038  0.40877028  0.82082748  1  -0.111969  0  -0.081519  -0.103706  0  3.952669  0
C  C47  1  0.50642046  0.44142605  0.86130427  1  0.015935  0  -0.004249  0.023105  0  3.994251  0
C  C48  1  0.38869136  0.50054996  0.82656450  1  -0.000177  0  -0.082646  -0.107345  0  3.965004  0
C  C49  1  0.39463877  0.52030730  0.75291945  1  -0.0251  0  -0.087151  -0.088589  0  3.984076  0
C  C50  1  0.24463484  0.89688750  0.56154447  1  1.52751  0  0.231744  0.595434  0  4.119023  0
I  I51  1  0.85390328  0.15927289  0.39054903  1  0.011442  0  0.009837  -0.086515  0  1.289478  0
I  I52  1  0.13502250  0.76558650  0.38980003  1  0.299827  0  0.189141  0.11093  0  1.694763  0
I  I53  1  0.83938500  0.66107115  0.33525250  1  0.260444  0  0.175206  0.089234  0  1.602393  0
I  I54  1  0.07633233  0.40072385  0.70148176  1  0.069241  0  0.072908  -0.020454  0  1.286935  0
N  N55  1  0.36876159  0.42694584  0.97491437  1  -0.533011  0  -0.159272  -0.152332  0  3.21721  0
N  N56  1  0.36301823  0.42216369  0.04427770  1  -0.566041  0  -0.157746  -0.149629  0  3.222989  0
N  N57  1  0.60599162  0.35531649  0.04164851  1  -0.515854  0  -0.157183  -0.151938  0  3.214322  0
N  N58  1  0.61208995  0.36173402  0.97212784  1  -0.578802  0  -0.156768  -0.146077  0  3.218092  0
N  N59  1  0.12770665  0.54325552  0.50019127  1  -1.195617  0  -0.288884  -0.20815  0  3.413846  0
N  N60  1  0.86406064  0.48773393  0.46937184  1  -1.220534  0  -0.29162  -0.219175  0  3.447776  0
O  O61  1  0.61553515  0.30224625  0.51296357  1  -1.152456  0  -0.312913  -0.534589  0  2.333836  0
O  O62  1  0.37803185  0.33116466  0.52121237  1  -1.172451  0  -0.314521  -0.550342  0  2.31457  0
O  O63  1  0.63603079  0.48234024  0.59745208  1  -1.16561  0  -0.316684  -0.544534  0  2.320853  0
O  O64  1  0.39901435  0.51259417  0.60856114  1  -1.163343  0  -0.318592  -0.557094  0  2.373652  0
O  O65  1  0.61838734  0.67620995  0.48554535  1  -1.159198  0  -0.314841  -0.544345  0  2.344097  0
O  O66  1  0.38195370  0.70537453  0.49618201  1  -1.160715  0  -0.316334  -0.561994  0  2.445436  0
O  O67  1  0.60001579  0.47919541  0.38903877  1  -1.173637  0  -0.319462  -0.569102  0  2.462308  0
O  O68  1  0.36428126  0.51288032  0.39982521  1  -1.1654  0  -0.320755  -0.559066  0  2.397362  0
O  O69  1  0.13059897  0.93827674  0.53992461  1  -1.145708  0  -0.304905  -0.516288  0  2.108973  0
O  O70  1  0.26205511  0.80881240  0.61928262  1  -1.106897  0  -0.334318  -0.471412  0  2.236349  0
