# generated using pymatgen
data_Co3H44C52S(N4O9)2
_symmetry_space_group_name_H-M   'P 1'
_cell_length_a   10.30118978
_cell_length_b   17.52668445
_cell_length_c   17.52669657
_cell_angle_alpha   64.00770374
_cell_angle_beta   84.26441845
_cell_angle_gamma   84.26427063
_symmetry_Int_Tables_number   1
_chemical_formula_structural   Co3H44C52S(N4O9)2
_chemical_formula_sum   'Co6 H88 C104 S2 N16 O36'
_cell_volume   2824.48211443
_cell_formula_units_Z   2
loop_
 _symmetry_equiv_pos_site_id
 _symmetry_equiv_pos_as_xyz
  1  'x, y, z'
loop_
 _atom_site_type_symbol
 _atom_site_label
 _atom_site_symmetry_multiplicity
 _atom_site_fract_x
 _atom_site_fract_y
 _atom_site_fract_z
 _atom_site_occupancy
 _atom_site_pbe_bader_charge
 _atom_site_pbe_bader_spin_density
 _atom_site_pbe_cm5_charge
 _atom_site_pbe_ddec_charge
 _atom_site_pbe_ddec_spin_density
 _atom_site_pbe_ddec_sum_bond_order
 _atom_site_pbe_magmom
Co  Co0  1  0.48803874  0.04306308  0.78811520  1  1.33924  2.650317  0.671728  1.042454  2.861236  2.316164  2.634
Co  Co1  1  0.01195805  0.21188353  0.95693752  1  1.339294  2.65032  0.671742  1.04246  2.861245  2.316224  2.634
Co  Co2  1  0.51196226  0.95694042  0.21188047  1  1.339221  2.650334  0.671704  1.042376  2.861265  2.31619  2.634
Co  Co3  1  0.98804410  0.78811809  0.04305720  1  1.33925  2.650331  0.671709  1.042432  2.861244  2.316138  2.634
Co  Co4  1  0.24999847  0.23560110  0.76440014  1  1.305649  2.623673  0.696421  0.93038  2.83661  2.494641  2.601
Co  Co5  1  0.75000371  0.76440048  0.23559801  1  1.305727  2.623681  0.69643  0.930409  2.836605  2.494668  2.601
H  H6  1  0.70458697  0.02435984  0.84479499  1  0.630814  4e-06  0.286015  0.364437  -2.2e-05  0.991903  0.0
H  H7  1  0.79541202  0.15520343  0.97564133  1  0.630818  4e-06  0.285999  0.364384  -2.2e-05  0.991973  0.0
H  H8  1  0.29541390  0.97564493  0.15520015  1  0.63081  4e-06  0.286005  0.364375  -2.2e-05  0.991994  0.0
H  H9  1  0.20458820  0.84479816  0.02435580  1  0.630803  4e-06  0.285978  0.364355  -2.2e-05  0.992027  0.0
H  H10  1  0.62410261  0.04061531  0.91560968  1  0.650686  0.000488  0.301661  0.395504  0.000372  0.921032  0.001
H  H11  1  0.87589533  0.08439040  0.95938469  1  0.650709  0.000488  0.301712  0.395585  0.000373  0.920957  0.001
H  H12  1  0.37589963  0.95938565  0.08438816  1  0.650732  0.000488  0.30173  0.395547  0.000372  0.920873  0.001
H  H13  1  0.12410574  0.91561246  0.04061183  1  0.650646  0.000488  0.30174  0.395575  0.000373  0.920847  0.001
H  H14  1  0.52733162  0.92054813  0.94670710  1  0.638741  0.001333  0.309657  0.408272  0.00078  0.904127  0.001
H  H15  1  0.97266930  0.05329289  0.07945189  1  0.638724  0.001333  0.309665  0.40828  0.00078  0.904109  0.001
H  H16  1  0.47267063  0.07945282  0.05329189  1  0.638736  0.001332  0.309619  0.408299  0.00078  0.904095  0.001
H  H17  1  0.02733462  0.94671062  0.92054360  1  0.638677  0.001332  0.30964  0.408303  0.00078  0.904049  0.001
H  H18  1  0.40963624  0.88706647  0.91669030  1  0.658985  0.001023  0.293616  0.400923  0.000691  0.939224  0.001
H  H19  1  0.09036267  0.08331030  0.11293262  1  0.658713  0.001023  0.293591  0.400859  0.000691  0.939319  0.001
H  H20  1  0.59036296  0.11293574  0.08330891  1  0.65865  0.001023  0.293617  0.400944  0.000691  0.939205  0.001
H  H21  1  0.90964215  0.91669386  0.88706140  1  0.658618  0.001023  0.293598  0.400879  0.000691  0.939294  0.001
H  H22  1  0.15119417  0.47831848  0.63289808  1  0.111076  0.00039  0.110224  0.116728  0.000145  0.987967  0.0
H  H23  1  0.34879702  0.36710285  0.52168092  1  0.11092  0.00039  0.110253  0.11674  0.000145  0.988008  0.0
H  H24  1  0.84880718  0.52168183  0.36710181  1  0.111114  0.00039  0.110226  0.116719  0.000145  0.987988  0.0
H  H25  1  0.65120493  0.63290127  0.47831843  1  0.111039  0.00039  0.110271  0.116749  0.000145  0.988053  0.0
H  H26  1  0.11126934  0.63736969  0.56907678  1  0.073231  0.000139  0.111422  0.130806  5.7e-05  0.980204  0.0
H  H27  1  0.38872651  0.43091915  0.36262978  1  0.073184  0.000139  0.11143  0.130804  5.7e-05  0.98023  0.0
H  H28  1  0.88872901  0.36263125  0.43092245  1  0.073216  0.000139  0.111436  0.13081  5.7e-05  0.98024  0.0
H  H29  1  0.61128043  0.56908372  0.63736809  1  0.073172  0.000139  0.111405  0.130734  5.7e-05  0.980325  0.0
H  H30  1  0.81932352  0.61175800  0.77196842  1  0.080886  0.000157  0.101851  0.119262  3e-05  1.018573  0.0
H  H31  1  0.68067318  0.22802944  0.38824664  1  0.080853  0.000157  0.101818  0.119258  3e-05  1.018721  0.0
H  H32  1  0.18068006  0.38823976  0.22803358  1  0.080922  0.000157  0.101844  0.119287  3e-05  1.018569  0.0
H  H33  1  0.31931706  0.77196511  0.61175757  1  0.080899  0.000157  0.10186  0.119281  3e-05  1.018586  0.0
H  H34  1  0.86357325  0.45537804  0.83559154  1  0.094305  0.000189  0.099557  0.092701  4.2e-05  1.066917  0.0
H  H35  1  0.63642158  0.16440769  0.54462686  1  0.09622  0.00019  0.099526  0.092656  4.3e-05  1.066932  0.0
H  H36  1  0.13642840  0.54461910  0.16440742  1  0.094465  0.000189  0.099543  0.092666  4.2e-05  1.066948  0.0
H  H37  1  0.36357226  0.83559003  0.45537747  1  0.096376  0.00019  0.099539  0.092677  4.3e-05  1.066947  0.0
H  H38  1  0.02236301  0.71641636  0.76546514  1  0.075233  0.000138  0.103463  0.120615  4.4e-05  1.018499  0.0
H  H39  1  0.47763486  0.23453308  0.28358698  1  0.075201  0.000138  0.103458  0.120623  4.4e-05  1.018442  0.0
H  H40  1  0.97764028  0.28358396  0.23453292  1  0.075282  0.000138  0.103449  0.120653  4.4e-05  1.018547  0.0
H  H41  1  0.52236719  0.76546083  0.71642077  1  0.07536  0.000138  0.103425  0.120597  4.4e-05  1.018577  0.0
H  H42  1  0.93333783  0.81436029  0.82917971  1  0.080364  -3.5e-05  0.108021  0.114423  -0.000156  1.006673  0.0
H  H43  1  0.56666333  0.17081988  0.18563993  1  0.080381  -3.5e-05  0.108025  0.114438  -0.000156  1.006598  0.0
H  H44  1  0.06667335  0.18563939  0.17082099  1  0.080091  -3.5e-05  0.108043  0.114463  -0.000156  1.006669  0.0
H  H45  1  0.43334542  0.82917532  0.81436628  1  0.080371  -3.5e-05  0.108018  0.114424  -0.000156  1.006622  0.0
H  H46  1  0.65063738  0.92479803  0.63915479  1  0.091694  6.1e-05  0.103566  0.10107  -5.7e-05  1.032117  0.0
H  H47  1  0.84936061  0.36084507  0.07520435  1  0.091711  6.1e-05  0.103559  0.101059  -5.7e-05  1.03209  0.0
H  H48  1  0.34936690  0.07520228  0.36084549  1  0.091581  6.1e-05  0.103533  0.101006  -5.7e-05  1.032143  0.0
H  H49  1  0.15063390  0.63915523  0.92479484  1  0.091651  6.1e-05  0.103557  0.101095  -5.7e-05  1.032115  0.0
H  H50  1  0.73885607  0.82548641  0.57519952  1  0.080728  5e-06  0.109863  0.126903  -6e-06  0.992261  0.0
H  H51  1  0.76114299  0.42479902  0.17451690  1  0.080693  5e-06  0.109861  0.126914  -6e-06  0.99222  0.0
H  H52  1  0.26114634  0.17451325  0.42480229  1  0.080689  5e-06  0.109848  0.126857  -6e-06  0.992274  0.0
H  H53  1  0.23885479  0.57519810  0.82548460  1  0.080629  5e-06  0.109857  0.126935  -6e-06  0.99218  0.0
H  H54  1  0.49893704  0.04893601  0.61860865  1  0.112107  0.001473  0.118567  0.091648  0.000268  1.027032  0.001
H  H55  1  0.00105956  0.38139162  0.95106732  1  0.112241  0.001472  0.118528  0.091621  0.000268  1.027139  0.001
H  H56  1  0.50106247  0.95106303  0.38139019  1  0.112232  0.001473  0.118539  0.091642  0.000268  1.026881  0.001
H  H57  1  0.99893209  0.61860804  0.04893231  1  0.112121  0.001472  0.118558  0.09168  0.000268  1.026988  0.001
H  H58  1  0.37264871  0.00373081  0.53172736  1  0.092981  0.000683  0.108677  0.11602  0.000347  1.011908  0.0
H  H59  1  0.12735191  0.46827122  0.99627189  1  0.092976  0.000683  0.108671  0.11602  0.000347  1.011916  0.0
H  H60  1  0.62734781  0.99626886  0.46827197  1  0.092995  0.000683  0.108685  0.116063  0.000347  1.011909  0.0
H  H61  1  0.87263801  0.53172650  0.00373097  1  0.093183  0.000682  0.108681  0.116054  0.000347  1.011897  0.0
H  H62  1  0.07029717  0.93441315  0.73544331  1  0.094859  0.000922  0.106428  0.114049  0.000421  1.025402  0.0
H  H63  1  0.42970309  0.26455559  0.06558627  1  0.094865  0.000922  0.106411  0.11403  0.000421  1.025407  0.0
H  H64  1  0.92970642  0.06558459  0.26456040  1  0.094853  0.000922  0.10644  0.114023  0.000421  1.025389  0.0
H  H65  1  0.57029039  0.73544533  0.93441385  1  0.094737  0.000922  0.106421  0.114045  0.000421  1.025439  0.0
H  H66  1  0.20930758  0.98083379  0.81403614  1  0.114741  0.001776  0.117476  0.092666  0.000476  1.023994  0.001
H  H67  1  0.29069048  0.18596245  0.01916636  1  0.114736  0.001776  0.117464  0.092663  0.000477  1.023977  0.001
H  H68  1  0.79069312  0.01917288  0.18596104  1  0.114832  0.001775  0.117425  0.092637  0.000476  1.024012  0.001
H  H69  1  0.70930886  0.81403788  0.98082851  1  0.114904  0.001776  0.117429  0.09263  0.000476  1.023985  0.001
H  H70  1  0.03452940  0.91687967  0.60634710  1  0.116232  2.7e-05  0.113603  0.080643  9e-06  1.020398  0.0
H  H71  1  0.46546998  0.39365278  0.08312119  1  0.116294  2.7e-05  0.113599  0.080624  9e-06  1.020393  0.0
H  H72  1  0.96546847  0.08311678  0.39365753  1  0.116378  2.7e-05  0.113561  0.080538  8e-06  1.020451  0.0
H  H73  1  0.53451784  0.60634623  0.91687953  1  0.116244  2.7e-05  0.113543  0.080499  8e-06  1.02053  0.0
H  H74  1  0.22874136  0.91901027  0.37612105  1  0.126348  0.000113  0.119052  0.094559  -4.6e-05  1.017549  0.0
H  H75  1  0.27126079  0.62388131  0.08098650  1  0.12623  0.000113  0.119072  0.094601  -4.6e-05  1.017603  0.0
H  H76  1  0.77126290  0.08098110  0.62388709  1  0.126489  0.000113  0.119056  0.094578  -4.6e-05  1.017666  0.0
H  H77  1  0.72873320  0.37611512  0.91902066  1  0.126235  0.000113  0.119077  0.094599  -4.6e-05  1.017671  0.0
H  H78  1  0.17909594  0.88221799  0.25773993  1  0.125751  0.000874  0.113486  0.133938  0.000346  1.011326  0.0
H  H79  1  0.32090662  0.74226239  0.11777808  1  0.125795  0.000874  0.113505  0.133955  0.000346  1.01134  0.0
H  H80  1  0.82091330  0.11778168  0.74226203  1  0.125883  0.000874  0.113524  0.133993  0.000346  1.011321  0.0
H  H81  1  0.67908787  0.25773792  0.88221881  1  0.125855  0.000874  0.11353  0.133974  0.000346  1.011354  0.0
H  H82  1  0.89891058  0.83137266  0.47177919  1  0.096202  0.000641  0.105025  0.105209  0.00028  1.063483  0.0
H  H83  1  0.60108926  0.52822145  0.16862733  1  0.096217  0.000641  0.105038  0.105257  0.00028  1.063411  0.0
H  H84  1  0.10108614  0.16862510  0.52822095  1  0.096102  0.000641  0.105005  0.105178  0.00028  1.06353  0.0
H  H85  1  0.39891246  0.47177564  0.83137793  1  0.096058  0.000641  0.105007  0.105176  0.00028  1.063516  0.0
H  H86  1  0.75241479  0.78345489  0.39898575  1  0.102282  0.001438  0.112372  0.077001  0.000248  1.059001  0.001
H  H87  1  0.74758632  0.60101315  0.21654701  1  0.102233  0.001438  0.112398  0.077069  0.000248  1.058893  0.001
H  H88  1  0.24759027  0.21654674  0.60100763  1  0.102184  0.001439  0.112369  0.077006  0.000249  1.058918  0.001
H  H89  1  0.25240702  0.39898965  0.78345686  1  0.102186  0.001439  0.112388  0.076997  0.000249  1.058914  0.001
H  H90  1  0.02119475  0.83422625  0.19245676  1  0.142769  0.00137  0.117915  0.098841  0.000276  1.029889  0.001
H  H91  1  0.47880923  0.80754776  0.16576882  1  0.142599  0.001371  0.117936  0.098777  0.000276  1.02988  0.001
H  H92  1  0.97881402  0.16577789  0.80754101  1  0.142817  0.00137  0.117946  0.098865  0.000276  1.029848  0.001
H  H93  1  0.52118563  0.19245829  0.83422442  1  0.142826  0.00137  0.117937  0.098813  0.000276  1.029931  0.001
C  C94  1  0.03519281  0.36233787  0.77714998  1  1.56782  0.00235  0.217375  0.590348  0.000633  4.179877  0.004
C  C95  1  0.46479776  0.22285430  0.63766165  1  1.567926  0.002352  0.217278  0.590257  0.000635  4.180152  0.004
C  C96  1  0.96480587  0.63765988  0.22285118  1  1.567611  0.002349  0.21723  0.590093  0.000631  4.180088  0.004
C  C97  1  0.53519913  0.77715170  0.36233834  1  1.567968  0.002349  0.217245  0.590093  0.000632  4.179845  0.004
C  C98  1  0.00842399  0.45659168  0.73782042  1  -0.028412  0.010836  -0.033678  -0.07767  0.005574  4.00933  0.008
C  C99  1  0.49156723  0.26217943  0.54340890  1  -0.028761  0.010835  -0.033678  -0.077699  0.005573  4.009521  0.008
C  C100  1  0.99157937  0.54340800  0.26217905  1  -0.028302  0.010836  -0.033708  -0.077679  0.005574  4.009321  0.008
C  C101  1  0.50843284  0.73782404  0.45659142  1  -0.028325  0.010835  -0.033604  -0.077397  0.005573  4.009224  0.008
C  C102  1  0.07875884  0.50825941  0.66262151  1  -0.073107  -9e-06  -0.081632  -0.068556  -0.000532  3.988673  0.0
C  C103  1  0.42123350  0.33737784  0.49174133  1  -0.07289  -7e-06  -0.081621  -0.068574  -0.000531  3.988629  0.0
C  C104  1  0.92124433  0.49174217  0.33737772  1  -0.073122  -1e-05  -0.081625  -0.068518  -0.000533  3.988621  0.0
C  C105  1  0.57877209  0.66262883  0.50825669  1  -0.073333  -9e-06  -0.081754  -0.068841  -0.000532  3.988831  0.0
C  C106  1  0.05712318  0.59618588  0.62705220  1  0.011079  0.000947  -0.101063  -0.198648  0.000408  3.986903  0.001
C  C107  1  0.44286726  0.37294581  0.40381404  1  0.010195  0.000947  -0.101118  -0.198628  0.000408  3.986683  0.001
C  C108  1  0.94287428  0.40381441  0.37294851  1  0.010096  0.000947  -0.101086  -0.198683  0.000408  3.986906  0.001
C  C109  1  0.55713702  0.62705450  0.59618624  1  0.010225  0.000947  -0.101041  -0.198419  0.000408  3.986652  0.001
C  C110  1  0.89257116  0.58287376  0.74165063  1  -0.021131  0.001046  -0.11042  -0.218158  0.000466  4.006642  0.001
C  C111  1  0.60742735  0.25834722  0.41712929  1  -0.021101  0.001046  -0.110457  -0.218363  0.000466  4.006989  0.001
C  C112  1  0.10742759  0.41712336  0.25835081  1  -0.021308  0.001046  -0.110465  -0.218328  0.000466  4.006866  0.001
C  C113  1  0.39257050  0.74164925  0.58287419  1  -0.02115  0.001046  -0.110496  -0.218347  0.000466  4.00685  0.001
C  C114  1  0.91686379  0.49505873  0.77690457  1  -0.071994  -5.6e-05  -0.087251  -0.070089  -0.000585  4.002346  0.0
C  C115  1  0.58313743  0.22309581  0.50494650  1  -0.073872  -5.5e-05  -0.08718  -0.069864  -0.000584  4.002282  0.0
C  C116  1  0.08313981  0.50493842  0.22309427  1  -0.072117  -5.7e-05  -0.087183  -0.069961  -0.000585  4.002136  0.0
C  C117  1  0.41686293  0.77690510  0.49505718  1  -0.074106  -5.6e-05  -0.087199  -0.069999  -0.000585  4.002142  0.0
C  C118  1  0.96284218  0.63287350  0.66629182  1  0.450521  -0.001042  0.088336  0.267714  -0.001192  4.048931  -0.001
C  C119  1  0.53715031  0.33370217  0.36712903  1  0.451877  -0.00104  0.088383  0.267773  -0.00119  4.048706  -0.001
C  C120  1  0.03715363  0.36712362  0.33370808  1  0.451649  -0.001043  0.088361  0.267839  -0.001193  4.049014  -0.001
C  C121  1  0.46284848  0.66629432  0.63287038  1  0.451815  -0.001042  0.088405  0.267762  -0.001192  4.048798  -0.001
C  C122  1  0.88544667  0.76624989  0.66654923  1  0.394529  0.00086  0.090676  0.263829  0.000448  4.051998  0.001
C  C123  1  0.61455363  0.33344919  0.23375357  1  0.39516  0.00086  0.090719  0.263888  0.000448  4.05193  0.001
C  C124  1  0.11455859  0.23375041  0.33345157  1  0.395  0.00086  0.090726  0.263932  0.000449  4.051818  0.001
C  C125  1  0.38544716  0.66654728  0.76625030  1  0.394529  0.00086  0.090769  0.263884  0.000448  4.051955  0.001
C  C126  1  0.94006010  0.76164971  0.73858372  1  0.007536  0.000424  -0.100996  -0.203488  0.000195  3.982161  0.0
C  C127  1  0.55994017  0.26141595  0.23835162  1  0.007587  0.000424  -0.100958  -0.203447  0.000195  3.982108  0.0
C  C128  1  0.05994027  0.23835059  0.26141567  1  0.007462  0.000424  -0.101068  -0.203636  0.000195  3.981985  0.0
C  C129  1  0.44006654  0.73857989  0.76165272  1  0.007684  0.000424  -0.101004  -0.203505  0.000195  3.982045  0.0
C  C130  1  0.89025672  0.81693724  0.77368858  1  -0.010086  0.001481  -0.083151  -0.076227  0.000713  3.986229  0.001
C  C131  1  0.60974818  0.22631145  0.18306528  1  -0.010203  0.001481  -0.083195  -0.076317  0.000713  3.986233  0.001
C  C132  1  0.10975355  0.18306181  0.22631244  1  -0.009847  0.001481  -0.083117  -0.076216  0.000713  3.986261  0.001
C  C133  1  0.39025537  0.77368691  0.81694045  1  -0.010179  0.001481  -0.083137  -0.0762  0.000713  3.986108  0.001
C  C134  1  0.78623702  0.87643400  0.73751226  1  -0.054625  0.004544  -0.029238  -0.072871  0.002361  3.999885  0.003
C  C135  1  0.71376692  0.26248639  0.12356799  1  -0.05433  0.004544  -0.029242  -0.072874  0.002361  3.999872  0.003
C  C136  1  0.21376929  0.12356568  0.26248874  1  -0.054575  0.004544  -0.029283  -0.072926  0.002361  3.999883  0.003
C  C137  1  0.28623880  0.73750946  0.87643527  1  -0.05459  0.004544  -0.029245  -0.072925  0.002361  3.999937  0.003
C  C138  1  0.73153531  0.87865873  0.66631588  1  -0.05011  0.000919  -0.081526  -0.065235  0.000454  3.992782  0.0
C  C139  1  0.76846282  0.33368561  0.12134152  1  -0.050333  0.000919  -0.081651  -0.065421  0.000454  3.992783  0.0
C  C140  1  0.26846827  0.12133902  0.33368726  1  -0.050074  0.00092  -0.081534  -0.065218  0.000455  3.992845  0.0
C  C141  1  0.23153391  0.66631214  0.87865976  1  -0.049927  0.000919  -0.081684  -0.065514  0.000455  3.992779  0.0
C  C142  1  0.78030840  0.82391436  0.63072161  1  0.008099  -0.000332  -0.098127  -0.201039  -0.000362  3.994273  0.0
C  C143  1  0.71969318  0.36927802  0.17608753  1  0.007577  -0.000332  -0.098029  -0.200894  -0.000362  3.993967  0.0
C  C144  1  0.21969302  0.17608530  0.36927912  1  0.007805  -0.000332  -0.098045  -0.20088  -0.000362  3.994296  0.0
C  C145  1  0.28030938  0.63071976  0.82391110  1  0.007865  -0.000332  -0.097959  -0.200798  -0.000362  3.993974  0.0
C  C146  1  0.73293468  0.93915426  0.77082703  1  1.57317  0.0045  0.21616  0.581047  0.003142  4.192424  0.003
C  C147  1  0.76706758  0.22917315  0.06084616  1  1.57295  0.004503  0.21619  0.581082  0.003143  4.192388  0.003
C  C148  1  0.26706848  0.06084733  0.22917105  1  1.573024  0.004503  0.216155  0.580948  0.003144  4.192431  0.003
C  C149  1  0.23293585  0.77082588  0.93915473  1  1.573181  0.004501  0.216192  0.58115  0.003143  4.192308  0.003
C  C150  1  0.40392926  0.02259918  0.64185417  1  0.445521  -0.00874  0.041665  0.088577  -0.009432  3.961381  -0.005
C  C151  1  0.09606570  0.35814416  0.97740433  1  0.445459  -0.008739  0.041715  0.088623  -0.009431  3.961351  -0.005
C  C152  1  0.59607148  0.97740687  0.35814099  1  0.445595  -0.00874  0.041696  0.088568  -0.009433  3.961417  -0.005
C  C153  1  0.90392794  0.64185488  0.02259373  1  0.44567  -0.008737  0.041708  0.088582  -0.009428  3.96131  -0.005
C  C154  1  0.33402262  0.99770490  0.59413522  1  -0.030098  0.002975  -0.080355  -0.163369  0.001119  3.932021  0.003
C  C155  1  0.16597473  0.40586215  0.00229998  1  -0.030631  0.002974  -0.080377  -0.163465  0.001119  3.932233  0.003
C  C156  1  0.66597476  0.00229604  0.40586350  1  -0.030209  0.002975  -0.080387  -0.163512  0.00112  3.932146  0.003
C  C157  1  0.83401227  0.59413556  0.99770421  1  -0.030693  0.002973  -0.080455  -0.16363  0.001118  3.93222  0.003
C  C158  1  0.21127509  0.96430469  0.62690455  1  0.026873  -0.014229  0.00618  0.104473  -0.015163  4.019218  -0.008
C  C159  1  0.28872283  0.37309418  0.03569604  1  0.027312  -0.014226  0.006208  0.104497  -0.01516  4.019344  -0.008
C  C160  1  0.78872569  0.03569178  0.37309818  1  0.026646  -0.014231  0.006219  0.104566  -0.015165  4.019096  -0.008
C  C161  1  0.71126311  0.62690417  0.96430622  1  0.027185  -0.014223  0.006233  0.104607  -0.015157  4.01903  -0.008
C  C162  1  0.16524295  0.95897620  0.70718969  1  -0.052192  0.001428  -0.078048  -0.160394  -0.000219  3.913658  0.002
C  C163  1  0.33475832  0.29280993  0.04102356  1  -0.051989  0.001427  -0.078063  -0.160392  -0.00022  3.913678  0.002
C  C164  1  0.83476058  0.04102218  0.29281375  1  -0.051987  0.001429  -0.078121  -0.160439  -0.000219  3.913567  0.002
C  C165  1  0.66523335  0.70718971  0.95897779  1  -0.051079  0.001427  -0.078094  -0.160528  -0.00022  3.913582  0.002
C  C166  1  0.24204635  0.98480979  0.75139932  1  0.476645  -0.009734  0.048459  0.103571  -0.010346  3.929918  -0.006
C  C167  1  0.25795102  0.24859990  0.01519123  1  0.47659  -0.009732  0.048502  0.103564  -0.010343  3.929906  -0.006
C  C168  1  0.75795891  0.01519052  0.24860089  1  0.47631  -0.009735  0.048484  0.103533  -0.010347  3.929876  -0.006
C  C169  1  0.74204264  0.75139912  0.98480855  1  0.475305  -0.009728  0.048536  0.103671  -0.01034  3.929846  -0.006
C  C170  1  0.13359122  0.93628873  0.58043640  1  0.609303  -0.011381  0.074989  0.051974  -0.01263  3.908303  -0.006
C  C171  1  0.36640718  0.41956387  0.06371144  1  0.609291  -0.011382  0.074964  0.052046  -0.012632  3.908289  -0.006
C  C172  1  0.86640881  0.06370581  0.41957063  1  0.609007  -0.011382  0.075046  0.052183  -0.012632  3.908126  -0.006
C  C173  1  0.63358012  0.58043068  0.93629124  1  0.609439  -0.011382  0.075069  0.052126  -0.012632  3.908317  -0.006
C  C174  1  0.13286646  0.89765529  0.40784579  1  0.591472  -0.012469  0.075058  0.04675  -0.013856  3.886638  -0.007
C  C175  1  0.36713239  0.59215950  0.10234282  1  0.591815  -0.012466  0.075019  0.046702  -0.013853  3.886652  -0.007
C  C176  1  0.86713157  0.10233988  0.59216224  1  0.591876  -0.012469  0.075035  0.046704  -0.013857  3.88663  -0.007
C  C177  1  0.63286747  0.40783634  0.89765967  1  0.590867  -0.012469  0.075084  0.046877  -0.013856  3.886298  -0.007
C  C178  1  0.04880529  0.86454713  0.36912983  1  -0.039238  -0.010354  0.003243  0.099329  -0.01107  4.026875  -0.006
C  C179  1  0.45120243  0.63086895  0.13545034  1  -0.039312  -0.010353  0.00323  0.0995  -0.011069  4.026943  -0.006
C  C180  1  0.95120147  0.13544810  0.63087307  1  -0.039168  -0.010352  0.003207  0.09938  -0.011068  4.026924  -0.006
C  C181  1  0.54879825  0.36912819  0.86454926  1  -0.039212  -0.010352  0.00317  0.099307  -0.011068  4.026986  -0.006
C  C182  1  0.08414596  0.86281436  0.29046639  1  -0.052114  0.003044  -0.0742  -0.153349  0.00109  3.88589  0.003
C  C183  1  0.41585667  0.70953664  0.13718049  1  -0.052088  0.003045  -0.074227  -0.153431  0.001091  3.885691  0.003
C  C184  1  0.91586041  0.13718467  0.70953488  1  -0.052149  0.003044  -0.07424  -0.153451  0.00109  3.885878  0.003
C  C185  1  0.58414165  0.29046432  0.86281531  1  -0.052294  0.003044  -0.074223  -0.153387  0.00109  3.885862  0.003
C  C186  1  0.92748928  0.83395847  0.40936888  1  0.080449  0.000757  -0.080661  -0.160063  -0.00022  3.955228  0.002
C  C187  1  0.57251386  0.59063417  0.16603766  1  0.080789  0.000758  -0.080658  -0.16021  -0.000219  3.955223  0.002
C  C188  1  0.07251348  0.16603739  0.59063113  1  0.080167  0.000759  -0.080594  -0.160002  -0.000219  3.955271  0.002
C  C189  1  0.42748444  0.40936740  0.83396245  1  0.080902  0.000758  -0.080606  -0.159991  -0.000219  3.955304  0.002
C  C190  1  0.84627852  0.80766387  0.36875237  1  0.415433  -0.005866  0.039146  0.089861  -0.006404  3.956759  -0.003
C  C191  1  0.65372692  0.63124993  0.19233670  1  0.415529  -0.005866  0.039111  0.089842  -0.006405  3.956554  -0.003
C  C192  1  0.15372278  0.19233647  0.63124352  1  0.415622  -0.005863  0.039136  0.089873  -0.006401  3.956925  -0.003
C  C193  1  0.34627415  0.36875353  0.80766585  1  0.41535  -0.005863  0.039161  0.089905  -0.006402  3.956887  -0.003
C  C194  1  0.99588426  0.83577291  0.25366480  1  0.445579  -0.008678  0.047237  0.099762  -0.009199  3.905041  -0.005
C  C195  1  0.50411996  0.74633797  0.16422360  1  0.445626  -0.008675  0.047196  0.099733  -0.009197  3.904886  -0.005
C  C196  1  0.00412438  0.16423250  0.74633357  1  0.445541  -0.008679  0.047163  0.099674  -0.009201  3.905132  -0.005
C  C197  1  0.49587717  0.25366491  0.83576974  1  0.445645  -0.008678  0.047175  0.099677  -0.0092  3.905204  -0.005
S  S198  1  0.24999951  0.08232404  0.91767586  1  3.779118  0.00935  0.578068  1.4323  0.008087  6.311896  0.009
S  S199  1  0.74999833  0.91768139  0.08231575  1  3.779136  0.00935  0.577899  1.431818  0.008086  6.31222  0.009
N  N200  1  0.36031460  0.01569917  0.72002904  1  -1.205064  0.05107  -0.327619  -0.265812  0.026689  3.567304  0.047
N  N201  1  0.13968357  0.27996740  0.98430440  1  -1.205239  0.051068  -0.327625  -0.265755  0.026688  3.567216  0.047
N  N202  1  0.63968627  0.98430560  0.27996666  1  -1.205029  0.05107  -0.327593  -0.265683  0.026688  3.567244  0.047
N  N203  1  0.86031201  0.72003164  0.01569241  1  -1.204909  0.051067  -0.32764  -0.265759  0.026687  3.567283  0.047
N  N204  1  0.18038650  0.93252171  0.51038631  1  -0.75814  -0.008676  -0.210125  -0.171906  -0.008953  3.313746  -0.006
N  N205  1  0.31961459  0.48961345  0.06747798  1  -0.758106  -0.008671  -0.210113  -0.171945  -0.008948  3.313838  -0.006
N  N206  1  0.81961151  0.06747346  0.48962058  1  -0.757807  -0.008675  -0.210098  -0.172037  -0.008953  3.313834  -0.006
N  N207  1  0.68037924  0.51038427  0.93252578  1  -0.758254  -0.008666  -0.210089  -0.171763  -0.008942  3.314008  -0.006
N  N208  1  0.09136648  0.90213676  0.47827924  1  -0.762994  -0.005795  -0.209616  -0.163687  -0.00576  3.342949  -0.004
N  N209  1  0.40863551  0.52172194  0.09786416  1  -0.763419  -0.005799  -0.209552  -0.163659  -0.005764  3.342825  -0.004
N  N210  1  0.90863368  0.09785652  0.52172776  1  -0.763417  -0.005796  -0.209573  -0.163574  -0.00576  3.342832  -0.004
N  N211  1  0.59135822  0.47827704  0.90214192  1  -0.762499  -0.0058  -0.209668  -0.163934  -0.005766  3.342696  -0.004
N  N212  1  0.87708330  0.81014120  0.29095920  1  -1.198185  0.051578  -0.322818  -0.242497  0.027165  3.557088  0.047
N  N213  1  0.62291716  0.70904224  0.18985601  1  -1.198193  0.05158  -0.32278  -0.242405  0.02717  3.55706  0.047
N  N214  1  0.12292169  0.18986107  0.70903334  1  -1.198105  0.051582  -0.322781  -0.242455  0.027169  3.557397  0.047
N  N215  1  0.37707784  0.29096313  0.81014380  1  -1.198164  0.051582  -0.322781  -0.242414  0.027171  3.557321  0.047
O  O216  1  0.63052623  0.98407678  0.73757215  1  -1.165877  0.070762  -0.312071  -0.570391  0.036554  2.40953  0.058
O  O217  1  0.86947293  0.26242684  0.01592192  1  -1.165769  0.070758  -0.312083  -0.570373  0.036552  2.409533  0.058
O  O218  1  0.36947915  0.01592227  0.26242747  1  -1.165802  0.070782  -0.312053  -0.570285  0.036561  2.409408  0.058
O  O219  1  0.13052652  0.73757284  0.98407665  1  -1.165913  0.070768  -0.312099  -0.57043  0.036556  2.409539  0.058
O  O220  1  0.79047474  0.94789275  0.82735422  1  -1.194572  0.009238  -0.305413  -0.554413  0.004062  2.28335  0.007
O  O221  1  0.70952689  0.17264545  0.05210914  1  -1.194531  0.009241  -0.305428  -0.554427  0.004063  2.283298  0.007
O  O222  1  0.20953311  0.05211075  0.17264389  1  -1.194516  0.009241  -0.305375  -0.554334  0.004063  2.283433  0.007
O  O223  1  0.29047452  0.82735423  0.94789045  1  -1.194554  0.00924  -0.305392  -0.554418  0.004063  2.283364  0.007
O  O224  1  0.93874205  0.71964920  0.62357536  1  -1.112401  0.000283  -0.147035  -0.211667  0.000147  2.601118  0.0
O  O225  1  0.56125639  0.37642264  0.28035387  1  -1.112758  0.000283  -0.147069  -0.211718  0.000147  2.600965  0.0
O  O226  1  0.06125448  0.28035046  0.37642454  1  -1.112492  0.000282  -0.147028  -0.211741  0.000146  2.601191  0.0
O  O227  1  0.43874907  0.62357576  0.71964716  1  -1.112732  0.000282  -0.147134  -0.211763  0.000146  2.600956  0.0
O  O228  1  0.63630097  0.06599633  0.85321338  1  -1.258027  0.050057  -0.577155  -0.759335  0.025871  2.138602  0.041
O  O229  1  0.86370262  0.14678710  0.93400603  1  -1.257926  0.050057  -0.577195  -0.759369  0.025873  2.138624  0.041
O  O230  1  0.36370200  0.93400717  0.14678447  1  -1.257938  0.050054  -0.577207  -0.759277  0.025872  2.138582  0.041
O  O231  1  0.13630041  0.85321576  0.06599151  1  -1.257947  0.05006  -0.577194  -0.75932  0.025871  2.138593  0.041
O  O232  1  0.48300445  0.92629705  0.89744520  1  -1.259705  0.055086  -0.580251  -0.798117  0.028839  2.155968  0.045
O  O233  1  0.01699245  0.10255516  0.07370401  1  -1.259426  0.055084  -0.580209  -0.798046  0.028836  2.156049  0.045
O  O234  1  0.51699157  0.07370769  0.10255367  1  -1.259287  0.055078  -0.580161  -0.798138  0.028836  2.155909  0.045
O  O235  1  0.98301539  0.89744775  0.92628750  1  -1.259187  0.055079  -0.580173  -0.798069  0.028837  2.155877  0.045
O  O236  1  0.32778026  0.10200447  0.83325707  1  -1.305262  0.103464  -0.346307  -0.719339  0.055364  2.488547  0.084
O  O237  1  0.17221340  0.16674263  0.89799991  1  -1.305146  0.103465  -0.346293  -0.719351  0.055369  2.48855  0.084
O  O238  1  0.67222137  0.89800223  0.16673547  1  -1.30513  0.103472  -0.346327  -0.719295  0.055371  2.488589  0.084
O  O239  1  0.82778344  0.83326341  0.10199493  1  -1.305139  0.103444  -0.3463  -0.719279  0.055358  2.488526  0.084
O  O240  1  0.16086666  0.01475506  0.93756665  1  -1.348032  0.011211  -0.343493  -0.642839  0.00481  2.196726  0.009
O  O241  1  0.33913354  0.06243280  0.98524422  1  -1.348002  0.011212  -0.343469  -0.642797  0.004811  2.196746  0.009
O  O242  1  0.83913214  0.98525038  0.06242319  1  -1.347986  0.011214  -0.343458  -0.642677  0.004811  2.196719  0.009
O  O243  1  0.66086067  0.93757007  0.01474987  1  -1.348207  0.01121  -0.343269  -0.642536  0.00481  2.196819  0.009
O  O244  1  0.12179061  0.33345302  0.73729514  1  -1.157934  0.107251  -0.31382  -0.553769  0.055307  2.425845  0.09
O  O245  1  0.37820480  0.26270907  0.66654542  1  -1.158007  0.107231  -0.313753  -0.55371  0.055294  2.426128  0.09
O  O246  1  0.87820785  0.66654666  0.26270292  1  -1.157889  0.107248  -0.313787  -0.553698  0.055305  2.425918  0.09
O  O247  1  0.62179186  0.73729886  0.33345032  1  -1.157954  0.107226  -0.313732  -0.553681  0.055293  2.425947  0.09
O  O248  1  0.97307494  0.31760879  0.84672716  1  -1.16766  0.071196  -0.313034  -0.564432  0.036362  2.367689  0.059
O  O249  1  0.52692228  0.15327519  0.68239237  1  -1.167487  0.071213  -0.312971  -0.564357  0.03637  2.367562  0.059
O  O250  1  0.02692463  0.68238962  0.15327138  1  -1.167633  0.071193  -0.312951  -0.564312  0.036361  2.367609  0.059
O  O251  1  0.47307649  0.84673205  0.31761267  1  -1.167641  0.071198  -0.312974  -0.564303  0.036363  2.367423  0.059
