# generated using pymatgen
data_SmZnH12C15N2O13
_symmetry_space_group_name_H-M   'P 1'
_cell_length_a   9.74068351
_cell_length_b   10.62821008
_cell_length_c   10.94202419
_cell_angle_alpha   80.62153759
_cell_angle_beta   72.56322842
_cell_angle_gamma   75.55348911
_symmetry_Int_Tables_number   1
_chemical_formula_structural   SmZnH12C15N2O13
_chemical_formula_sum   'Sm2 Zn2 H24 C30 N4 O26'
_cell_volume   1041.77929599
_cell_formula_units_Z   2
loop_
 _symmetry_equiv_pos_site_id
 _symmetry_equiv_pos_as_xyz
  1  'x, y, z'
loop_
 _atom_site_type_symbol
 _atom_site_label
 _atom_site_symmetry_multiplicity
 _atom_site_fract_x
 _atom_site_fract_y
 _atom_site_fract_z
 _atom_site_occupancy
 _atom_site_pbe_bader_charge
 _atom_site_pbe_bader_spin_density
 _atom_site_pbe_cm5_charge
 _atom_site_pbe_ddec_charge
 _atom_site_pbe_ddec_spin_density
 _atom_site_pbe_ddec_sum_bond_order
 _atom_site_pbe_magmom
Sm  Sm0  1  0.17704701  0.19617582  0.53297029  1  2.21276  0  1.485881  2.059863  0  2.127342  0
Sm  Sm1  1  0.82295144  0.80382356  0.46703110  1  2.212741  0  1.485884  2.059889  0  2.127251  0
Zn  Zn2  1  0.30394848  0.36581344  0.11235123  1  1.329109  0  0.698011  0.860167  0  2.341797  0
Zn  Zn3  1  0.69605614  0.63418696  0.88764466  1  1.329175  0  0.698034  0.860189  0  2.341816  0
H  H4  1  0.82445845  0.92053851  0.02743965  1  0.105445  0  0.109817  0.106706  0  1.024669  0
H  H5  1  0.17554298  0.07946187  0.97256076  1  0.105494  0  0.109802  0.106718  0  1.024636  0
H  H6  1  0.75073905  0.04610440  0.83235676  1  0.185849  0  0.117599  0.137092  0  0.998665  0
H  H7  1  0.24926548  0.95389208  0.16764252  1  0.185864  0  0.117561  0.137015  0  0.998689  0
H  H8  1  0.52731078  0.22960512  0.86762659  1  0.106339  0  0.123316  0.098838  0  0.982555  0
H  H9  1  0.47269242  0.77039233  0.13237015  1  0.106129  0  0.123328  0.098825  0  0.98264  0
H  H10  1  0.79255848  0.26218123  0.99212713  1  0.104016  0  0.106872  0.104588  0  1.01638  0
H  H11  1  0.20744162  0.73782012  0.00787166  1  0.104023  0  0.106848  0.104533  0  1.016404  0
H  H12  1  0.84208587  0.16755761  0.20624093  1  0.175231  0  0.114369  0.136742  0  1.024904  0
H  H13  1  0.15791448  0.83244276  0.79375887  1  0.175199  0  0.114374  0.136784  0  1.024899  0
H  H14  1  0.06680317  0.20354614  0.25031152  1  0.158612  0  0.12731  0.100146  0  1.022434  0
H  H15  1  0.93320004  0.79645131  0.74968705  1  0.15861  0  0.127321  0.100141  0  1.02245  0
H  H16  1  0.05008721  0.42058673  0.36227862  1  0.650506  0  0.301206  0.397484  0  0.940347  0
H  H17  1  0.94991397  0.57941462  0.63772171  1  0.650519  0  0.30122  0.397462  0  0.940379  0
H  H18  1  0.91103909  0.41698552  0.48059931  1  0.636266  0  0.318316  0.418753  0  0.883662  0
H  H19  1  0.08895993  0.58301582  0.51939977  1  0.636278  0  0.318335  0.418765  0  0.883637  0
H  H20  1  0.25506823  0.42773753  0.61112002  1  0.657644  0  0.305098  0.411442  0  0.919299  0
H  H21  1  0.74493606  0.57225993  0.38887826  1  0.657647  0  0.305069  0.411371  0  0.919398  0
H  H22  1  0.36138630  0.40940684  0.47110791  1  0.627346  0  0.336482  0.417567  0  0.863704  0
H  H23  1  0.63861630  0.59058866  0.52888930  1  0.627365  0  0.336453  0.417546  0  0.863646  0
H  H24  1  0.52278040  0.50723535  0.13436704  1  0.674246  0  0.291284  0.400426  0  0.934724  0
H  H25  1  0.47722269  0.49276699  0.86563261  1  0.674317  0  0.291203  0.400285  0  0.934927  0
H  H26  1  0.35306981  0.54764070  0.21756491  1  0.621977  0  0.321477  0.403844  0  0.884145  0
H  H27  1  0.64693076  0.45235869  0.78243315  1  0.621949  0  0.321421  0.403776  0  0.884201  0
C  C28  1  0.41477378  0.17187326  0.29786837  1  1.575259  0  0.205167  0.535457  0  4.23239  0
C  C29  1  0.58522464  0.82812613  0.70213028  1  1.573249  0  0.205223  0.535563  0  4.232509  0
C  C30  1  0.51975846  0.13441786  0.17114569  1  0.52595  0  0.121191  0.088671  0  3.92078  0
C  C31  1  0.48024068  0.86557859  0.82885232  1  0.526023  0  0.121192  0.08859  0  3.920715  0
C  C32  1  0.64195772  0.03038089  0.16168276  1  -0.016431  0  0.018138  -0.030623  0  3.864005  0
C  C33  1  0.35804227  0.96961654  0.83831760  1  -0.016423  0  0.018151  -0.030564  0  3.863995  0
C  C34  1  0.72691788  0.99924439  0.03793700  1  -0.045003  0  -0.058138  -0.054566  0  3.909097  0
C  C35  1  0.27308536  0.00075307  0.96206430  1  -0.044836  0  -0.05814  -0.054686  0  3.909178  0
C  C36  1  0.68722101  0.06868434  0.92987205  1  -0.060806  0  -0.067796  -0.103508  0  3.925573  0
C  C37  1  0.31278173  0.93131507  0.07012725  1  -0.060943  0  -0.06771  -0.103262  0  3.925435  0
C  C38  1  0.56411888  0.17178954  0.94838509  1  0.470839  0  0.053025  0.08924  0  3.946497  0
C  C39  1  0.43588349  0.82820694  0.05161386  1  0.471023  0  0.052987  0.089167  0  3.946534  0
C  C40  1  0.68920383  0.95320118  0.27631672  1  1.633759  0  0.194972  0.591186  0  4.265801  0
C  C41  1  0.31079461  0.04679820  0.72368466  1  1.633273  0  0.194953  0.591173  0  4.265792  0
C  C42  1  0.22450987  0.42998806  0.87037744  1  1.610936  0  0.219269  0.561486  0  4.205632  0
C  C43  1  0.77548630  0.57001620  0.12962470  1  1.610978  0  0.219273  0.561507  0  4.20568  0
C  C44  1  0.11112193  0.35627525  0.95807512  1  0.469166  0  0.110298  0.056324  0  3.957247  0
C  C45  1  0.88888094  0.64372806  0.04192718  1  0.469567  0  0.110235  0.056233  0  3.957281  0
C  C46  1  0.98900846  0.34016251  0.92468616  1  0.0042  0  0.006627  -0.067971  0  3.923119  0
C  C47  1  0.01099199  0.65984177  0.07531298  1  0.003772  0  0.006641  -0.067865  0  3.923085  0
C  C48  1  0.88932182  0.27387532  0.01574585  1  -0.064669  0  -0.062053  -0.051455  0  3.920971  0
C  C49  1  0.11067936  0.72612603  0.98425356  1  -0.064729  0  -0.062047  -0.051419  0  3.920861  0
C  C50  1  0.91492637  0.22286075  0.13418709  1  0.023001  0  -0.070151  -0.097747  0  3.901178  0
C  C51  1  0.08507611  0.77713963  0.86581030  1  0.023324  0  -0.070171  -0.09785  0  3.901085  0
C  C52  1  0.03994684  0.24150512  0.15972685  1  0.467109  0  0.060965  0.115284  0  3.895263  0
C  C53  1  0.96005505  0.75849330  0.84027101  1  0.466772  0  0.060981  0.115313  0  3.895207  0
C  C54  1  0.96465404  0.38342589  0.79373022  1  1.634918  0  0.239098  0.647295  0  4.183451  0
C  C55  1  0.03534691  0.61657644  0.20627092  1  1.635163  0  0.239171  0.647384  0  4.183621  0
C  C56  1  0.06021559  0.97994216  0.43735100  1  1.593241  0  0.217909  0.508548  0  4.228471  0
C  C57  1  0.93978165  0.02006210  0.56265085  1  1.61376  0  0.217807  0.508402  0  4.228797  0
N  N58  1  0.48442665  0.20434327  0.06622298  1  -1.245893  0  -0.31749  -0.261746  0  3.567581  0
N  N59  1  0.51557249  0.79565318  0.93377503  1  -1.245948  0  -0.317488  -0.261682  0  3.567453  0
N  N60  1  0.13330818  0.30740718  0.07394139  1  -1.273565  0  -0.327692  -0.270376  0  3.61897  0
N  N61  1  0.86669324  0.69259319  0.92605811  1  -1.273513  0  -0.32767  -0.270337  0  3.618809  0
O  O62  1  0.30036112  0.26460483  0.29555876  1  -1.177828  0  -0.355741  -0.608639  0  2.396366  0
O  O63  1  0.69963707  0.73539552  0.70444071  1  -1.177822  0  -0.355755  -0.608683  0  2.396491  0
O  O64  1  0.43518606  0.11155299  0.40150553  1  -1.13697  0  -0.319771  -0.531413  0  2.207578  0
O  O65  1  0.56480579  0.88844245  0.59849371  1  -1.135137  0  -0.319808  -0.531458  0  2.207555  0
O  O66  1  0.66254938  0.84035656  0.31175892  1  -1.168316  0  -0.364277  -0.617891  0  2.14681  0
O  O67  1  0.33744929  0.15964185  0.68824164  1  -1.16826  0  -0.364297  -0.617891  0  2.146953  0
O  O68  1  0.76606213  0.00194487  0.32465285  1  -1.167373  0  -0.375107  -0.622349  0  2.183499  0
O  O69  1  0.23393178  0.99805546  0.67534962  1  -1.166901  0  -0.375081  -0.622349  0  2.18336  0
O  O70  1  0.32233994  0.44552927  0.92140796  1  -1.182642  0  -0.312453  -0.566965  0  2.378492  0
O  O71  1  0.67765612  0.55447988  0.07859526  1  -1.182641  0  -0.312453  -0.566967  0  2.378558  0
O  O72  1  0.21652111  0.47281915  0.75913481  1  -1.174881  0  -0.300159  -0.520363  0  2.205313  0
O  O73  1  0.78347661  0.52718316  0.24086540  1  -1.174902  0  -0.300155  -0.520392  0  2.205373  0
O  O74  1  0.03097654  0.30517139  0.71007853  1  -1.183232  0  -0.402474  -0.635592  0  2.367027  0
O  O75  1  0.96902631  0.69483193  0.28992103  1  -1.183274  0  -0.402495  -0.635624  0  2.367054  0
O  O76  1  0.87375936  0.48916889  0.77529497  1  -1.194825  0  -0.300316  -0.558119  0  2.31959  0
O  O77  1  0.12623942  0.51083343  0.22470403  1  -1.194979  0  -0.300365  -0.558213  0  2.31981  0
O  O78  1  0.16102532  0.04476716  0.39659122  1  -1.196974  0  -0.38181  -0.617268  0  2.291742  0
O  O79  1  0.83897288  0.95523320  0.60341007  1  -1.196943  0  -0.381818  -0.617272  0  2.291759  0
O  O80  1  0.04838619  0.88716792  0.38502751  1  -1.172844  0  -0.373732  -0.588424  0  2.25618  0
O  O81  1  0.95160995  0.11283633  0.61497098  1  -1.172927  0  -0.373643  -0.588347  0  2.256478  0
O  O82  1  0.00422200  0.36278026  0.43637698  1  -1.272025  0  -0.639749  -0.85255  0  2.061765  0
O  O83  1  0.99577872  0.63722304  0.56362499  1  -1.272039  0  -0.639784  -0.852555  0  2.061767  0
O  O84  1  0.26001037  0.41241698  0.52183058  1  -1.257241  0  -0.596666  -0.828983  0  2.029163  0
O  O85  1  0.73999440  0.58757853  0.47816787  1  -1.25724  0  -0.59661  -0.828891  0  2.02914  0
O  O86  1  0.42045519  0.49132068  0.15371163  1  -1.272458  0  -0.578117  -0.760564  0  2.119981  0
O  O87  1  0.57954724  0.50867579  0.84629371  1  -1.272509  0  -0.577983  -0.76036  0  2.120241  0
