# generated using pymatgen
data_PrH8C8NO9
_symmetry_space_group_name_H-M   'P 1'
_cell_length_a   6.71281076
_cell_length_b   7.98712697
_cell_length_c   10.41112643
_cell_angle_alpha   79.11335700
_cell_angle_beta   74.79772450
_cell_angle_gamma   88.57167629
_symmetry_Int_Tables_number   1
_chemical_formula_structural   PrH8C8NO9
_chemical_formula_sum   'Pr2 H16 C16 N2 O18'
_cell_volume   528.79714166
_cell_formula_units_Z   2
loop_
 _symmetry_equiv_pos_site_id
 _symmetry_equiv_pos_as_xyz
  1  'x, y, z'
loop_
 _atom_site_type_symbol
 _atom_site_label
 _atom_site_symmetry_multiplicity
 _atom_site_fract_x
 _atom_site_fract_y
 _atom_site_fract_z
 _atom_site_occupancy
 _atom_site_hle17_bader_spin_density
 _atom_site_hle17_ddec_charge
 _atom_site_hle17_ddec_spin_density
 _atom_site_hle17_ddec_sum_bond_order
 _atom_site_hle17_magmom
 _atom_site_hse06_10hf_bader_spin_density
 _atom_site_hse06_10hf_ddec_charge
 _atom_site_hse06_10hf_ddec_spin_density
 _atom_site_hse06_10hf_ddec_sum_bond_order
 _atom_site_hse06_10hf_magmom
 _atom_site_hse06_bader_spin_density
 _atom_site_hse06_ddec_charge
 _atom_site_hse06_ddec_spin_density
 _atom_site_hse06_ddec_sum_bond_order
 _atom_site_hse06_magmom
 _atom_site_pbe_bader_spin_density
 _atom_site_pbe_cm5_charge
 _atom_site_pbe_ddec_charge
 _atom_site_pbe_ddec_spin_density
 _atom_site_pbe_ddec_sum_bond_order
 _atom_site_pbe_magmom
Pr  Pr0  1  0.25000604  0.35347498  0.31695488  1  0  2.333135  0  1.558756  0  0  2.216659  0  1.922558  0  0  2.253542  0  1.882292  0  0  1.456452  2.134579  0  2.054832  0
Pr  Pr1  1  0.74998911  0.64652218  0.68305069  1  0  2.333148  0  1.558825  0  0  2.216678  0  1.922622  0  0  2.253565  0  1.882358  0  0  1.456464  2.134618  0  2.054877  0
H  H2  1  0.36843389  0.88673673  0.93661049  1  0  0.301085  0  0.912806  0  0  0.278869  0  0.975516  0  0  0.288813  0  0.967814  0  0  0.31362  0.271631  0  0.981396  0
H  H3  1  0.63157024  0.11326430  0.06338609  1  0  0.301015  0  0.912839  0  0  0.278812  0  0.975537  0  0  0.288752  0  0.96784  0  0  0.313585  0.271574  0  0.981419  0
H  H4  1  0.75265316  0.29861869  0.24379979  1  0  0.441084  0  0.841706  0  0  0.411712  0  0.908404  0  0  0.421532  0  0.894192  0  0  0.305775  0.404667  0  0.918405  0
H  H5  1  0.24734491  0.70138609  0.75619927  1  0  0.441052  0  0.841778  0  0  0.411694  0  0.908431  0  0  0.421514  0  0.894219  0  0  0.305767  0.404651  0  0.918429  0
H  H6  1  0.68521729  0.26452859  0.39901973  1  0  0.435181  0  0.85679  0  0  0.410309  0  0.911974  0  0  0.419713  0  0.898144  0  0  0.312506  0.403475  0  0.921924  0
H  H7  1  0.31478698  0.73547884  0.60097776  1  0  0.435227  0  0.856742  0  0  0.410369  0  0.911885  0  0  0.419771  0  0.898059  0  0  0.312523  0.403535  0  0.921834  0
H  H8  1  0.26328071  0.67927512  0.42564308  1  0  0.431881  0  0.874688  0  0  0.401131  0  0.938456  0  0  0.412286  0  0.921938  0  0  0.301169  0.393264  0  0.949901  0
H  H9  1  0.73672034  0.32072714  0.57435389  1  0  0.431788  0  0.87479  0  0  0.401018  0  0.938593  0  0  0.412173  0  0.922075  0  0  0.301127  0.39315  0  0.950039  0
H  H10  1  0.49848791  0.63753577  0.40785374  1  0  0.428245  0  0.874777  0  0  0.40308  0  0.930055  0  0  0.412018  0  0.916932  0  0  0.304989  0.396495  0  0.939551  0
H  H11  1  0.50151155  0.36246645  0.59214256  1  0  0.428202  0  0.87484  0  0  0.403038  0  0.930118  0  0  0.411978  0  0.916991  0  0  0.304977  0.396454  0  0.939613  0
H  H12  1  0.35473524  0.02961279  0.72525611  1  0  0.119421  0  0.934898  0  0  0.123362  0  1.004296  0  0  0.128345  0  0.998672  0  0  0.135139  0.119544  0  1.008815  0
H  H13  1  0.64527044  0.97038954  0.27473998  1  0  0.119406  0  0.934923  0  0  0.123342  0  1.004316  0  0  0.128326  0  0.998688  0  0  0.135137  0.119527  0  1.008826  0
H  H14  1  0.23266569  0.98116405  0.14341528  1  0  0.121971  0  0.922108  0  0  0.130254  0  0.9847  0  0  0.134141  0  0.981304  0  0  0.134655  0.127518  0  0.987161  0
H  H15  1  0.76733845  0.01883317  0.85658285  1  0  0.122026  0  0.922117  0  0  0.130296  0  0.984708  0  0  0.134185  0  0.981312  0  0  0.134668  0.12756  0  0.987169  0
H  H16  1  0.01105031  0.42477592  0.91275101  1  0  0.129462  0  0.964419  0  0  0.135157  0  1.032485  0  0  0.140182  0  1.027917  0  0  0.116718  0.131698  0  1.035402  0
H  H17  1  0.98895086  0.57522384  0.08724920  1  0  0.129486  0  0.964475  0  0  0.135193  0  1.03253  0  0  0.140226  0  1.027941  0  0  0.116737  0.131728  0  1.035455  0
C  C18  1  0.15195055  0.32667178  0.66679968  1  0  0.71232  0  3.859365  0  0  0.663979  0  4.149825  0  0  0.698329  0  4.139522  0  0  0.242342  0.640248  0  4.153475  0
C  C19  1  0.84805516  0.67332165  0.33319970  1  0  0.712446  0  3.859472  0  0  0.664112  0  4.149905  0  0  0.698472  0  4.139604  0  0  0.242398  0.640381  0  4.153558  0
C  C20  1  0.17397653  0.23886077  0.80385423  1  0  -0.089399  0  3.747161  0  0  -0.063179  0  3.985592  0  0  -0.072289  0  4.007365  0  0  -0.005555  -0.057762  0  3.971939  0
C  C21  1  0.82602617  0.76114409  0.19614394  1  0  -0.089417  0  3.747161  0  0  -0.063184  0  3.985562  0  0  -0.072333  0  4.00739  0  0  -0.005561  -0.057767  0  3.971908  0
C  C22  1  0.28057882  0.08686181  0.81192356  1  0  0.102562  0  3.590633  0  0  0.044748  0  3.853911  0  0  0.054015  0  3.86551  0  0  0.05244  0.038615  0  3.846915  0
C  C23  1  0.71942380  0.91313793  0.18807446  1  0  0.102505  0  3.590749  0  0  0.044686  0  3.854062  0  0  0.053962  0  3.865679  0  0  0.052427  0.038556  0  3.847063  0
C  C24  1  0.21242848  0.06041418  0.05068661  1  0  0.005407  0  3.545988  0  0  -0.047077  0  3.816568  0  0  -0.041877  0  3.82965  0  0  0.045885  -0.05062  0  3.807893  0
C  C25  1  0.78757718  0.93958433  0.94931007  1  0  0.005202  0  3.546121  0  0  -0.047283  0  3.816729  0  0  -0.042081  0  3.829801  0  0  0.045874  -0.050829  0  3.808062  0
C  C26  1  0.11012885  0.21819727  0.05013071  1  0  0.327823  0  3.937203  0  0  0.321401  0  4.207327  0  0  0.330886  0  4.224829  0  0  0.088382  0.314718  0  4.19292  0
C  C27  1  0.88987538  0.78179998  0.94986931  1  0  0.327875  0  3.937097  0  0  0.32144  0  4.207229  0  0  0.330928  0  4.224724  0  0  0.088397  0.314757  0  4.192823  0
C  C28  1  0.09030485  0.30397448  0.92124526  1  0  -0.122321  0  3.571541  0  0  -0.160741  0  3.823474  0  0  -0.159557  0  3.837787  0  0  -0.06733  -0.16126  0  3.814607  0
C  C29  1  0.90969782  0.69602528  0.07875371  1  0  -0.122404  0  3.571661  0  0  -0.160828  0  3.823557  0  0  -0.159632  0  3.837884  0  0  -0.06738  -0.161338  0  3.814679  0
C  C30  1  0.90287425  0.04920519  0.52922931  1  0  0.578601  0  3.88685  0  0  0.531374  0  4.1899  0  0  0.561317  0  4.179813  0  0  0.228182  0.511374  0  4.191443  0
C  C31  1  0.09712666  0.95080846  0.47076112  1  0  0.57892  0  3.886585  0  0  0.53165  0  4.189643  0  0  0.561591  0  4.179554  0  0  0.228264  0.511654  0  4.191189  0
C  C32  1  0.54704164  0.41172015  0.99317694  1  0  0.54971  0  3.934843  0  0  0.504459  0  4.238534  0  0  0.533703  0  4.229962  0  0  0.214972  0.485131  0  4.238466  0
C  C33  1  0.45295975  0.58827460  0.00682976  1  0  0.549276  0  3.935119  0  0  0.504081  0  4.238753  0  0  0.533321  0  4.230184  0  0  0.214687  0.484756  0  4.238682  0
N  N34  1  0.29293468  0.00396415  0.93443669  1  0  -0.191713  0  3.540065  0  0  -0.116509  0  3.770904  0  0  -0.130774  0  3.788769  0  0  -0.343913  -0.107312  0  3.759847  0
N  N35  1  0.70707099  0.99603563  0.06555979  1  0  -0.191464  0  3.539986  0  0  -0.116256  0  3.770795  0  0  -0.130516  0  3.78866  0  0  -0.343888  -0.107059  0  3.759734  0
O  O36  1  0.26962962  0.27533466  0.56414667  1  0  -0.734441  0  2.022968  0  0  -0.680125  0  2.25659  0  0  -0.704945  0  2.246624  0  0  -0.369388  -0.657042  0  2.264559  0
O  O37  1  0.73036551  0.72467268  0.43585542  1  0  -0.734545  0  2.022711  0  0  -0.68025  0  2.25634  0  0  -0.70507  0  2.246366  0  0  -0.369456  -0.65717  0  2.264317  0
O  O38  1  0.02334489  0.44318924  0.65955999  1  0  -0.700612  0  2.064527  0  0  -0.656512  0  2.329999  0  0  -0.678166  0  2.316084  0  0  -0.387147  -0.633505  0  2.339912  0
O  O39  1  0.97664407  0.55681799  0.34044327  1  0  -0.700642  0  2.06502  0  0  -0.656516  0  2.330423  0  0  -0.678166  0  2.316502  0  0  -0.387095  -0.633508  0  2.340334  0
O  O40  1  0.04095070  0.27935857  0.16133287  1  0  -0.748909  0  2.036275  0  0  -0.70006  0  2.281608  0  0  -0.723933  0  2.278557  0  0  -0.406544  -0.676483  0  2.284285  0
O  O41  1  0.95905188  0.72063480  0.83866613  1  0  -0.748867  0  2.036119  0  0  -0.700027  0  2.281452  0  0  -0.723895  0  2.278395  0  0  -0.406526  -0.676449  0  2.284126  0
O  O42  1  0.75888617  0.96990761  0.62224058  1  0  -0.637246  0  1.996206  0  0  -0.600919  0  2.240208  0  0  -0.621317  0  2.22887  0  0  -0.353112  -0.580568  0  2.249613  0
O  O43  1  0.24108894  0.03008542  0.37777033  1  0  -0.637209  0  1.996901  0  0  -0.600879  0  2.240936  0  0  -0.621254  0  2.229567  0  0  -0.353069  -0.580526  0  2.250326  0
O  O44  1  0.90632662  0.20733434  0.47638196  1  0  -0.686563  0  2.164046  0  0  -0.62405  0  2.389271  0  0  -0.648497  0  2.380266  0  0  -0.333127  -0.602147  0  2.396195  0
O  O45  1  0.09366546  0.79265769  0.52362594  1  0  -0.686876  0  2.163251  0  0  -0.624361  0  2.388467  0  0  -0.648817  0  2.379464  0  0  -0.333304  -0.60246  0  2.395394  0
O  O46  1  0.50175591  0.29519905  0.09963372  1  0  -0.672243  0  2.115647  0  0  -0.615843  0  2.351193  0  0  -0.640719  0  2.344842  0  0  -0.35498  -0.592973  0  2.355451  0
O  O47  1  0.49824542  0.70479313  0.90037243  1  0  -0.672083  0  2.115827  0  0  -0.615655  0  2.351288  0  0  -0.640538  0  2.344956  0  0  -0.354868  -0.592792  0  2.355555  0
O  O48  1  0.66024993  0.39414457  0.88020818  1  0  -0.626869  0  2.073895  0  0  -0.586321  0  2.320772  0  0  -0.607739  0  2.313576  0  0  -0.347453  -0.565865  0  2.325992  0
O  O49  1  0.33975605  0.60585659  0.11979476  1  0  -0.626734  0  2.073816  0  0  -0.58621  0  2.320687  0  0  -0.607621  0  2.313481  0  0  -0.347346  -0.565756  0  2.325909  0
O  O50  1  0.62743095  0.29203711  0.32038079  1  0  -0.888557  0  1.83307  0  0  -0.845896  0  2.020347  0  0  -0.86289  0  1.990423  0  0  -0.627643  -0.827165  0  2.04451  0
O  O51  1  0.37256716  0.70796641  0.67961941  1  0  -0.888561  0  1.833071  0  0  -0.845926  0  2.020329  0  0  -0.862918  0  1.990404  0  0  -0.627664  -0.827195  0  2.044492  0
O  O52  1  0.37448155  0.60718831  0.38288969  1  0  -0.918952  0  1.900209  0  0  -0.879218  0  2.094173  0  0  -0.896092  0  2.062866  0  0  -0.656983  -0.860222  0  2.118992  0
O  O53  1  0.62551346  0.39281389  0.61711129  1  0  -0.918833  0  1.900309  0  0  -0.879077  0  2.094254  0  0  -0.895949  0  2.062953  0  0  -0.656926  -0.860086  0  2.119083  0
