# generated using pymatgen
data_CdH21C22S(NO2)3
_symmetry_space_group_name_H-M   'P 1'
_cell_length_a   4.95751036
_cell_length_b   12.45935384
_cell_length_c   18.31550758
_cell_angle_alpha   93.07913261
_cell_angle_beta   90.00392716
_cell_angle_gamma   101.44762503
_symmetry_Int_Tables_number   1
_chemical_formula_structural   CdH21C22S(NO2)3
_chemical_formula_sum   'Cd2 H42 C44 S2 N6 O12'
_cell_volume   1107.12804446
_cell_formula_units_Z   2
loop_
 _symmetry_equiv_pos_site_id
 _symmetry_equiv_pos_as_xyz
  1  'x, y, z'
loop_
 _atom_site_type_symbol
 _atom_site_label
 _atom_site_symmetry_multiplicity
 _atom_site_fract_x
 _atom_site_fract_y
 _atom_site_fract_z
 _atom_site_occupancy
 _atom_site_hle17_bader_spin_density
 _atom_site_hle17_ddec_charge
 _atom_site_hle17_ddec_spin_density
 _atom_site_hle17_ddec_sum_bond_order
 _atom_site_hle17_magmom
 _atom_site_hse06_10hf_bader_spin_density
 _atom_site_hse06_10hf_ddec_charge
 _atom_site_hse06_10hf_ddec_spin_density
 _atom_site_hse06_10hf_ddec_sum_bond_order
 _atom_site_hse06_10hf_magmom
 _atom_site_hse06_bader_spin_density
 _atom_site_hse06_ddec_charge
 _atom_site_hse06_ddec_spin_density
 _atom_site_hse06_ddec_sum_bond_order
 _atom_site_hse06_magmom
 _atom_site_pbe_bader_spin_density
 _atom_site_pbe_cm5_charge
 _atom_site_pbe_ddec_charge
 _atom_site_pbe_ddec_spin_density
 _atom_site_pbe_ddec_sum_bond_order
 _atom_site_pbe_magmom
Cd  Cd0  1  0.87560448  0.75383512  0.65114610  1  0  1.126261  0  1.637522  0  0  0.928983  0  2.07981  0  0  0.991483  0  2.025411  0  0  0.773358  0.884612  0  2.116936  0
Cd  Cd1  1  0.12197497  0.24605078  0.34881551  1  0  1.125256  0  1.638931  0  0  0.927776  0  2.081178  0  0  0.990277  0  2.026758  0  0  0.773158  0.883406  0  2.118313  0
H  H2  1  0.00415860  0.41486319  0.73375418  1  0  0.323523  0  0.903484  0  0  0.305099  0  0.97027  0  0  0.313105  0  0.963224  0  0  0.307095  0.299402  0  0.975364  0
H  H3  1  0.58901299  0.58522217  0.26622246  1  0  0.324929  0  0.901282  0  0  0.306707  0  0.967831  0  0  0.314726  0  0.960807  0  0  0.307916  0.301056  0  0.9728  0
H  H4  1  0.56335856  0.50590431  0.67830435  1  0  0.088972  0  0.937729  0  0  0.09748  0  1.000732  0  0  0.099917  0  0.999459  0  0  0.117385  0.095719  0  1.001747  0
H  H5  1  0.05723298  0.49394870  0.32159409  1  0  0.087762  0  0.93923  0  0  0.095665  0  1.002176  0  0  0.098077  0  1.000913  0  0  0.116986  0.093919  0  1.003195  0
H  H6  1  0.35896568  0.51803191  0.55657270  1  0  0.105482  0  0.92926  0  0  0.118944  0  0.991232  0  0  0.120944  0  0.990525  0  0  0.102716  0.117453  0  0.991837  0
H  H7  1  0.84104241  0.48188712  0.44334781  1  0  0.105525  0  0.929416  0  0  0.118732  0  0.991505  0  0  0.12082  0  0.990691  0  0  0.102446  0.117177  0  0.992174  0
H  H8  1  0.03493740  0.44724360  0.58492840  1  0  0.081332  0  0.930136  0  0  0.096365  0  0.992441  0  0  0.097735  0  0.991989  0  0  0.093824  0.095306  0  0.992934  0
H  H9  1  0.58763151  0.55269941  0.41501051  1  0  0.081012  0  0.929931  0  0  0.096205  0  0.991786  0  0  0.097576  0  0.991339  0  0  0.093701  0.095105  0  0.992308  0
H  H10  1  0.25269844  0.28209158  0.60751849  1  0  0.089945  0  0.948013  0  0  0.103508  0  1.013227  0  0  0.105264  0  1.013084  0  0  0.093055  0.102313  0  1.01336  0
H  H11  1  0.97043385  0.71777435  0.39230854  1  0  0.090575  0  0.947037  0  0  0.104001  0  1.012299  0  0  0.105749  0  1.012099  0  0  0.093312  0.102793  0  1.012454  0
H  H12  1  0.56809102  0.35557832  0.57525070  1  0  0.09978  0  0.918493  0  0  0.120761  0  0.970992  0  0  0.122506  0  0.970287  0  0  0.103612  0.119489  0  0.971655  0
H  H13  1  0.21226352  0.64426528  0.42470350  1  0  0.100386  0  0.918117  0  0  0.121243  0  0.970634  0  0  0.122899  0  0.970012  0  0  0.103839  0.120022  0  0.971225  0
H  H14  1  0.04692206  0.44470235  0.91507371  1  0  0.103139  0  0.962081  0  0  0.112713  0  1.024672  0  0  0.115179  0  1.024026  0  0  0.106038  0.110891  0  1.025263  0
H  H15  1  0.60267596  0.55560304  0.08471991  1  0  0.102434  0  0.960324  0  0  0.111738  0  1.023535  0  0  0.11413  0  1.022924  0  0  0.105775  0.109952  0  1.024101  0
H  H16  1  0.12850146  0.59710462  0.01005065  1  0  0.092728  0  0.974188  0  0  0.10235  0  1.037353  0  0  0.104353  0  1.038609  0  0  0.097522  0.1009  0  1.036627  0
H  H17  1  0.53207791  0.40301096  0.98987039  1  0  0.092341  0  0.973817  0  0  0.101868  0  1.037303  0  0  0.103897  0  1.038538  0  0  0.097521  0.100402  0  1.036589  0
H  H18  1  0.88088813  0.73932529  0.90430462  1  0  0.085726  0  0.967114  0  0  0.097227  0  1.027429  0  0  0.099708  0  1.027891  0  0  0.095343  0.09545  0  1.027235  0
H  H19  1  0.14169134  0.26067275  0.09596164  1  0  0.086421  0  0.966052  0  0  0.098249  0  1.026019  0  0  0.100664  0  1.026558  0  0  0.095782  0.096504  0  1.025782  0
H  H20  1  0.80139136  0.58662745  0.80933189  1  0  0.119415  0  0.985264  0  0  0.124054  0  1.053786  0  0  0.127982  0  1.051187  0  0  0.105672  0.12119  0  1.055699  0
H  H21  1  0.21501285  0.41364774  0.19073869  1  0  0.118566  0  0.986304  0  0  0.123692  0  1.054321  0  0  0.127467  0  1.052003  0  0  0.105564  0.120884  0  1.056131  0
H  H22  1  0.39728487  0.76192228  0.06265685  1  0  0.117614  0  0.940978  0  0  0.139181  0  0.998866  0  0  0.141417  0  0.997377  0  0  0.094113  0.13751  0  0.999987  0
H  H23  1  0.63514053  0.23790663  0.93762621  1  0  0.117018  0  0.941322  0  0  0.138987  0  0.998833  0  0  0.141226  0  0.997342  0  0  0.094109  0.137307  0  0.999979  0
H  H24  1  0.62405530  0.84879866  0.00481476  1  0  0.09506  0  0.95944  0  0  0.115374  0  1.023962  0  0  0.117304  0  1.022602  0  0  0.085801  0.114015  0  1.024896  0
H  H25  1  0.77515095  0.15111499  0.99555347  1  0  0.095024  0  0.959415  0  0  0.115205  0  1.02414  0  0  0.117144  0  1.022771  0  0  0.085522  0.113839  0  1.025076  0
H  H26  1  0.74922569  0.75557398  0.05892937  1  0  0.131065  0  0.953612  0  0  0.152294  0  1.01309  0  0  0.154331  0  1.012188  0  0  0.096316  0.15081  0  1.013737  0
H  H27  1  0.99333486  0.24401356  0.94122533  1  0  0.131254  0  0.953009  0  0  0.152536  0  1.0124  0  0  0.154543  0  1.011531  0  0  0.096341  0.151057  0  1.013035  0
H  H28  1  0.27414363  0.74766100  0.79205313  1  0  0.083293  0  0.961766  0  0  0.090934  0  1.026748  0  0  0.092753  0  1.025844  0  0  0.11665  0.089537  0  1.027484  0
H  H29  1  0.52647177  0.25230511  0.20813508  1  0  0.083108  0  0.962456  0  0  0.090748  0  1.027381  0  0  0.092522  0  1.026582  0  0  0.116587  0.089357  0  1.028073  0
H  H30  1  0.50906925  0.86784248  0.89615199  1  0  0.091509  0  0.993721  0  0  0.102468  0  1.054897  0  0  0.104542  0  1.055624  0  0  0.100619  0.100989  0  1.054496  0
H  H31  1  0.64228609  0.13223540  0.10410259  1  0  0.090846  0  0.993813  0  0  0.101976  0  1.054858  0  0  0.104032  0  1.055608  0  0  0.100565  0.100495  0  1.054452  0
H  H32  1  0.42799923  0.06191084  0.91184389  1  0  0.085074  0  0.961764  0  0  0.099116  0  1.017503  0  0  0.101148  0  1.016117  0  0  0.104707  0.097624  0  1.018495  0
H  H33  1  0.36724314  0.93825853  0.08811316  1  0  0.085312  0  0.960953  0  0  0.099342  0  1.016635  0  0  0.101356  0  1.015284  0  0  0.104949  0.097852  0  1.017621  0
H  H34  1  0.12992617  0.12599612  0.82247121  1  0  0.123712  0  0.989537  0  0  0.131355  0  1.050786  0  0  0.134927  0  1.049099  0  0  0.109066  0.128778  0  1.052124  0
H  H35  1  0.00448996  0.87407117  0.17728917  1  0  0.122809  0  0.989705  0  0  0.130837  0  1.050579  0  0  0.134397  0  1.048916  0  0  0.108683  0.128248  0  1.051964  0
H  H36  1  0.89429426  0.17211736  0.74768935  1  0  0.116927  0  0.969542  0  0  0.12424  0  1.033038  0  0  0.127768  0  1.031302  0  0  0.107031  0.121693  0  1.034391  0
H  H37  1  0.72229594  0.82783806  0.25217470  1  0  0.117467  0  0.969247  0  0  0.124756  0  1.032762  0  0  0.128259  0  1.03108  0  0  0.107035  0.12223  0  1.034072  0
H  H38  1  0.58731928  0.21771264  0.65373967  1  0  0.095046  0  0.961081  0  0  0.10413  0  1.024418  0  0  0.106593  0  1.022684  0  0  0.107613  0.102272  0  1.02575  0
H  H39  1  0.37005461  0.78229868  0.34619233  1  0  0.094665  0  0.961718  0  0  0.104127  0  1.024452  0  0  0.10656  0  1.022797  0  0  0.107564  0.10228  0  1.025762  0
H  H40  1  0.37730473  0.07421066  0.55749417  1  0  0.12328  0  0.94999  0  0  0.131877  0  1.008527  0  0  0.136148  0  1.006294  0  0  0.112178  0.128761  0  1.010308  0
H  H41  1  0.30416137  0.92572968  0.44257623  1  0  0.122816  0  0.950497  0  0  0.131292  0  1.009244  0  0  0.135416  0  1.007184  0  0  0.112035  0.128249  0  1.010954  0
H  H42  1  0.49102592  0.88580748  0.56164643  1  0  0.094516  0  0.954958  0  0  0.100589  0  1.02085  0  0  0.103637  0  1.01799  0  0  0.118973  0.098291  0  1.023033  0
H  H43  1  0.60656158  0.11401009  0.43850688  1  0  0.094339  0  0.954864  0  0  0.100446  0  1.020603  0  0  0.103463  0  1.017811  0  0  0.118701  0.098162  0  1.022755  0
C  C44  1  0.24817396  0.60416336  0.68559358  1  0  0.640797  0  3.863089  0  0  0.588231  0  4.167643  0  0  0.622154  0  4.16138  0  0  0.204087  0.565155  0  4.171081  0
C  C45  1  0.64401873  0.39573224  0.31435648  1  0  0.638018  0  3.865491  0  0  0.586865  0  4.167177  0  0  0.620719  0  4.160965  0  0  0.203517  0.563825  0  4.170582  0
C  C46  1  0.33914840  0.49444562  0.67165068  1  0  0.039434  0  3.597232  0  0  0.01922  0  3.840952  0  0  0.018092  0  3.853037  0  0  0.004889  0.019862  0  3.832818  0
C  C47  1  0.84449197  0.50544389  0.32826749  1  0  0.040777  0  3.600387  0  0  0.022224  0  3.840165  0  0  0.021234  0  3.852296  0  0  0.00544  0.022747  0  3.832143  0
C  C48  1  0.25814946  0.45437714  0.59219594  1  0  -0.115417  0  3.639948  0  0  -0.161044  0  3.900841  0  0  -0.161011  0  3.911743  0  0  -0.161361  -0.160835  0  3.893339  0
C  C49  1  0.80370777  0.54554420  0.40772171  1  0  -0.115512  0  3.641079  0  0  -0.160954  0  3.900074  0  0  -0.160974  0  3.910858  0  0  -0.161484  -0.160687  0  3.89264  0
C  C50  1  0.34255003  0.34614765  0.57065033  1  0  -0.237251  0  3.67327  0  0  -0.278273  0  3.927125  0  0  -0.283581  0  3.935159  0  0  -0.16295  -0.274667  0  3.921519  0
C  C51  1  0.99615467  0.65375921  0.42923280  1  0  -0.238963  0  3.671693  0  0  -0.279822  0  3.925793  0  0  -0.284925  0  3.933511  0  0  -0.163389  -0.276266  0  3.920259  0
C  C52  1  0.26432464  0.30329587  0.49271145  1  0  0.677724  0  3.876308  0  0  0.637882  0  4.162701  0  0  0.671236  0  4.158945  0  0  0.192236  0.615284  0  4.164192  0
C  C53  1  0.96073537  0.69676260  0.50714672  1  0  0.680845  0  3.8714  0  0  0.640245  0  4.158795  0  0  0.673582  0  4.154973  0  0  0.193217  0.61763  0  4.16035  0
C  C54  1  0.42139409  0.50554802  0.85765924  1  0  -0.142647  0  3.763576  0  0  -0.119467  0  4.019083  0  0  -0.127593  0  4.041312  0  0  -0.027948  -0.114326  0  4.004438  0
C  C55  1  0.91634687  0.49478790  0.14222822  1  0  -0.143542  0  3.761868  0  0  -0.120198  0  4.017409  0  0  -0.128367  0  4.039632  0  0  -0.027995  -0.115016  0  4.002744  0
C  C56  1  0.22897757  0.50958244  0.91297398  1  0  -0.057424  0  3.768751  0  0  -0.08194  0  4.018849  0  0  -0.079813  0  4.038494  0  0  -0.084453  -0.083153  0  4.005568  0
C  C57  1  0.71995195  0.49071847  0.08688452  1  0  -0.056094  0  3.764786  0  0  -0.080454  0  4.015006  0  0  -0.07822  0  4.034691  0  0  -0.083867  -0.081724  0  4.001698  0
C  C58  1  0.27624006  0.59569073  0.96608713  1  0  -0.129297  0  3.722396  0  0  -0.144221  0  3.964706  0  0  -0.149838  0  3.98709  0  0  -0.090989  -0.140573  0  3.949584  0
C  C59  1  0.68124862  0.40451004  0.03384474  1  0  -0.128184  0  3.724162  0  0  -0.143037  0  3.966169  0  0  -0.148668  0  3.988561  0  0  -0.090908  -0.139379  0  3.951043  0
C  C60  1  0.51280788  0.67857470  0.96478236  1  0  0.143094  0  3.756904  0  0  0.167548  0  3.993001  0  0  0.170741  0  4.016054  0  0  -0.007143  0.165531  0  3.977256  0
C  C61  1  0.83470281  0.32149601  0.03530835  1  0  0.141989  0  3.760159  0  0  0.166476  0  3.996398  0  0  0.16967  0  4.019452  0  0  -0.00755  0.164452  0  3.980651  0
C  C62  1  0.69642099  0.67514157  0.90675592  1  0  -0.128361  0  3.722891  0  0  -0.143292  0  3.965725  0  0  -0.148319  0  3.986984  0  0  -0.092648  -0.140031  0  3.951377  0
C  C63  1  0.02165056  0.32498127  0.09336631  1  0  -0.128992  0  3.720432  0  0  -0.144212  0  3.963554  0  0  -0.149176  0  3.984778  0  0  -0.092914  -0.140975  0  3.949218  0
C  C64  1  0.65375296  0.58945629  0.85323689  1  0  -0.058507  0  3.733813  0  0  -0.082596  0  3.984235  0  0  -0.081127  0  4.003573  0  0  -0.085885  -0.083365  0  3.971202  0
C  C65  1  0.06475304  0.41082159  0.14677531  1  0  -0.05675  0  3.732447  0  0  -0.081429  0  3.983211  0  0  -0.079871  0  4.002577  0  0  -0.085176  -0.08223  0  3.970101  0
C  C66  1  0.57266433  0.76602938  0.02562154  1  0  -0.347809  0  3.723674  0  0  -0.428418  0  3.960317  0  0  -0.430675  0  3.966857  0  0  -0.240831  -0.426566  0  3.955683  0
C  C67  1  0.80657420  0.23379940  0.97461453  1  0  -0.347581  0  3.724304  0  0  -0.428435  0  3.960828  0  0  -0.430692  0  3.967368  0  0  -0.240859  -0.426595  0  3.956247  0
C  C68  1  0.24610889  0.83174598  0.80125391  1  0  0.146241  0  3.710359  0  0  0.114309  0  3.965337  0  0  0.121937  0  3.983114  0  0  0.049961  0.109321  0  3.953259  0
C  C69  1  0.41460684  0.16821445  0.19885962  1  0  0.146179  0  3.711379  0  0  0.11398  0  3.966579  0  0  0.121625  0  3.984299  0  0  0.050023  0.109017  0  3.954491  0
C  C70  1  0.37545052  0.89925668  0.85924014  1  0  -0.137017  0  3.762034  0  0  -0.149762  0  4.012362  0  0  -0.1573  0  4.034772  0  0  -0.091977  -0.144881  0  3.997236  0
C  C71  1  0.47695002  0.10076007  0.14089036  1  0  -0.136559  0  3.76331  0  0  -0.149444  0  4.01389  0  0  -0.156957  0  4.036301  0  0  -0.092496  -0.14456  0  3.998743  0
C  C72  1  0.33006060  0.00606573  0.86744789  1  0  -0.010627  0  3.76137  0  0  -0.025942  0  4.004418  0  0  -0.022768  0  4.024057  0  0  -0.073097  -0.027727  0  3.990916  0
C  C73  1  0.32486348  0.99401099  0.13254539  1  0  -0.011246  0  3.761244  0  0  -0.026632  0  4.004339  0  0  -0.023456  0  4.023977  0  0  -0.073413  -0.028411  0  3.990817  0
C  C74  1  0.16075959  0.04193611  0.81756773  1  0  -0.149523  0  3.692758  0  0  -0.166801  0  3.935925  0  0  -0.17441  0  3.957054  0  0  -0.082816  -0.16188  0  3.921733  0
C  C75  1  0.11937380  0.95808869  0.18231092  1  0  -0.147932  0  3.691603  0  0  -0.164957  0  3.93465  0  0  -0.172579  0  3.955767  0  0  -0.081973  -0.160028  0  3.920481  0
C  C76  1  0.03874393  0.96954183  0.76009946  1  0  0.185317  0  3.756869  0  0  0.180924  0  3.998189  0  0  0.18851  0  4.019387  0  0  0.124146  0.175879  0  3.983681  0
C  C77  1  0.06951728  0.03037868  0.23984199  1  0  0.186172  0  3.758797  0  0  0.180353  0  4.001313  0  0  0.187998  0  4.022482  0  0  0.12423  0.17524  0  3.98687  0
C  C78  1  0.85886881  0.00349035  0.70449438  1  0  0.163142  0  3.782355  0  0  0.158702  0  4.024103  0  0  0.163817  0  4.047386  0  0  0.115095  0.15536  0  4.008133  0
C  C79  1  0.85577406  0.99638716  0.29545235  1  0  0.161163  0  3.783295  0  0  0.157862  0  4.024091  0  0  0.162954  0  4.04736  0  0  0.114532  0.154551  0  4.008113  0
C  C80  1  0.80404643  0.10963029  0.70611240  1  0  -0.138987  0  3.689301  0  0  -0.157885  0  3.936624  0  0  -0.164766  0  3.958084  0  0  -0.079826  -0.153367  0  3.92215  0
C  C81  1  0.69474352  0.89031061  0.29381007  1  0  -0.140056  0  3.689375  0  0  -0.159258  0  3.936621  0  0  -0.166169  0  3.958159  0  0  -0.080249  -0.154718  0  3.922075  0
C  C82  1  0.63080759  0.13545169  0.65280798  1  0  0.002597  0  3.713449  0  0  -0.015397  0  3.961815  0  0  -0.012671  0  3.981319  0  0  -0.065106  -0.016963  0  3.948536  0
C  C83  1  0.49599223  0.86450742  0.34716627  1  0  0.003246  0  3.713549  0  0  -0.014934  0  3.96191  0  0  -0.012211  0  3.981389  0  0  -0.064668  -0.016497  0  3.94862  0
C  C84  1  0.51412168  0.05559287  0.59962125  1  0  -0.104438  0  3.677123  0  0  -0.117765  0  3.926585  0  0  -0.124493  0  3.947054  0  0  -0.073581  -0.113419  0  3.912876  0
C  C85  1  0.45950794  0.94431257  0.40045278  1  0  -0.103619  0  3.677725  0  0  -0.116962  0  3.92753  0  0  -0.123581  0  3.948021  0  0  -0.073642  -0.112661  0  3.913763  0
C  C86  1  0.57980097  0.95178826  0.60131711  1  0  0.147121  0  3.669028  0  0  0.115612  0  3.922741  0  0  0.1228  0  3.940071  0  0  0.056529  0.110903  0  3.910998  0
C  C87  1  0.62908009  0.04802889  0.39879682  1  0  0.145946  0  3.6712  0  0  0.114292  0  3.924874  0  0  0.121485  0  3.942174  0  0  0.056347  0.109595  0  3.913105  0
S  S88  1  0.37236616  0.38929812  0.79471038  1  0  1.217115  0  5.428886  0  0  1.116385  0  5.949924  0  0  1.160632  0  5.932544  0  0  0.562488  1.085974  0  5.961113  0
S  S89  1  0.98272961  0.61090313  0.20528093  1  0  1.217451  0  5.428739  0  0  1.117356  0  5.949287  0  0  1.161635  0  5.931943  0  0  0.563158  1.086937  0  5.960493  0
N  N90  1  0.20692651  0.41271080  0.72254036  1  0  -0.55191  0  3.148868  0  0  -0.500092  0  3.421463  0  0  -0.518487  0  3.423394  0  0  -0.449866  -0.487177  0  3.419775  0
N  N91  1  0.79388201  0.58719858  0.27739157  1  0  -0.552731  0  3.150107  0  0  -0.50206  0  3.422783  0  0  -0.520721  0  3.424977  0  0  -0.450202  -0.489077  0  3.421043  0
N  N92  1  0.08217271  0.86593414  0.75316057  1  0  -0.356517  0  3.225235  0  0  -0.286348  0  3.486374  0  0  -0.306354  0  3.503643  0  0  -0.317479  -0.272719  0  3.474417  0
N  N93  1  0.21635914  0.13396159  0.24686692  1  0  -0.356348  0  3.228235  0  0  -0.285396  0  3.489494  0  0  -0.305423  0  3.506762  0  0  -0.317006  -0.271738  0  3.477526  0
N  N94  1  0.74825010  0.92697517  0.65224207  1  0  -0.355593  0  3.245719  0  0  -0.284449  0  3.504005  0  0  -0.304566  0  3.523378  0  0  -0.320919  -0.270675  0  3.490518  0
N  N95  1  0.82196509  0.07282893  0.34780652  1  0  -0.352756  0  3.244964  0  0  -0.281609  0  3.502253  0  0  -0.301688  0  3.521609  0  0  -0.31962  -0.267846  0  3.488742  0
O  O96  1  0.19286712  0.30157851  0.83037122  1  0  -0.615701  0  1.995869  0  0  -0.565536  0  2.246813  0  0  -0.585032  0  2.233755  0  0  -0.314012  -0.551737  0  2.255136  0
O  O97  1  0.89025535  0.69861044  0.16973611  1  0  -0.616228  0  1.997629  0  0  -0.566198  0  2.24832  0  0  -0.585675  0  2.235234  0  0  -0.314939  -0.552473  0  2.256795  0
O  O98  1  0.64193797  0.37384865  0.77151462  1  0  -0.601925  0  1.993426  0  0  -0.550613  0  2.246428  0  0  -0.570239  0  2.233543  0  0  -0.30891  -0.53694  0  2.254816  0
O  O99  1  0.26774784  0.62649217  0.22849349  1  0  -0.601712  0  1.991808  0  0  -0.550918  0  2.245009  0  0  -0.570413  0  2.23207  0  0  -0.309315  -0.537249  0  2.253247  0
O  O100  1  0.00387314  0.60076328  0.70846356  1  0  -0.643581  0  2.012099  0  0  -0.577061  0  2.261392  0  0  -0.60523  0  2.250895  0  0  -0.325611  -0.557353  0  2.267962  0
O  O101  1  0.40312310  0.39912169  0.29145863  1  0  -0.642336  0  2.012845  0  0  -0.576641  0  2.261248  0  0  -0.604691  0  2.25073  0  0  -0.325278  -0.556888  0  2.267643  0
O  O102  1  0.40632964  0.69285145  0.66964441  1  0  -0.655031  0  2.044247  0  0  -0.590489  0  2.314138  0  0  -0.619939  0  2.301867  0  0  -0.330207  -0.569563  0  2.321424  0
O  O103  1  0.71362463  0.30704027  0.33034094  1  0  -0.654126  0  2.046075  0  0  -0.590298  0  2.315075  0  0  -0.619741  0  2.303011  0  0  -0.330299  -0.569498  0  2.322489  0
O  O104  1  0.27507907  0.20449631  0.47349208  1  0  -0.670187  0  1.916709  0  0  -0.614984  0  2.146405  0  0  -0.643171  0  2.137221  0  0  -0.344579  -0.594986  0  2.151815  0
O  O105  1  0.06966891  0.79561231  0.52629691  1  0  -0.670536  0  1.914985  0  0  -0.615191  0  2.145008  0  0  -0.643315  0  2.135745  0  0  -0.344174  -0.595232  0  2.150445  0
O  O106  1  0.19252931  0.36874068  0.44848388  1  0  -0.627839  0  1.961396  0  0  -0.554962  0  2.192053  0  0  -0.586766  0  2.185788  0  0  -0.325765  -0.532818  0  2.195528  0
O  O107  1  0.82398495  0.63130657  0.55143580  1  0  -0.630238  0  1.959573  0  0  -0.557263  0  2.190933  0  0  -0.589101  0  2.184661  0  0  -0.327297  -0.535097  0  2.194399  0
