# generated using pymatgen
data_Zn2H11C12N7O3
_symmetry_space_group_name_H-M   'P 1'
_cell_length_a   7.97684201
_cell_length_b   11.06247231
_cell_length_c   20.20962736
_cell_angle_alpha   89.99989730
_cell_angle_beta   90.00080278
_cell_angle_gamma   92.06306545
_symmetry_Int_Tables_number   1
_chemical_formula_structural   Zn2H11C12N7O3
_chemical_formula_sum   'Zn8 H44 C48 N28 O12'
_cell_volume   1782.21418235
_cell_formula_units_Z   4
loop_
 _symmetry_equiv_pos_site_id
 _symmetry_equiv_pos_as_xyz
  1  'x, y, z'
loop_
 _atom_site_type_symbol
 _atom_site_label
 _atom_site_symmetry_multiplicity
 _atom_site_fract_x
 _atom_site_fract_y
 _atom_site_fract_z
 _atom_site_occupancy
 _atom_site_pbe_bader_charge
 _atom_site_pbe_bader_spin_density
 _atom_site_pbe_cm5_charge
 _atom_site_pbe_ddec_charge
 _atom_site_pbe_ddec_spin_density
 _atom_site_pbe_ddec_sum_bond_order
 _atom_site_pbe_magmom
Zn  Zn0  1  0.90556295  0.72692742  0.38886628  1  1.257365  0  0.692621  0.798764  0  2.414696  0
Zn  Zn1  1  0.09444723  0.77306936  0.88886685  1  1.257269  0  0.692641  0.798906  0  2.414541  0
Zn  Zn2  1  0.09445340  0.27307151  0.61113757  1  1.257428  0  0.692624  0.798791  0  2.414611  0
Zn  Zn3  1  0.90553659  0.22693121  0.11113898  1  1.257244  0  0.692632  0.798747  0  2.414542  0
Zn  Zn4  1  0.19859436  0.87277114  0.31007314  1  1.219982  0  0.71893  0.748222  0  2.45454  0
Zn  Zn5  1  0.80140813  0.62723032  0.81007174  1  1.21997  0  0.718931  0.748293  0  2.454473  0
Zn  Zn6  1  0.80142091  0.12723230  0.68992626  1  1.219642  0  0.718947  0.748331  0  2.454472  0
Zn  Zn7  1  0.19857808  0.37276755  0.18992767  1  1.219687  0  0.718947  0.748302  0  2.454468  0
H  H8  1  0.00567178  0.94178256  0.39946909  1  0.592995  0  0.300765  0.386143  0  0.912684  0
H  H9  1  0.99432864  0.55821142  0.89946978  1  0.592923  0  0.300796  0.386258  0  0.912566  0
H  H10  1  0.99434095  0.05821997  0.60052685  1  0.592974  0  0.300808  0.386183  0  0.912668  0
H  H11  1  0.00564976  0.44177917  0.10052863  1  0.59281  0  0.300737  0.386144  0  0.912739  0
H  H12  1  0.45878209  0.36324640  0.39842207  1  0.088931  0  0.105881  0.110329  0  1.009593  0
H  H13  1  0.54120803  0.13675013  0.89841925  1  0.088951  0  0.105853  0.110258  0  1.009524  0
H  H14  1  0.54122430  0.63675429  0.60157436  1  0.088919  0  0.10585  0.11028  0  1.009536  0
H  H15  1  0.45878323  0.86324867  0.10157273  1  0.088998  0  0.105837  0.110291  0  1.009512  0
H  H16  1  0.16881534  0.60785670  0.51159348  1  0.102927  0  0.107738  0.115511  0  1.003986  0
H  H17  1  0.83118134  0.89214464  0.01159185  1  0.10297  0  0.10776  0.11551  0  1.004053  0
H  H18  1  0.83118853  0.39214397  0.48840741  1  0.102896  0  0.107739  0.115502  0  1.003996  0
H  H19  1  0.16879506  0.10785861  0.98840606  1  0.102678  0  0.107751  0.115581  0  1.004021  0
H  H20  1  0.58941073  0.53724955  0.33530194  1  0.065584  0  0.101573  0.100203  0  1.026911  0
H  H21  1  0.41058117  0.96274637  0.83529662  1  0.065546  0  0.10157  0.100186  0  1.026854  0
H  H22  1  0.41060085  0.46275568  0.66469895  1  0.065608  0  0.101608  0.10026  0  1.026967  0
H  H23  1  0.58940382  0.03725240  0.16469586  1  0.065631  0  0.101624  0.100294  0  1.026876  0
H  H24  1  0.30258575  0.78292023  0.45197712  1  0.11776  0  0.106348  0.119722  0  0.998594  0
H  H25  1  0.69742295  0.71707637  0.95197408  1  0.117718  0  0.106333  0.119698  0  0.99854  0
H  H26  1  0.69742204  0.21708408  0.54802525  1  0.117731  0  0.106359  0.119721  0  0.998617  0
H  H27  1  0.30255818  0.28291967  0.04802631  1  0.118196  0  0.10633  0.119655  0  0.998684  0
H  H28  1  0.26214091  0.66336738  0.13039716  1  0.141268  0  0.105562  0.174061  0  0.986159  0
H  H29  1  0.73785763  0.83663546  0.63039472  1  0.141214  0  0.105605  0.174093  0  0.986143  0
H  H30  1  0.73787786  0.33662975  0.86960273  1  0.141305  0  0.105512  0.174006  0  0.986167  0
H  H31  1  0.26212759  0.16336874  0.36960517  1  0.141291  0  0.105549  0.174045  0  0.986155  0
H  H32  1  0.43255390  0.62056375  0.18156088  1  0.094887  0  0.100137  0.148594  0  1.03374  0
H  H33  1  0.56745165  0.87944260  0.68155946  1  0.094729  0  0.100188  0.148662  0  1.033704  0
H  H34  1  0.56745846  0.37942973  0.81844050  1  0.09486  0  0.100208  0.148736  0  1.033595  0
H  H35  1  0.43253754  0.12056704  0.31844291  1  0.09479  0  0.100191  0.148749  0  1.033618  0
H  H36  1  0.35188746  0.76861605  0.18735239  1  0.059291  0  0.099121  0.141414  0  1.019293  0
H  H37  1  0.64810945  0.73138844  0.68735006  1  0.059365  0  0.099097  0.141355  0  1.019356  0
H  H38  1  0.64813242  0.23137747  0.81264800  1  0.059617  0  0.099144  0.141442  0  1.019244  0
H  H39  1  0.35187204  0.26861664  0.31265033  1  0.05971  0  0.099123  0.141419  0  1.019201  0
H  H40  1  0.88138797  0.44721766  0.37225743  1  0.111345  0  0.104955  0.165792  0  1.01198  0
H  H41  1  0.11862263  0.05278175  0.87225784  1  0.111393  0  0.104916  0.165738  0  1.011994  0
H  H42  1  0.11861856  0.55278664  0.62774296  1  0.111191  0  0.104935  0.165766  0  1.011932  0
H  H43  1  0.88137960  0.94720897  0.12774255  1  0.111193  0  0.104962  0.165755  0  1.011923  0
H  H44  1  0.04943678  0.35387769  0.35016427  1  0.054739  0  0.102604  0.157608  0  0.988186  0
H  H45  1  0.95056654  0.14611631  0.85016464  1  0.054818  0  0.102634  0.157645  0  0.988168  0
H  H46  1  0.95056087  0.64612385  0.64983414  1  0.054672  0  0.102577  0.157588  0  0.988152  0
H  H47  1  0.04943956  0.85387713  0.14983575  1  0.054683  0  0.102603  0.157598  0  0.988161  0
H  H48  1  0.87617231  0.36623604  0.29513233  1  0.084788  0  0.096559  0.144617  0  1.023117  0
H  H49  1  0.12383060  0.13376625  0.79513319  1  0.084741  0  0.09656  0.144626  0  1.023085  0
H  H50  1  0.12382806  0.63377094  0.70486707  1  0.084679  0  0.09657  0.144608  0  1.023204  0
H  H51  1  0.87617284  0.86622357  0.20486621  1  0.084675  0  0.096584  0.144652  0  1.023177  0
C  C52  1  0.22951572  0.36910344  0.49548460  1  1.541506  0  0.198637  0.564938  0  4.23502  0
C  C53  1  0.77048067  0.13089918  0.99548599  1  1.540617  0  0.198567  0.564767  0  4.235154  0
C  C54  1  0.77049822  0.63089818  0.50451530  1  1.541562  0  0.198583  0.564713  0  4.235419  0
C  C55  1  0.22949437  0.86910134  0.00451440  1  1.541035  0  0.198611  0.564753  0  4.235162  0
C  C56  1  0.30454959  0.47496252  0.45782547  1  0.033712  0  -0.012634  -0.020905  0  3.947731  0
C  C57  1  0.69544547  0.02504110  0.95782557  1  0.033737  0  -0.012727  -0.021038  0  3.947798  0
C  C58  1  0.69545805  0.52503817  0.54217294  1  0.033452  0  -0.012718  -0.020966  0  3.947986  0
C  C59  1  0.30454726  0.97496313  0.04217235  1  0.033492  0  -0.012702  -0.020922  0  3.947793  0
C  C60  1  0.42379356  0.45565125  0.40849239  1  -0.059386  0  -0.08331  -0.094326  0  3.979275  0
C  C61  1  0.57620950  0.04434622  0.90848786  1  -0.059473  0  -0.083292  -0.094256  0  3.979358  0
C  C62  1  0.57621666  0.54435126  0.59150652  1  -0.0592  0  -0.083166  -0.094131  0  3.979219  0
C  C63  1  0.42378947  0.95565714  0.09150758  1  -0.059303  0  -0.083255  -0.094278  0  3.979186  0
C  C64  1  0.26156478  0.59337914  0.47323528  1  0.001487  0  -0.080113  -0.081076  0  3.957607  0
C  C65  1  0.73844254  0.90662643  0.97323179  1  0.001463  0  -0.080122  -0.081058  0  3.957461  0
C  C66  1  0.73844677  0.40662519  0.52676560  1  0.001493  0  -0.080127  -0.081048  0  3.957425  0
C  C67  1  0.26153636  0.09337682  0.02676514  1  0.001882  0  -0.080161  -0.081273  0  3.957397  0
C  C68  1  0.49884681  0.55267143  0.37451864  1  -0.005027  0  -0.087502  -0.114353  0  3.981072  0
C  C69  1  0.50114407  0.94732619  0.87451778  1  -0.00474  0  -0.087479  -0.114242  0  3.981281  0
C  C70  1  0.50116717  0.44733111  0.62548324  1  -0.00475  0  -0.087592  -0.114539  0  3.981198  0
C  C71  1  0.49883893  0.05268523  0.12547964  1  -0.004971  0  -0.087518  -0.11443  0  3.981237  0
C  C72  1  0.33624802  0.69101782  0.43980880  1  -0.098561  0  -0.084582  -0.109769  0  3.955166  0
C  C73  1  0.66375024  0.80897966  0.93980796  1  -0.098415  0  -0.084541  -0.109648  0  3.954829  0
C  C74  1  0.66376453  0.30898018  0.56019407  1  -0.098578  0  -0.084603  -0.109837  0  3.954736  0
C  C75  1  0.33623368  0.19102363  0.06019144  1  -0.099052  0  -0.084474  -0.109525  0  3.954878  0
C  C76  1  0.45515458  0.67107904  0.39018228  1  -0.003037  0  -0.008597  0.014242  0  4.026753  0
C  C77  1  0.54485332  0.82892224  0.89017584  1  -0.003413  0  -0.00865  0.014082  0  4.026987  0
C  C78  1  0.54484815  0.32892434  0.60981662  1  -0.003033  0  -0.008528  0.014501  0  4.026662  0
C  C79  1  0.45513459  0.17108649  0.10982010  1  -0.003101  0  -0.008688  0.014209  0  4.027202  0
C  C80  1  0.53260107  0.77411521  0.35487353  1  0.977635  0  0.234844  0.283035  0  4.01104  0
C  C81  1  0.46740275  0.72587891  0.85487270  1  0.978174  0  0.234702  0.282951  0  4.011296  0
C  C82  1  0.46741674  0.22588915  0.64513082  1  0.9774  0  0.23463  0.282714  0  4.011515  0
C  C83  1  0.53258324  0.27411353  0.14513412  1  0.977962  0  0.234648  0.282777  0  4.011539  0
C  C84  1  0.31794820  0.67267985  0.18005533  1  -0.107928  0  -0.236522  -0.484757  0  3.927893  0
C  C85  1  0.68205346  0.82732468  0.68005309  1  -0.107855  0  -0.23661  -0.484815  0  3.928002  0
C  C86  1  0.68206800  0.32731546  0.81994556  1  -0.10835  0  -0.236594  -0.484901  0  3.927828  0
C  C87  1  0.31793304  0.17268043  0.31994681  1  -0.10822  0  -0.236609  -0.484981  0  3.927904  0
C  C88  1  0.20093390  0.63160258  0.23295259  1  0.982014  0  0.226315  0.407224  0  4.001163  0
C  C89  1  0.79906823  0.86839728  0.73295342  1  0.982105  0  0.226334  0.407213  0  4.001413  0
C  C90  1  0.79908863  0.36839457  0.76704780  1  0.982259  0  0.226361  0.407382  0  4.0013  0
C  C91  1  0.20092930  0.13160155  0.26704499  1  0.982098  0  0.226341  0.407397  0  4.001304  0
C  C92  1  0.04261091  0.52100013  0.29809740  1  0.996811  0  0.231877  0.415861  0  3.975014  0
C  C93  1  0.95738979  0.97899865  0.79809998  1  0.996686  0  0.231822  0.415903  0  3.974782  0
C  C94  1  0.95740790  0.47899790  0.70190645  1  0.997298  0  0.231929  0.415841  0  3.975209  0
C  C95  1  0.04260757  0.02099566  0.20190140  1  0.996848  0  0.231847  0.415865  0  3.975062  0
C  C96  1  0.95669745  0.41584131  0.33071458  1  -0.056631  0  -0.233991  -0.479392  0  3.909518  0
C  C97  1  0.04331035  0.08415730  0.83071505  1  -0.056566  0  -0.233986  -0.479407  0  3.909482  0
C  C98  1  0.04330660  0.58416388  0.66928532  1  -0.056503  0  -0.234008  -0.479359  0  3.909398  0
C  C99  1  0.95669323  0.91583614  0.16928584  1  -0.056423  0  -0.234045  -0.479427  0  3.909569  0
N  N100  1  0.14707245  0.51542254  0.24467315  1  -1.236652  0  -0.3625  -0.445071  0  3.46007  0
N  N101  1  0.85294008  0.98457554  0.74467021  1  -1.236496  0  -0.362448  -0.445061  0  3.460017  0
N  N102  1  0.85292892  0.48457812  0.75532427  1  -1.236786  0  -0.362507  -0.445152  0  3.460288  0
N  N103  1  0.14705868  0.01542240  0.25533018  1  -1.236554  0  -0.362482  -0.445131  0  3.460142  0
N  N104  1  0.03181018  0.63527281  0.31775825  1  -0.795725  0  -0.257425  -0.260697  0  3.462193  0
N  N105  1  0.96820237  0.86472235  0.81775604  1  -0.795729  0  -0.25747  -0.260862  0  3.462207  0
N  N106  1  0.96820251  0.36472881  0.68224214  1  -0.795878  0  -0.257427  -0.260635  0  3.462409  0
N  N107  1  0.03178868  0.13527102  0.18224435  1  -0.794987  0  -0.257352  -0.260534  0  3.462153  0
N  N108  1  0.13265853  0.70529947  0.27671567  1  -0.817207  0  -0.268961  -0.27841  0  3.50847  0
N  N109  1  0.86734892  0.79469940  0.77671298  1  -0.817429  0  -0.268954  -0.278329  0  3.508595  0
N  N110  1  0.86736040  0.29470128  0.72328620  1  -0.817455  0  -0.269032  -0.278614  0  3.508648  0
N  N111  1  0.13263604  0.20529846  0.22328840  1  -0.818156  0  -0.268981  -0.278582  0  3.508507  0
N  N112  1  0.69782415  0.79723336  0.34674220  1  -0.779081  0  -0.236913  -0.270722  0  3.493755  0
N  N113  1  0.30217816  0.70276168  0.84673951  1  -0.779274  0  -0.23694  -0.270861  0  3.493864  0
N  N114  1  0.30219499  0.20277282  0.65326264  1  -0.779239  0  -0.236916  -0.270687  0  3.494072  0
N  N115  1  0.69780551  0.29723527  0.15325890  1  -0.779162  0  -0.236878  -0.270711  0  3.494182  0
N  N116  1  0.44875351  0.86185931  0.32438779  1  -0.803707  0  -0.242341  -0.26959  0  3.496691  0
N  N117  1  0.55124825  0.63814212  0.82438156  1  -0.80373  0  -0.24221  -0.269544  0  3.496765  0
N  N118  1  0.55126301  0.13814414  0.67561507  1  -0.803254  0  -0.242116  -0.269436  0  3.49652  0
N  N119  1  0.44873689  0.36186027  0.17561240  1  -0.803794  0  -0.242122  -0.26934  0  3.496615  0
N  N120  1  0.56579463  0.93874934  0.29684130  1  -0.096351  0  -0.087715  -0.065701  0  3.256366  0
N  N121  1  0.43420846  0.56124764  0.79683847  1  -0.096686  0  -0.087699  -0.065551  0  3.25652  0
N  N122  1  0.43422201  0.06125682  0.70316354  1  -0.096714  0  -0.08759  -0.065413  0  3.256363  0
N  N123  1  0.56577624  0.43874389  0.20316390  1  -0.096598  0  -0.08764  -0.065566  0  3.256479  0
N  N124  1  0.71429975  0.90054040  0.31051095  1  -0.115954  0  -0.093753  -0.079617  0  3.254349  0
N  N125  1  0.28570364  0.59945203  0.81050925  1  -0.115869  0  -0.093705  -0.079609  0  3.254438  0
N  N126  1  0.28571813  0.09946577  0.68949439  1  -0.115593  0  -0.093912  -0.079866  0  3.254378  0
N  N127  1  0.71428102  0.40053860  0.18949411  1  -0.115806  0  -0.093876  -0.079757  0  3.254501  0
O  O128  1  0.14623637  0.39971788  0.54820032  1  -1.172961  0  -0.33753  -0.569604  0  2.396333  0
O  O129  1  0.85375595  0.10027508  0.04820008  1  -1.172776  0  -0.337481  -0.569457  0  2.396416  0
O  O130  1  0.85378665  0.60029103  0.45180106  1  -1.173051  0  -0.337504  -0.569566  0  2.396611  0
O  O131  1  0.14621216  0.89970913  0.95179635  1  -1.172515  0  -0.337534  -0.569557  0  2.396395  0
O  O132  1  0.24972852  0.26289253  0.47741015  1  -1.165081  0  -0.338589  -0.563851  0  2.083289  0
O  O133  1  0.75026227  0.23711193  0.97740242  1  -1.164257  0  -0.338498  -0.563747  0  2.083077  0
O  O134  1  0.75027535  0.73710814  0.52258925  1  -1.165071  0  -0.338577  -0.563751  0  2.083422  0
O  O135  1  0.24973574  0.76289867  0.02258758  1  -1.164976  0  -0.338513  -0.563698  0  2.083473  0
O  O136  1  0.06521664  0.86788147  0.39218266  1  -1.21172  0  -0.581456  -0.808415  0  2.164375  0
O  O137  1  0.93478606  0.63211345  0.89218148  1  -1.21165  0  -0.581485  -0.808612  0  2.164233  0
O  O138  1  0.93479985  0.13212108  0.60781773  1  -1.211527  0  -0.581526  -0.808533  0  2.164505  0
O  O139  1  0.06519238  0.36787805  0.10781892  1  -1.211339  0  -0.581476  -0.808521  0  2.164548  0
