# generated using pymatgen
data_GdPH15C21NO11
_symmetry_space_group_name_H-M   'P 1'
_cell_length_a   11.63240316
_cell_length_b   14.86905615
_cell_length_c   17.58917869
_cell_angle_alpha   89.99990604
_cell_angle_beta   89.99988079
_cell_angle_gamma   91.57398927
_symmetry_Int_Tables_number   1
_chemical_formula_structural   GdPH15C21NO11
_chemical_formula_sum   'Gd4 P4 H60 C84 N4 O44'
_cell_volume   3041.12668663
_cell_formula_units_Z   4
loop_
 _symmetry_equiv_pos_site_id
 _symmetry_equiv_pos_as_xyz
  1  'x, y, z'
loop_
 _atom_site_type_symbol
 _atom_site_label
 _atom_site_symmetry_multiplicity
 _atom_site_fract_x
 _atom_site_fract_y
 _atom_site_fract_z
 _atom_site_occupancy
 _atom_site_pbe_bader_charge
 _atom_site_pbe_bader_spin_density
 _atom_site_pbe_cm5_charge
 _atom_site_pbe_ddec_charge
 _atom_site_pbe_ddec_spin_density
 _atom_site_pbe_ddec_sum_bond_order
 _atom_site_pbe_magmom
Gd  Gd0  1  0.07574530  0.59422091  0.57392230  1  2.199464  0  1.500832  2.07383  0  2.238675  0
Gd  Gd1  1  0.42425237  0.90577743  0.07392294  1  2.199408  0  1.50083  2.073882  0  2.238627  0
Gd  Gd2  1  0.92425619  0.40577885  0.42607696  1  2.199441  0  1.500854  2.073904  0  2.238632  0
Gd  Gd3  1  0.57574478  0.09422098  0.92607689  1  2.199517  0  1.500844  2.073851  0  2.238632  0
P  P4  1  0.33517128  0.75072747  0.57999904  1  2.81798  0  0.281304  0.880602  0  4.791296  0
P  P5  1  0.16482553  0.74927153  0.07999912  1  2.818107  0  0.281328  0.880747  0  4.791373  0
P  P6  1  0.66482942  0.24927431  0.42000079  1  2.818032  0  0.281325  0.880627  0  4.791215  0
P  P7  1  0.83517246  0.25072621  0.92000128  1  2.817993  0  0.281348  0.880705  0  4.791219  0
H  H8  1  0.10936135  0.13515649  0.32853080  1  0.672057  0  0.307488  0.355281  0  0.97388  0
H  H9  1  0.39063837  0.36484374  0.82853049  1  0.672059  0  0.307496  0.355311  0  0.973802  0
H  H10  1  0.89063756  0.86484327  0.67146903  1  0.672059  0  0.307532  0.355334  0  0.9738  0
H  H11  1  0.60936224  0.63515534  0.17146934  1  0.672062  0  0.307476  0.355278  0  0.973866  0
H  H12  1  0.18329722  0.49203133  0.72323740  1  0.666386  0  0.304639  0.413671  0  0.908354  0
H  H13  1  0.31670280  0.00796776  0.22323874  1  0.666341  0  0.304623  0.413659  0  0.908365  0
H  H14  1  0.81670515  0.50796910  0.27676187  1  0.666369  0  0.304639  0.413673  0  0.908365  0
H  H15  1  0.68329612  0.99203199  0.77676337  1  0.666404  0  0.30465  0.413688  0  0.908336  0
H  H16  1  0.24682142  0.49667398  0.64446221  1  0.610856  0  0.320753  0.406642  0  0.896074  0
H  H17  1  0.25317971  0.00332528  0.14446308  1  0.610893  0  0.320764  0.406676  0  0.896026  0
H  H18  1  0.75318177  0.50332511  0.35553705  1  0.610913  0  0.320774  0.406663  0  0.896038  0
H  H19  1  0.74681911  0.99667179  0.85553846  1  0.610835  0  0.32074  0.406643  0  0.896076  0
H  H20  1  0.40032482  0.61189631  0.47868339  1  0.114192  0  0.115025  0.119241  0  0.989442  0
H  H21  1  0.09967417  0.88810256  0.97868401  1  0.114244  0  0.115037  0.119263  0  0.989422  0
H  H22  1  0.59967674  0.38810546  0.52131587  1  0.114329  0  0.115047  0.119271  0  0.989361  0
H  H23  1  0.90032386  0.11189652  0.02131752  1  0.114168  0  0.115031  0.119273  0  0.989411  0
H  H24  1  0.58846031  0.54283451  0.44959383  1  0.101578  0  0.106757  0.106682  0  1.013311  0
H  H25  1  0.91153774  0.95716354  0.94959507  1  0.101667  0  0.106762  0.106737  0  1.013286  0
H  H26  1  0.41154034  0.45716592  0.55040543  1  0.101588  0  0.106763  0.106677  0  1.013298  0
H  H27  1  0.08845858  0.04283554  0.05040818  1  0.101566  0  0.106751  0.106652  0  1.013317  0
H  H28  1  0.75946113  0.72766354  0.60264962  1  0.137083  0  0.108067  0.112923  0  1.013229  0
H  H29  1  0.74053805  0.77233588  0.10265184  1  0.1371  0  0.108074  0.112915  0  1.013255  0
H  H30  1  0.24054030  0.27233420  0.39735248  1  0.137187  0  0.108091  0.112941  0  1.013194  0
H  H31  1  0.25946176  0.22766523  0.89735481  1  0.137106  0  0.108089  0.112941  0  1.013178  0
H  H32  1  0.57344038  0.79688460  0.63351186  1  0.095543  0  0.101972  0.106419  0  1.031121  0
H  H33  1  0.92655780  0.70311341  0.13351392  1  0.095804  0  0.101941  0.106333  0  1.031154  0
H  H34  1  0.42656193  0.20311382  0.36648911  1  0.095872  0  0.101958  0.106389  0  1.031132  0
H  H35  1  0.07344111  0.29688634  0.86648932  1  0.09548  0  0.101978  0.106392  0  1.03112  0
H  H36  1  0.13360403  0.85840361  0.55960702  1  0.122792  0  0.115603  0.125436  0  1.009062  0
H  H37  1  0.36639463  0.64159745  0.05960698  1  0.122777  0  0.115587  0.125411  0  1.009025  0
H  H38  1  0.86639839  0.14159817  0.44039281  1  0.12317  0  0.115595  0.125409  0  1.009053  0
H  H39  1  0.63360515  0.35840231  0.94039285  1  0.122771  0  0.115603  0.125459  0  1.009027  0
H  H40  1  0.08669817  0.97872516  0.46760609  1  0.071906  0  0.11223  0.1157  0  1.001628  0
H  H41  1  0.41330090  0.52127508  0.96760678  1  0.071941  0  0.112232  0.115702  0  1.001663  0
H  H42  1  0.91330251  0.02127595  0.53239374  1  0.071892  0  0.112233  0.115691  0  1.001624  0
H  H43  1  0.58669971  0.47872400  0.03239418  1  0.071942  0  0.112216  0.115672  0  1.001673  0
H  H44  1  0.41731561  0.95407068  0.36114610  1  0.111698  0  0.111002  0.114684  0  1.00124  0
H  H45  1  0.08268464  0.54592910  0.86114608  1  0.111699  0  0.110997  0.114673  0  1.001224  0
H  H46  1  0.58268509  0.04593110  0.63885373  1  0.111726  0  0.111011  0.11468  0  1.001186  0
H  H47  1  0.91731683  0.45406998  0.13885375  1  0.111701  0  0.111002  0.114669  0  1.001215  0
H  H48  1  0.46696688  0.83408512  0.45350407  1  0.081109  0  0.107156  0.108881  0  1.005723  0
H  H49  1  0.03303137  0.66591514  0.95350282  1  0.081074  0  0.10714  0.108846  0  1.005713  0
H  H50  1  0.53303472  0.16591800  0.54649576  1  0.081095  0  0.107166  0.108861  0  1.005775  0
H  H51  1  0.96696840  0.33408461  0.04649587  1  0.081079  0  0.107138  0.108856  0  1.00572  0
H  H52  1  0.28784050  0.67343231  0.72447716  1  0.146712  0  0.109237  0.114378  0  1.022274  0
H  H53  1  0.21215253  0.82657043  0.22447764  1  0.147853  0  0.109264  0.114376  0  1.022246  0
H  H54  1  0.71215598  0.32657215  0.27551982  1  0.146691  0  0.109252  0.114361  0  1.022226  0
H  H55  1  0.78784217  0.17343201  0.77552162  1  0.146712  0  0.109252  0.114388  0  1.022242  0
H  H56  1  0.32898120  0.72785654  0.85740428  1  0.1006  0  0.105804  0.110621  0  1.019645  0
H  H57  1  0.17101568  0.77214527  0.35740489  1  0.10059  0  0.105798  0.110601  0  1.019543  0
H  H58  1  0.67101522  0.27214590  0.14259384  1  0.100558  0  0.105811  0.110672  0  1.01953  0
H  H59  1  0.82898323  0.22785449  0.64259437  1  0.100554  0  0.105829  0.110711  0  1.019496  0
H  H60  1  0.44643766  0.98396514  0.76933397  1  0.13013  0  0.113309  0.117502  0  1.024727  0
H  H61  1  0.05356548  0.51603551  0.26933452  1  0.130151  0  0.113318  0.117508  0  1.024762  0
H  H62  1  0.55356560  0.01603597  0.23066757  1  0.130153  0  0.113316  0.117517  0  1.024735  0
H  H63  1  0.94643691  0.48396560  0.73066360  1  0.130132  0  0.113303  0.117525  0  1.024675  0
H  H64  1  0.40579795  0.93154123  0.63710614  1  0.096731  0  0.103149  0.097276  0  1.011542  0
H  H65  1  0.09420389  0.56845968  0.13710714  1  0.096758  0  0.103158  0.097307  0  1.011547  0
H  H66  1  0.59421052  0.06846191  0.36289369  1  0.096896  0  0.103143  0.097327  0  1.011574  0
H  H67  1  0.90579590  0.43154075  0.86288985  1  0.096805  0  0.103176  0.09733  0  1.011591  0
C  C68  1  0.47511193  0.70932350  0.55702121  1  -0.575869  0  -0.022633  -0.150523  0  4.004815  0
C  C69  1  0.02488920  0.79067420  0.05702256  1  -0.570581  0  -0.022714  -0.150748  0  4.004967  0
C  C70  1  0.52489046  0.29067761  0.44297805  1  -0.575925  0  -0.022622  -0.1506  0  4.004925  0
C  C71  1  0.97511134  0.20932286  0.94297954  1  -0.576074  0  -0.022581  -0.1505  0  4.004782  0
C  C72  1  0.47951638  0.63815324  0.50468396  1  -0.086637  0  -0.07346  -0.071248  0  3.968545  0
C  C73  1  0.02048065  0.86184523  0.00468522  1  -0.086752  0  -0.073482  -0.07131  0  3.968607  0
C  C74  1  0.52048516  0.36184786  0.49531473  1  -0.086837  0  -0.073469  -0.071224  0  3.968609  0
C  C75  1  0.97951646  0.13815183  0.99531688  1  -0.086434  0  -0.073474  -0.07131  0  3.968569  0
C  C76  1  0.58436256  0.59944635  0.48870023  1  0.017735  0  -0.079187  -0.089406  0  3.962978  0
C  C77  1  0.91563450  0.90055162  0.98870210  1  0.017799  0  -0.079158  -0.089404  0  3.962901  0
C  C78  1  0.41563809  0.40055408  0.51129903  1  0.017586  0  -0.079179  -0.089424  0  3.963116  0
C  C79  1  0.08436351  0.09944679  0.01130057  1  0.018005  0  -0.079155  -0.089305  0  3.962992  0
C  C80  1  0.68522277  0.63112808  0.52448009  1  -0.081065  0  -0.007548  -0.025122  0  3.926487  0
C  C81  1  0.81477406  0.86887082  0.02448264  1  -0.081316  0  -0.007557  -0.02515  0  3.926365  0
C  C82  1  0.31477869  0.36887101  0.47551974  1  -0.08092  0  -0.007572  -0.025093  0  3.926481  0
C  C83  1  0.18522309  0.13112758  0.97552174  1  -0.081268  0  -0.007564  -0.025139  0  3.926498  0
C  C84  1  0.68056184  0.70343886  0.57535109  1  -0.079521  0  -0.074869  -0.070717  0  3.925779  0
C  C85  1  0.81943739  0.79655927  0.07535374  1  -0.078859  0  -0.074871  -0.070705  0  3.925777  0
C  C86  1  0.31943961  0.29655956  0.42464931  1  -0.079606  0  -0.074886  -0.070748  0  3.925753  0
C  C87  1  0.18056234  0.20343914  0.92464893  1  -0.07964  0  -0.074884  -0.07072  0  3.925719  0
C  C88  1  0.57602495  0.74235419  0.59212964  1  -0.019787  0  -0.081176  -0.083324  0  3.984526  0
C  C89  1  0.92397334  0.75764324  0.09213105  1  -0.02603  0  -0.081124  -0.083116  0  3.984394  0
C  C90  1  0.42397652  0.25764490  0.40787076  1  -0.020155  0  -0.081205  -0.083312  0  3.984539  0
C  C91  1  0.07602465  0.24235450  0.90787162  1  -0.019704  0  -0.081248  -0.083378  0  3.984575  0
C  C92  1  0.79737378  0.58582068  0.51115594  1  1.608357  0  0.239131  0.65575  0  4.138861  0
C  C93  1  0.70262484  0.91417893  0.01115745  1  1.60836  0  0.23919  0.655813  0  4.138577  0
C  C94  1  0.20262767  0.41417774  0.48884389  1  1.608309  0  0.239177  0.655807  0  4.138737  0
C  C95  1  0.29737403  0.08581948  0.98884579  1  1.608356  0  0.239071  0.655686  0  4.138964  0
C  C96  1  0.30425030  0.83941173  0.51313687  1  -0.573972  0  -0.012438  -0.135265  0  3.968386  0
C  C97  1  0.19574851  0.66058943  0.01313589  1  -0.573978  0  -0.012432  -0.135406  0  3.968583  0
C  C98  1  0.69575210  0.16058938  0.48686353  1  -0.5739  0  -0.012443  -0.135299  0  3.968318  0
C  C99  1  0.80425305  0.33941235  0.98686337  1  -0.57394  0  -0.012472  -0.135385  0  3.968625  0
C  C100  1  0.19659287  0.87990639  0.51692731  1  -0.03811  0  -0.063911  -0.055597  0  3.92695  0
C  C101  1  0.30340507  0.62009475  0.01692625  1  -0.038151  0  -0.063855  -0.05543  0  3.926938  0
C  C102  1  0.80341041  0.12009539  0.48307308  1  -0.038071  0  -0.063901  -0.055548  0  3.926886  0
C  C103  1  0.69659389  0.37990635  0.98307358  1  -0.038174  0  -0.063903  -0.055603  0  3.927025  0
C  C104  1  0.16984237  0.94701236  0.46523528  1  -0.003868  0  -0.071011  -0.078608  0  3.92768  0
C  C105  1  0.33015672  0.55298856  0.96523491  1  -0.003765  0  -0.071043  -0.078693  0  3.927796  0
C  C106  1  0.83015918  0.05298942  0.53476399  1  -0.004452  0  -0.071054  -0.078634  0  3.927736  0
C  C107  1  0.66984393  0.44701187  0.03476492  1  -0.003767  0  -0.070989  -0.078555  0  3.92772  0
C  C108  1  0.24972322  0.97433020  0.40935425  1  -0.036222  0  -0.010755  -0.042243  0  3.981  0
C  C109  1  0.25027691  0.52567083  0.90935403  1  -0.036224  0  -0.010744  -0.042241  0  3.980985  0
C  C110  1  0.75027921  0.02567225  0.59064558  1  -0.036188  0  -0.010699  -0.042198  0  3.981024  0
C  C111  1  0.74972462  0.47433027  0.09064580  1  -0.036236  0  -0.01074  -0.042254  0  3.98118  0
C  C112  1  0.35646965  0.93317459  0.40527386  1  -0.016775  0  -0.075134  -0.084874  0  3.950318  0
C  C113  1  0.14353049  0.56682645  0.90527316  1  -0.016272  0  -0.075135  -0.084854  0  3.950266  0
C  C114  1  0.64353192  0.06682786  0.59472654  1  -0.016534  0  -0.075133  -0.084836  0  3.95023  0
C  C115  1  0.85646926  0.43317263  0.09472667  1  -0.01684  0  -0.075138  -0.084833  0  3.950397  0
C  C116  1  0.38388058  0.86604829  0.45699489  1  -0.037518  0  -0.076882  -0.079106  0  3.986469  0
C  C117  1  0.11611766  0.63395197  0.95699357  1  -0.038064  0  -0.076867  -0.079027  0  3.986448  0
C  C118  1  0.61612098  0.13395349  0.54300551  1  -0.037719  0  -0.07688  -0.079076  0  3.986463  0
C  C119  1  0.88388211  0.36604779  0.04300513  1  -0.037497  0  -0.07685  -0.079077  0  3.986534  0
C  C120  1  0.22424404  0.04744317  0.35429492  1  1.547031  0  0.23864  0.585462  0  4.11872  0
C  C121  1  0.27575560  0.45255701  0.85429464  1  1.54701  0  0.238679  0.585472  0  4.118786  0
C  C122  1  0.77575663  0.95255794  0.64570548  1  1.547025  0  0.238657  0.585439  0  4.118813  0
C  C123  1  0.72424587  0.54744207  0.14570519  1  1.546987  0  0.238637  0.585506  0  4.118797  0
C  C124  1  0.34687459  0.79887253  0.67324611  1  -0.653458  0  -0.020043  -0.150623  0  4.014498  0
C  C125  1  0.15312284  0.70112830  0.17324741  1  -0.653411  0  -0.020047  -0.150649  0  4.01447  0
C  C126  1  0.65312611  0.20112925  0.32675202  1  -0.65341  0  -0.020028  -0.150606  0  4.014419  0
C  C127  1  0.84687609  0.29887212  0.82675185  1  -0.653371  0  -0.020038  -0.150546  0  4.014443  0
C  C128  1  0.32292420  0.74117887  0.73487838  1  -0.106928  0  -0.073948  -0.068201  0  3.951676  0
C  C129  1  0.17707219  0.75882250  0.23487956  1  -0.108203  0  -0.074002  -0.068164  0  3.95158  0
C  C130  1  0.67707222  0.25882357  0.26511918  1  -0.106938  0  -0.074034  -0.068179  0  3.951526  0
C  C131  1  0.82292509  0.24117994  0.76511970  1  -0.107012  0  -0.073941  -0.068179  0  3.951665  0
C  C132  1  0.34558605  0.77111708  0.80837580  1  -0.003504  0  -0.07402  -0.077938  0  3.933628  0
C  C133  1  0.15440923  0.72888348  0.30837592  1  -0.003413  0  -0.073998  -0.077944  0  3.933467  0
C  C134  1  0.65440865  0.22888536  0.19162232  1  -0.003107  0  -0.073989  -0.077991  0  3.933564  0
C  C135  1  0.84558710  0.27111627  0.69162277  1  -0.003478  0  -0.074078  -0.078107  0  3.933543  0
C  C136  1  0.39290650  0.85770140  0.82040583  1  0.005581  0  -0.003352  -0.016582  0  3.921093  0
C  C137  1  0.10709306  0.64229981  0.32040614  1  0.005721  0  -0.003368  -0.016586  0  3.921095  0
C  C138  1  0.60709080  0.14230172  0.17959343  1  0.005281  0  -0.00336  -0.016643  0  3.921166  0
C  C139  1  0.89290671  0.35769994  0.67959312  1  0.005702  0  -0.003392  -0.016587  0  3.921027  0
C  C140  1  0.41275382  0.91604149  0.75897085  1  -0.042845  0  -0.07124  -0.074754  0  3.920494  0
C  C141  1  0.08724845  0.58395783  0.25897240  1  -0.043008  0  -0.071197  -0.0747  0  3.920407  0
C  C142  1  0.58724685  0.08395961  0.24102842  1  -0.042949  0  -0.071172  -0.074654  0  3.920394  0
C  C143  1  0.91275218  0.41604193  0.74102629  1  -0.043018  0  -0.071185  -0.074718  0  3.920403  0
C  C144  1  0.38958579  0.88672332  0.68527273  1  -0.050622  0  -0.079497  -0.080251  0  4.006063  0
C  C145  1  0.11041418  0.61327749  0.18527250  1  -0.050597  0  -0.079476  -0.080271  0  4.006001  0
C  C146  1  0.61041405  0.11327845  0.31472824  1  -0.050722  0  -0.079486  -0.080334  0  4.00608  0
C  C147  1  0.88958561  0.38672294  0.81472562  1  -0.050596  0  -0.079511  -0.080359  0  4.006171  0
C  C148  1  0.42322689  0.88674936  0.89933557  1  1.585209  0  0.231491  0.643495  0  4.163662  0
C  C149  1  0.07677757  0.61325170  0.39933710  1  1.58522  0  0.231439  0.64348  0  4.163656  0
C  C150  1  0.57677718  0.11325041  0.10066312  1  1.585228  0  0.231457  0.643548  0  4.163463  0
C  C151  1  0.92322564  0.38674806  0.60066330  1  1.585246  0  0.231433  0.643495  0  4.163469  0
N  N152  1  0.97796040  0.72195598  0.68196813  1  0.827448  0  0.089479  0.726213  0  4.427663  0
N  N153  1  0.52203590  0.77804193  0.18196837  1  0.827454  0  0.089605  0.726408  0  4.427593  0
N  N154  1  0.02204109  0.27804378  0.31803056  1  0.827443  0  0.089516  0.726217  0  4.427662  0
N  N155  1  0.47795953  0.22195647  0.81803203  1  0.827457  0  0.089532  0.726259  0  4.427669  0
O  O156  1  0.24772116  0.67413914  0.57884447  1  -1.440519  0  -0.442426  -0.741875  0  2.378978  0
O  O157  1  0.25227572  0.82586188  0.07884375  1  -1.440532  0  -0.442415  -0.741875  0  2.378944  0
O  O158  1  0.75227958  0.32586398  0.42115593  1  -1.440544  0  -0.442465  -0.741906  0  2.378978  0
O  O159  1  0.74772152  0.17413922  0.92115551  1  -1.440518  0  -0.442425  -0.74187  0  2.378962  0
O  O160  1  0.79379496  0.51257995  0.47319800  1  -1.207331  0  -0.385879  -0.671388  0  2.300121  0
O  O161  1  0.70620554  0.98741672  0.97319890  1  -1.207266  0  -0.385888  -0.671365  0  2.30006  0
O  O162  1  0.20620649  0.48741847  0.52680126  1  -1.207274  0  -0.385903  -0.671401  0  2.30001  0
O  O163  1  0.29379061  0.01257765  0.02680206  1  -1.207405  0  -0.38587  -0.6714  0  2.300195  0
O  O164  1  0.88686553  0.62300634  0.53939197  1  -1.193582  0  -0.392294  -0.664652  0  2.336162  0
O  O165  1  0.61313207  0.87699119  0.03939535  1  -1.193679  0  -0.392343  -0.664737  0  2.335891  0
O  O166  1  0.11313594  0.37699275  0.46060786  1  -1.193554  0  -0.392275  -0.664668  0  2.336137  0
O  O167  1  0.38686239  0.12300385  0.96060846  1  -1.193504  0  -0.392226  -0.664569  0  2.336199  0
O  O168  1  0.12261134  0.08390421  0.36539952  1  -1.175263  0  -0.324093  -0.469455  0  2.312673  0
O  O169  1  0.37738736  0.41609460  0.86540143  1  -1.175277  0  -0.32413  -0.469503  0  2.312685  0
O  O170  1  0.87738753  0.91609420  0.63459860  1  -1.175267  0  -0.324154  -0.469506  0  2.3127  0
O  O171  1  0.62261239  0.58390449  0.13460011  1  -1.175224  0  -0.324087  -0.469495  0  2.312699  0
O  O172  1  0.29249660  0.07212755  0.30381609  1  -1.172872  0  -0.294653  -0.521402  0  2.162651  0
O  O173  1  0.20750239  0.42787407  0.80381651  1  -1.172873  0  -0.294685  -0.521404  0  2.162689  0
O  O174  1  0.70750242  0.92787557  0.69618374  1  -1.172851  0  -0.29468  -0.521409  0  2.162641  0
O  O175  1  0.79249912  0.57212636  0.19618332  1  -1.172894  0  -0.294666  -0.521413  0  2.162679  0
O  O176  1  0.47483953  0.96276317  0.90880096  1  -1.220374  0  -0.419324  -0.738605  0  2.442787  0
O  O177  1  0.02516224  0.53723518  0.40880210  1  -1.220321  0  -0.419332  -0.73865  0  2.44265  0
O  O178  1  0.52515932  0.03723457  0.09119716  1  -1.220371  0  -0.419307  -0.73865  0  2.442591  0
O  O179  1  0.97484093  0.46276324  0.59119546  1  -1.220392  0  -0.419281  -0.738582  0  2.442586  0
O  O180  1  0.39622471  0.83520852  0.95429442  1  -1.174104  0  -0.378124  -0.620823  0  2.236832  0
O  O181  1  0.10377870  0.66479176  0.45429470  1  -1.174201  0  -0.378103  -0.620787  0  2.236841  0
O  O182  1  0.60377925  0.16478789  0.04570484  1  -1.174188  0  -0.378145  -0.62085  0  2.236798  0
O  O183  1  0.89622623  0.33520800  0.54570570  1  -1.174139  0  -0.37812  -0.620855  0  2.23682  0
O  O184  1  0.02778597  0.75016723  0.62167260  1  -0.551386  0  -0.211292  -0.495759  0  2.026683  0
O  O185  1  0.47220888  0.74982831  0.12167340  1  -0.551479  0  -0.21132  -0.49579  0  2.026542  0
O  O186  1  0.97221376  0.24983118  0.37832552  1  -0.551334  0  -0.211259  -0.495719  0  2.026658  0
O  O187  1  0.52778307  0.25016874  0.87832814  1  -0.5514  0  -0.211295  -0.495737  0  2.026611  0
O  O188  1  0.98883072  0.63932299  0.69943574  1  -0.553268  0  -0.222292  -0.503331  0  1.982993  0
O  O189  1  0.51116207  0.86067421  0.19943531  1  -0.553153  0  -0.222358  -0.50342  0  1.982948  0
O  O190  1  0.01117075  0.36067610  0.30056409  1  -0.55325  0  -0.222356  -0.503373  0  1.983002  0
O  O191  1  0.48882988  0.13932284  0.80056395  1  -0.553259  0  -0.222298  -0.503335  0  1.982939  0
O  O192  1  0.91905433  0.77321589  0.72208087  1  -0.518441  0  -0.164777  -0.398658  0  1.930895  0
O  O193  1  0.58094445  0.72678261  0.22208110  1  -0.518439  0  -0.164822  -0.398729  0  1.931011  0
O  O194  1  0.08094890  0.22678454  0.27791839  1  -0.518509  0  -0.164791  -0.398656  0  1.930879  0
O  O195  1  0.41905618  0.27321714  0.77791873  1  -0.518454  0  -0.16482  -0.398716  0  1.931006  0
O  O196  1  0.19516075  0.52980099  0.67733812  1  -1.254292  0  -0.616835  -0.830426  0  2.042317  0
O  O197  1  0.30483744  0.97019714  0.17733940  1  -1.25425  0  -0.616833  -0.830445  0  2.042278  0
O  O198  1  0.80484074  0.47019877  0.32266058  1  -1.254309  0  -0.616853  -0.830438  0  2.042311  0
O  O199  1  0.69515968  0.02980059  0.82266213  1  -1.254282  0  -0.616823  -0.830432  0  2.042291  0
