# generated using pymatgen
data_Al2H11C20S2N2ClO10
_symmetry_space_group_name_H-M   'P 1'
_cell_length_a   6.64218370
_cell_length_b   11.18172717
_cell_length_c   12.73133974
_cell_angle_alpha   81.18429453
_cell_angle_beta   75.31682491
_cell_angle_gamma   71.21804246
_symmetry_Int_Tables_number   1
_chemical_formula_structural   Al2H11C20S2N2ClO10
_chemical_formula_sum   'Al2 H11 C20 S2 N2 Cl1 O10'
_cell_volume   863.32957923
_cell_formula_units_Z   1
loop_
 _symmetry_equiv_pos_site_id
 _symmetry_equiv_pos_as_xyz
  1  'x, y, z'
loop_
 _atom_site_type_symbol
 _atom_site_label
 _atom_site_symmetry_multiplicity
 _atom_site_fract_x
 _atom_site_fract_y
 _atom_site_fract_z
 _atom_site_occupancy
 _atom_site_pbe_bader_charge
 _atom_site_pbe_bader_spin_density
 _atom_site_pbe_cm5_charge
 _atom_site_pbe_ddec_charge
 _atom_site_pbe_ddec_spin_density
 _atom_site_pbe_ddec_sum_bond_order
 _atom_site_pbe_magmom
Al  Al0  1  0.49296067  0.50159121  0.50581341  1  2.50329  0  0.390681  1.637825  0  2.5817  0
Al  Al1  1  0.99274000  0.50148893  0.50710073  1  2.502446  0  0.39145  1.634187  0  2.581729  0
H  H2  1  0.29809742  0.34466576  0.55577896  1  0.601028  0  0.3437  0.41757  0  0.883054  0
H  H3  1  0.69851156  0.65365410  0.43713343  1  0.603887  0  0.34324  0.417625  0  0.883691  0
H  H4  1  0.66442688  0.58247013  0.15041780  1  0.118392  0  0.119516  0.144315  0  0.979669  0
H  H5  1  0.22801025  0.23916511  0.35347257  1  0.096572  0  0.097674  0.102612  0  1.045125  0
H  H6  1  0.57558889  0.12424352  0.23993597  1  0.046892  0  0.097383  0.094754  0  1.001212  0
H  H7  1  0.44792970  0.76964662  0.36264803  1  0.043284  0  0.100645  0.098391  0  1.05326  0
H  H8  1  0.68580925  0.88746778  0.24436170  1  0.054645  0  0.097777  0.095603  0  0.994382  0
H  H9  1  0.73496959  0.78353903  0.60901022  1  0.463545  0  0.303965  0.306126  0  0.967123  0
H  H10  1  0.54409792  0.92590167  0.62242395  1  0.44213  0  0.308511  0.300301  0  0.940404  0
H  H11  1  0.56661657  0.21977448  0.63880679  1  0.461214  0  0.30301  0.293679  0  0.976706  0
H  H12  1  0.55748144  0.07516691  0.69711027  1  0.433357  0  0.302926  0.289309  0  0.957407  0
C  C13  1  0.86269842  0.27557896  0.49533394  1  1.527535  0  0.269974  0.670152  0  4.063526  0
C  C14  1  0.65770593  0.49408005  0.70249167  1  1.587163  0  0.250422  0.646624  0  4.15621  0
C  C15  1  0.12748442  0.72853510  0.51212065  1  1.557503  0  0.274202  0.678417  0  4.052111  0
C  C16  1  0.32900696  0.50601179  0.31022538  1  1.565086  0  0.255833  0.637991  0  4.154345  0
C  C17  1  0.43110300  0.44883422  0.89330253  1  0.113438  0  0.005873  0.095928  0  4.098232  0
C  C18  1  0.56027775  0.54276726  0.12180067  1  0.096617  0  -0.087225  -0.131999  0  3.958998  0
C  C19  1  0.59180792  0.49403473  0.82144866  1  -0.112779  0  -0.028529  -0.192374  0  3.949031  0
C  C20  1  0.39519726  0.50120899  0.19142237  1  -0.181723  0  -0.017505  -0.115152  0  3.959598  0
C  C21  1  0.57042367  0.52614778  0.01260333  1  -0.153108  0  -0.022681  -0.000387  0  4.080932  0
C  C22  1  0.41637073  0.46897149  0.00229741  1  -0.129306  0  -0.029702  -0.090356  0  4.100834  0
C  C23  1  0.93346638  0.13543559  0.49515244  1  0.059551  0  -0.028608  -0.208628  0  3.953383  0
C  C24  1  0.13934947  0.07051942  0.43016504  1  -0.003948  0  -0.010995  0.060606  0  4.005501  0
C  C25  1  0.79282787  0.07016132  0.55927916  1  0.416413  0  0.099323  0.194378  0  4.04272  0
C  C26  1  0.27741972  0.13610454  0.35836286  1  -0.067862  0  -0.100703  -0.139323  0  3.986648  0
C  C27  1  0.47242543  0.07161285  0.29426477  1  -0.066805  0  -0.102811  -0.091511  0  4.061381  0
C  C28  1  0.05882541  0.86905080  0.50278871  1  0.034427  0  -0.032767  -0.220042  0  3.956305  0
C  C29  1  0.85174180  0.93458465  0.55860373  1  0.405695  0  0.101676  0.200594  0  4.050304  0
C  C30  1  0.20468940  0.93486324  0.43528249  1  0.00453  0  -0.011378  0.058903  0  4.008098  0
C  C31  1  0.40315169  0.87188310  0.36560339  1  -0.076962  0  -0.106751  -0.155531  0  4.006757  0
C  C32  1  0.53491255  0.93837691  0.29729424  1  0.001924  0  -0.103908  -0.092116  0  4.065394  0
S  S33  1  0.72823431  0.55743742  0.88790259  1  0.288833  0  0.095331  0.148942  0  2.826386  0
S  S34  1  0.25303905  0.44040847  0.12590063  1  0.277457  0  0.098932  0.148062  0  2.783428  0
N  N35  1  0.70212223  0.87596841  0.62238857  1  -1.229193  0  -0.597706  -0.606632  0  3.290825  0
N  N36  1  0.59394508  0.12776192  0.62628223  1  -1.208934  0  -0.594564  -0.602946  0  3.31835  0
Cl  Cl37  1  0.27376874  0.37226202  0.85994737  1  -0.168434  0  0.019345  -0.025462  0  1.599251  0
O  O38  1  0.67221881  0.33332287  0.47867941  1  -1.271829  0  -0.233942  -0.587563  0  2.329915  0
O  O39  1  0.83611812  0.51974360  0.65766579  1  -1.250054  0  -0.241493  -0.585148  0  2.316289  0
O  O40  1  0.99486469  0.67324305  0.49906298  1  -1.269612  0  -0.235466  -0.604506  0  2.346027  0
O  O41  1  0.45630836  0.53236886  0.35702793  1  -1.256175  0  -0.237272  -0.587179  0  2.339346  0
O  O42  1  0.31417804  0.67021804  0.53266469  1  -1.2682  0  -0.23551  -0.590179  0  2.329778  0
O  O43  1  0.14768540  0.48476099  0.35611593  1  -1.252641  0  -0.238759  -0.586015  0  2.338879  0
O  O44  1  0.98988041  0.32970724  0.51493008  1  -1.26572  0  -0.230452  -0.591164  0  2.347193  0
O  O45  1  0.53301894  0.46847809  0.65355063  1  -1.255061  0  -0.240538  -0.596336  0  2.383579  0
O  O46  1  0.25571692  0.43676198  0.55150053  1  -1.405533  0  -0.450558  -0.983378  0  2.186394  0
O  O47  1  0.73232913  0.56390900  0.46034721  1  -1.412975  0  -0.451566  -0.988968  0  2.209943  0
