# generated using pymatgen
data_DyH6(CO)8
_symmetry_space_group_name_H-M   'P 1'
_cell_length_a   8.83609395
_cell_length_b   8.83608209
_cell_length_c   12.59541265
_cell_angle_alpha   83.48991039
_cell_angle_beta   83.48997024
_cell_angle_gamma   86.90684716
_symmetry_Int_Tables_number   1
_chemical_formula_structural   DyH6(CO)8
_chemical_formula_sum   'Dy4 H24 C32 O32'
_cell_volume   969.92197584
_cell_formula_units_Z   4
loop_
 _symmetry_equiv_pos_site_id
 _symmetry_equiv_pos_as_xyz
  1  'x, y, z'
loop_
 _atom_site_type_symbol
 _atom_site_label
 _atom_site_symmetry_multiplicity
 _atom_site_fract_x
 _atom_site_fract_y
 _atom_site_fract_z
 _atom_site_occupancy
 _atom_site_pbe_bader_spin_density
 _atom_site_pbe_cm5_charge
 _atom_site_pbe_ddec_charge
 _atom_site_pbe_ddec_spin_density
 _atom_site_pbe_ddec_sum_bond_order
 _atom_site_pbe_magmom
Dy  Dy0  1  0.73615648  0.80727067  0.77728735  1  0  1.545486  2.054432  0  2.246481  0
Dy  Dy1  1  0.19273116  0.26384028  0.72271726  1  0  1.545542  2.054376  0  2.246583  0
Dy  Dy2  1  0.26384573  0.19272933  0.22271417  1  0  1.545481  2.054402  0  2.246555  0
Dy  Dy3  1  0.80726877  0.73615971  0.27728126  1  0  1.545562  2.054424  0  2.246516  0
H  H4  1  0.44897238  0.81922736  0.02394148  1  0  0.109403  0.07603  0  0.972803  0
H  H5  1  0.18077098  0.55102854  0.47605734  1  0  0.109414  0.076075  0  0.972694  0
H  H6  1  0.55102419  0.18077149  0.97605899  1  0  0.109429  0.076076  0  0.97269  0
H  H7  1  0.81922549  0.44897259  0.52394376  1  0  0.109415  0.076042  0  0.972782  0
H  H8  1  0.40617385  0.62057583  0.03451344  1  0  0.101695  0.072355  0  1.004271  0
H  H9  1  0.37942477  0.59382505  0.46548383  1  0  0.101699  0.072349  0  1.00427  0
H  H10  1  0.59382494  0.37942417  0.96548677  1  0  0.101697  0.072371  0  1.004267  0
H  H11  1  0.62057289  0.40617494  0.53451488  1  0  0.10171  0.072357  0  1.004252  0
H  H12  1  0.26406513  0.78928851  0.89672023  1  0  0.108453  0.085615  0  0.986842  0
H  H13  1  0.21071486  0.73593543  0.60327508  1  0  0.108453  0.085642  0  0.98677  0
H  H14  1  0.73593718  0.21070920  0.10327908  1  0  0.108447  0.0856  0  0.986817  0
H  H15  1  0.78928393  0.26406456  0.39672354  1  0  0.108469  0.085665  0  0.986735  0
H  H16  1  0.38116898  0.63935514  0.84095865  1  0  0.106868  0.073496  0  0.987169  0
H  H17  1  0.36064790  0.61883179  0.65903755  1  0  0.106881  0.073488  0  0.987198  0
H  H18  1  0.61883428  0.36064713  0.15903864  1  0  0.10687  0.0735  0  0.987186  0
H  H19  1  0.63935317  0.38116820  0.34096247  1  0  0.106878  0.073479  0  0.98723  0
H  H20  1  0.41033278  0.92792989  0.76274063  1  0  0.315622  0.371908  0  0.954046  0
H  H21  1  0.07207213  0.58967100  0.73725612  1  0  0.315626  0.371922  0  0.954047  0
H  H22  1  0.58966710  0.07207124  0.23726098  1  0  0.315607  0.371914  0  0.95404  0
H  H23  1  0.92792652  0.41033241  0.26274383  1  0  0.315657  0.371961  0  0.954006  0
H  H24  1  0.67837279  0.68434329  0.01136794  1  0  0.31055  0.358705  0  0.963534  0
H  H25  1  0.31565664  0.32162589  0.48863104  1  0  0.310516  0.358629  0  0.96364  0
H  H26  1  0.32162582  0.31566127  0.98863429  1  0  0.310517  0.358709  0  0.963562  0
H  H27  1  0.68433997  0.67837182  0.51136873  1  0  0.310519  0.358647  0  0.963587  0
C  C28  1  0.56630519  0.92020122  0.54430337  1  0  0.115832  0.183965  0  4.104922  0
C  C29  1  0.07981391  0.43368893  0.95569395  1  0  0.115939  0.184162  0  4.105001  0
C  C30  1  0.43369555  0.07980675  0.45569366  1  0  0.115876  0.184035  0  4.104937  0
C  C31  1  0.92019272  0.56631448  0.04430456  1  0  0.115959  0.184093  0  4.104958  0
C  C32  1  0.43668728  0.02687917  0.57108019  1  0  0.117673  0.19197  0  4.085258  0
C  C33  1  0.97311860  0.56331950  0.92892886  1  0  0.117722  0.191997  0  4.08503  0
C  C34  1  0.56331128  0.97312653  0.42892593  1  0  0.117709  0.192118  0  4.08506  0
C  C35  1  0.02688352  0.43668278  0.07107567  1  0  0.117596  0.191851  0  4.085294  0
C  C36  1  0.91159402  0.96971264  0.95918273  1  0  0.121627  0.210251  0  4.112185  0
C  C37  1  0.03028625  0.08840696  0.54081463  1  0  0.121676  0.210469  0  4.112491  0
C  C38  1  0.08840501  0.03028165  0.04081712  1  0  0.121593  0.210228  0  4.112309  0
C  C39  1  0.96971401  0.91158505  0.45918133  1  0  0.121612  0.210202  0  4.112503  0
C  C40  1  0.06774128  0.02222887  0.92696373  1  0  0.119574  0.196146  0  4.121741  0
C  C41  1  0.97777098  0.93224627  0.57303864  1  0  0.119667  0.196177  0  4.121672  0
C  C42  1  0.93225885  0.97776657  0.07304468  1  0  0.119734  0.19629  0  4.122024  0
C  C43  1  0.02222843  0.06773891  0.42697064  1  0  0.119679  0.196169  0  4.12196  0
C  C44  1  0.69199627  0.19618045  0.74099727  1  0  0.123956  0.20665  0  4.099399  0
C  C45  1  0.80383172  0.30801943  0.75900280  1  0  0.123994  0.206644  0  4.099906  0
C  C46  1  0.30800912  0.80382524  0.25900037  1  0  0.123981  0.206568  0  4.099327  0
C  C47  1  0.19616702  0.69198171  0.24099732  1  0  0.123986  0.206673  0  4.099706  0
C  C48  1  0.56975610  0.31622402  0.74892641  1  0  0.117233  0.200005  0  4.136322  0
C  C49  1  0.68378355  0.43023797  0.75107329  1  0  0.117211  0.19996  0  4.136254  0
C  C50  1  0.43025189  0.68377368  0.25107006  1  0  0.117282  0.200141  0  4.136306  0
C  C51  1  0.31621876  0.56975974  0.24892682  1  0  0.117192  0.199902  0  4.136252  0
C  C52  1  0.45861365  0.71595989  0.98175745  1  0  -0.073133  0.051845  0  3.891425  0
C  C53  1  0.28403870  0.54138536  0.51824083  1  0  -0.073118  0.051852  0  3.891352  0
C  C54  1  0.54138510  0.28404125  0.01824347  1  0  -0.073177  0.051765  0  3.891414  0
C  C55  1  0.71595895  0.45861463  0.48175788  1  0  -0.073145  0.051855  0  3.891391  0
C  C56  1  0.38176385  0.74502026  0.87979485  1  0  -0.071756  0.060332  0  3.884884  0
C  C57  1  0.25498042  0.61824017  0.62020204  1  0  -0.07184  0.060255  0  3.884874  0
C  C58  1  0.61823613  0.25497860  0.12020456  1  0  -0.071766  0.060333  0  3.884921  0
C  C59  1  0.74501705  0.38176438  0.37979553  1  0  -0.071811  0.060267  0  3.884982  0
O  O60  1  0.64694921  0.82204357  0.59600088  1  0  -0.331372  -0.511668  0  2.444025  0
O  O61  1  0.17795726  0.35305854  0.90400131  1  0  -0.331359  -0.511675  0  2.444403  0
O  O62  1  0.35305396  0.17796098  0.40400020  1  0  -0.331348  -0.511642  0  2.444187  0
O  O63  1  0.82204230  0.64695058  0.09600049  1  0  -0.331437  -0.511727  0  2.444267  0
O  O64  1  0.35834880  0.05629176  0.65728331  1  0  -0.335963  -0.509768  0  2.427216  0
O  O65  1  0.94371245  0.64165371  0.84271363  1  0  -0.336109  -0.509998  0  2.426925  0
O  O66  1  0.64165560  0.94371051  0.34271548  1  0  -0.336044  -0.509959  0  2.426875  0
O  O67  1  0.05628625  0.35834856  0.15728323  1  0  -0.335954  -0.509745  0  2.427188  0
O  O68  1  0.80336976  0.93315551  0.91221175  1  0  -0.394677  -0.553315  0  2.459052  0
O  O69  1  0.06683900  0.19661321  0.58779135  1  0  -0.394773  -0.55344  0  2.459468  0
O  O70  1  0.19662913  0.06684220  0.08778784  1  0  -0.394696  -0.553346  0  2.45901  0
O  O71  1  0.93316021  0.80337653  0.41221043  1  0  -0.39465  -0.553249  0  2.459439  0
O  O72  1  0.15123084  0.04875179  0.83945728  1  0  -0.395339  -0.556165  0  2.43917  0
O  O73  1  0.95124880  0.84876490  0.66053645  1  0  -0.39531  -0.556131  0  2.439513  0
O  O74  1  0.84877811  0.95125047  0.16053796  1  0  -0.395337  -0.556096  0  2.439693  0
O  O75  1  0.04875270  0.15122483  0.33946516  1  0  -0.395418  -0.556291  0  2.43928  0
O  O76  1  0.69666057  0.05999265  0.72119838  1  0  -0.393172  -0.545698  0  2.491262  0
O  O77  1  0.94000178  0.30334967  0.77879881  1  0  -0.393166  -0.545578  0  2.491656  0
O  O78  1  0.30334505  0.94000734  0.27879810  1  0  -0.393206  -0.54565  0  2.491438  0
O  O79  1  0.05999701  0.69665033  0.22120219  1  0  -0.393183  -0.545604  0  2.491693  0
O  O80  1  0.42670888  0.32286664  0.75646791  1  0  -0.405002  -0.554741  0  2.48655  0
O  O81  1  0.67712756  0.57329288  0.74353458  1  0  -0.405049  -0.554812  0  2.486367  0
O  O82  1  0.57329105  0.67713336  0.24353062  1  0  -0.40501  -0.554776  0  2.486839  0
O  O83  1  0.32286797  0.42670369  0.25646854  1  0  -0.405037  -0.55483  0  2.486569  0
O  O84  1  0.61697587  0.67794772  0.95036855  1  0  -0.445139  -0.566679  0  2.407661  0
O  O85  1  0.32204953  0.38302540  0.54963369  1  0  -0.4451  -0.566595  0  2.407815  0
O  O86  1  0.38302506  0.32205570  0.04963439  1  0  -0.445085  -0.566649  0  2.407701  0
O  O87  1  0.67794352  0.61697574  0.45036689  1  0  -0.445064  -0.566564  0  2.407667  0
O  O88  1  0.47040958  0.85567024  0.81045681  1  0  -0.468506  -0.595718  0  2.474969  0
O  O89  1  0.14433177  0.52959141  0.68954259  1  0  -0.468494  -0.595741  0  2.475007  0
O  O90  1  0.52959026  0.14433203  0.18954393  1  0  -0.468485  -0.595707  0  2.474997  0
O  O91  1  0.85566479  0.47040744  0.31045947  1  0  -0.468543  -0.595788  0  2.475153  0
