# generated using pymatgen
data_CdH8C6(N2Cl)2
_symmetry_space_group_name_H-M   'P 1'
_cell_length_a   3.89230934
_cell_length_b   9.66086798
_cell_length_c   13.10139494
_cell_angle_alpha   90.00008560
_cell_angle_beta   90.00016829
_cell_angle_gamma   92.80253256
_symmetry_Int_Tables_number   1
_chemical_formula_structural   CdH8C6(N2Cl)2
_chemical_formula_sum   'Cd2 H16 C12 N8 Cl4'
_cell_volume   492.06366559
_cell_formula_units_Z   2
loop_
 _symmetry_equiv_pos_site_id
 _symmetry_equiv_pos_as_xyz
  1  'x, y, z'
loop_
 _atom_site_type_symbol
 _atom_site_label
 _atom_site_symmetry_multiplicity
 _atom_site_fract_x
 _atom_site_fract_y
 _atom_site_fract_z
 _atom_site_occupancy
 _atom_site_hle17_bader_spin_density
 _atom_site_hle17_ddec_charge
 _atom_site_hle17_ddec_spin_density
 _atom_site_hle17_ddec_sum_bond_order
 _atom_site_hle17_magmom
 _atom_site_hse06_10hf_bader_spin_density
 _atom_site_hse06_10hf_ddec_charge
 _atom_site_hse06_10hf_ddec_spin_density
 _atom_site_hse06_10hf_ddec_sum_bond_order
 _atom_site_hse06_10hf_magmom
 _atom_site_hse06_bader_spin_density
 _atom_site_hse06_ddec_charge
 _atom_site_hse06_ddec_spin_density
 _atom_site_hse06_ddec_sum_bond_order
 _atom_site_hse06_magmom
 _atom_site_pbe_bader_spin_density
 _atom_site_pbe_cm5_charge
 _atom_site_pbe_ddec_charge
 _atom_site_pbe_ddec_spin_density
 _atom_site_pbe_ddec_sum_bond_order
 _atom_site_pbe_magmom
Cd  Cd0  1  0.99999954  0.99999928  0.99999984  1  0  0.976498  0  1.898487  0  0  0.810717  0  2.342757  0  0  0.855004  0  2.305566  0  0  0.628897  0.779359  0  2.367867  0
Cd  Cd1  1  0.99999602  0.49999902  0.50000014  1  0  0.976445  0  1.898479  0  0  0.810661  0  2.342739  0  0  0.854946  0  2.305547  0  0  0.628866  0.779297  0  2.367846  0
H  H2  1  0.68913737  0.79352650  0.80811468  1  0  0.087225  0  0.961939  0  0  0.095873  0  1.028732  0  0  0.097715  0  1.027005  0  0  0.123875  0.094178  0  1.030952  0
H  H3  1  0.31085379  0.70647472  0.30811657  1  0  0.087296  0  0.961972  0  0  0.095882  0  1.028827  0  0  0.097723  0  1.027102  0  0  0.123885  0.094187  0  1.031045  0
H  H4  1  0.31086716  0.20647173  0.19188516  1  0  0.087236  0  0.961948  0  0  0.095896  0  1.028729  0  0  0.097738  0  1.027002  0  0  0.12387  0.0942  0  1.030952  0
H  H5  1  0.68913578  0.29352667  0.69188557  1  0  0.087385  0  0.96187  0  0  0.095923  0  1.028778  0  0  0.097764  0  1.027051  0  0  0.123885  0.094228  0  1.030997  0
H  H6  1  0.79907627  0.83337717  0.61736636  1  0  0.290891  0  0.932663  0  0  0.272277  0  0.999286  0  0  0.280103  0  0.992935  0  0  0.284517  0.266632  0  1.003977  0
H  H7  1  0.20092112  0.66662670  0.11736734  1  0  0.29096  0  0.932591  0  0  0.272419  0  0.999137  0  0  0.280246  0  0.992783  0  0  0.284531  0.266772  0  1.003829  0
H  H8  1  0.20092328  0.16662211  0.38263348  1  0  0.290875  0  0.932675  0  0  0.27226  0  0.999304  0  0  0.280087  0  0.992955  0  0  0.28452  0.266615  0  1.003992  0
H  H9  1  0.79907902  0.33337673  0.88263326  1  0  0.290899  0  0.932606  0  0  0.272381  0  0.999157  0  0  0.280208  0  0.992805  0  0  0.284536  0.266735  0  1.003849  0
H  H10  1  0.18189099  0.05679593  0.58712919  1  0  0.110758  0  0.963701  0  0  0.119864  0  1.025629  0  0  0.122996  0  1.02349  0  0  0.110679  0.117107  0  1.028043  0
H  H11  1  0.81811134  0.44320534  0.08712720  1  0  0.110748  0  0.963707  0  0  0.119861  0  1.025627  0  0  0.122994  0  1.023487  0  0  0.110662  0.117102  0  1.028045  0
H  H12  1  0.81810598  0.94320336  0.41287065  1  0  0.110742  0  0.963753  0  0  0.119887  0  1.025626  0  0  0.123018  0  1.023488  0  0  0.110685  0.117129  0  1.028041  0
H  H13  1  0.18189621  0.55679598  0.91287188  1  0  0.11073  0  0.963772  0  0  0.119877  0  1.025639  0  0  0.12301  0  1.023501  0  0  0.110668  0.117119  0  1.028055  0
H  H14  1  0.31208058  0.15985004  0.78255277  1  0  0.099417  0  0.974758  0  0  0.107006  0  1.040552  0  0  0.109284  0  1.039708  0  0  0.106331  0.105158  0  1.041828  0
H  H15  1  0.68792071  0.34014857  0.28255132  1  0  0.099441  0  0.974717  0  0  0.107004  0  1.04055  0  0  0.109283  0  1.039704  0  0  0.106335  0.105152  0  1.041835  0
H  H16  1  0.68791882  0.84014820  0.21744707  1  0  0.099458  0  0.974684  0  0  0.107034  0  1.040487  0  0  0.109312  0  1.039644  0  0  0.106346  0.105181  0  1.041778  0
H  H17  1  0.31208126  0.65984966  0.71744853  1  0  0.099431  0  0.97475  0  0  0.106998  0  1.040576  0  0  0.109275  0  1.039735  0  0  0.106337  0.105151  0  1.041851  0
C  C18  1  0.84076832  0.87917123  0.77502137  1  0  0.213638  0  3.689011  0  0  0.154957  0  3.956671  0  0  0.169037  0  3.970689  0  0  0.135136  0.145222  0  3.948379  0
C  C19  1  0.15922764  0.62082989  0.27502379  1  0  0.213591  0  3.689136  0  0  0.154948  0  3.956806  0  0  0.169028  0  3.970828  0  0  0.135104  0.145214  0  3.948504  0
C  C20  1  0.15923636  0.12082803  0.22497771  1  0  0.213581  0  3.689033  0  0  0.154882  0  3.956707  0  0  0.168964  0  3.97073  0  0  0.135121  0.145149  0  3.948405  0
C  C21  1  0.84076692  0.37917044  0.72497834  1  0  0.213428  0  3.689189  0  0  0.154869  0  3.956873  0  0  0.168951  0  3.970895  0  0  0.135121  0.145135  0  3.948579  0
C  C22  1  0.09945465  0.01800364  0.66120903  1  0  -0.012068  0  3.687796  0  0  -0.048917  0  3.95013  0  0  -0.047238  0  3.968246  0  0  -0.004852  -0.049074  0  3.937405  0
C  C23  1  0.90054857  0.48199883  0.16120792  1  0  -0.012057  0  3.687798  0  0  -0.04891  0  3.950141  0  0  -0.047231  0  3.968257  0  0  -0.004825  -0.049069  0  3.937416  0
C  C24  1  0.90054504  0.98199667  0.33879081  1  0  -0.012135  0  3.687905  0  0  -0.049009  0  3.950235  0  0  -0.04733  0  3.968355  0  0  -0.004885  -0.049166  0  3.937506  0
C  C25  1  0.09945897  0.51800249  0.83879116  1  0  -0.01217  0  3.687877  0  0  -0.049009  0  3.950242  0  0  -0.04733  0  3.968357  0  0  -0.004877  -0.049168  0  3.937521  0
C  C26  1  0.16119189  0.06902900  0.75780262  1  0  -0.010762  0  3.758469  0  0  -0.045675  0  4.028864  0  0  -0.044112  0  4.050408  0  0  -0.014618  -0.047012  0  4.015012  0
C  C27  1  0.83881216  0.43097266  0.25780140  1  0  -0.010735  0  3.758432  0  0  -0.045639  0  4.028835  0  0  -0.044076  0  4.050379  0  0  -0.014605  -0.046975  0  4.014976  0
C  C28  1  0.83881022  0.93097027  0.24219722  1  0  -0.010757  0  3.758402  0  0  -0.045661  0  4.028799  0  0  -0.044098  0  4.050347  0  0  -0.014612  -0.047  0  4.014943  0
C  C29  1  0.16119267  0.56902764  0.74219768  1  0  -0.010692  0  3.75848  0  0  -0.045593  0  4.028875  0  0  -0.044028  0  4.050419  0  0  -0.014589  -0.046929  0  4.015026  0
N  N30  1  0.99838094  0.98153590  0.82787770  1  0  -0.396038  0  3.308566  0  0  -0.312739  0  3.582462  0  0  -0.335658  0  3.603559  0  0  -0.36779  -0.297159  0  3.567896  0
N  N31  1  0.00161541  0.51846431  0.32787682  1  0  -0.396043  0  3.308663  0  0  -0.312719  0  3.582507  0  0  -0.335637  0  3.603603  0  0  -0.367758  -0.297137  0  3.567929  0
N  N32  1  0.00162374  0.01846336  0.17212214  1  0  -0.39603  0  3.308582  0  0  -0.31272  0  3.582474  0  0  -0.335631  0  3.603548  0  0  -0.367802  -0.297139  0  3.567906  0
N  N33  1  0.99837900  0.48153499  0.67212379  1  0  -0.39604  0  3.308671  0  0  -0.312724  0  3.582499  0  0  -0.33564  0  3.603589  0  0  -0.367773  -0.297143  0  3.56793  0
N  N34  1  0.89853823  0.89778886  0.67411689  1  0  -0.284742  0  3.497535  0  0  -0.216195  0  3.728787  0  0  -0.232558  0  3.745002  0  0  -0.382209  -0.204921  0  3.717639  0
N  N35  1  0.10146199  0.60221306  0.17411695  1  0  -0.284844  0  3.49756  0  0  -0.216361  0  3.728748  0  0  -0.232728  0  3.74496  0  0  -0.382246  -0.205086  0  3.717601  0
N  N36  1  0.10146645  0.10221041  0.32588296  1  0  -0.284628  0  3.497552  0  0  -0.216098  0  3.728836  0  0  -0.232469  0  3.745059  0  0  -0.382164  -0.204822  0  3.717682  0
N  N37  1  0.89854026  0.39778725  0.82588290  1  0  -0.284593  0  3.497467  0  0  -0.216229  0  3.728747  0  0  -0.232596  0  3.744961  0  0  -0.382213  -0.204954  0  3.717603  0
Cl  Cl38  1  0.52251789  0.20011406  0.99133066  1  0  -0.586599  0  0.916579  0  0  -0.531844  0  1.182014  0  0  -0.547108  0  1.162087  0  0  -0.305532  -0.519842  0  1.196228  0
Cl  Cl39  1  0.47748036  0.29988504  0.49133126  1  0  -0.586588  0  0.916617  0  0  -0.531798  0  1.182035  0  0  -0.547059  0  1.162106  0  0  -0.30552  -0.519795  0  1.196249  0
Cl  Cl40  1  0.47748408  0.79988418  0.00866919  1  0  -0.586581  0  0.916583  0  0  -0.531826  0  1.182014  0  0  -0.547089  0  1.162089  0  0  -0.305507  -0.519822  0  1.196231  0
Cl  Cl41  1  0.52251419  0.70011529  0.50866935  1  0  -0.58657  0  0.916572  0  0  -0.531812  0  1.182022  0  0  -0.547071  0  1.162092  0  0  -0.30553  -0.51981  0  1.196235  0
