# generated using pymatgen
data_MnH9C13(NO2)2
_symmetry_space_group_name_H-M   'P 1'
_cell_length_a   10.92822379
_cell_length_b   15.18421957
_cell_length_c   16.36818942
_cell_angle_alpha   89.99906471
_cell_angle_beta   98.43220595
_cell_angle_gamma   89.99948921
_symmetry_Int_Tables_number   1
_chemical_formula_structural   MnH9C13(NO2)2
_chemical_formula_sum   'Mn8 H72 C104 N16 O32'
_cell_volume   2686.72021095
_cell_formula_units_Z   8
loop_
 _symmetry_equiv_pos_site_id
 _symmetry_equiv_pos_as_xyz
  1  'x, y, z'
loop_
 _atom_site_type_symbol
 _atom_site_label
 _atom_site_symmetry_multiplicity
 _atom_site_fract_x
 _atom_site_fract_y
 _atom_site_fract_z
 _atom_site_occupancy
 _atom_site_pbe_bader_charge
 _atom_site_pbe_bader_spin_density
 _atom_site_pbe_cm5_charge
 _atom_site_pbe_ddec_charge
 _atom_site_pbe_ddec_spin_density
 _atom_site_pbe_ddec_sum_bond_order
 _atom_site_pbe_magmom
Mn  Mn0  1  0.29547224  0.64000260  0.11385400  1  1.484179  4.513471  0.610035  0.868892  4.65026  2.432279  4.432
Mn  Mn1  1  0.70454472  0.13999029  0.38614854  1  1.483996  4.51354  0.610035  0.868872  4.650068  2.432275  4.432
Mn  Mn2  1  0.70451643  0.36000312  0.88615161  1  1.483938  4.51359  0.610004  0.868925  4.650409  2.432141  4.432
Mn  Mn3  1  0.29545515  0.86000951  0.61383924  1  1.484207  4.513561  0.610015  0.868909  4.650088  2.432117  4.432
Mn  Mn4  1  0.74811735  0.99293106  0.22039741  1  1.485237  4.563602  0.589521  0.976793  4.687948  2.261132  4.469
Mn  Mn5  1  0.25189682  0.49292491  0.27960075  1  1.485365  4.563578  0.589557  0.97684  4.688002  2.261084  4.469
Mn  Mn6  1  0.25186768  0.00708191  0.77959683  1  1.485236  4.563654  0.589526  0.976826  4.688062  2.261019  4.469
Mn  Mn7  1  0.74810849  0.50707488  0.72040652  1  1.485344  4.56357  0.589571  0.976908  4.68804  2.260907  4.469
H  H8  1  0.27300021  0.50773419  0.96481749  1  0.112291  0.001283  0.11786  0.085891  0.000496  1.021837  0.001
H  H9  1  0.72701665  0.00772593  0.53519115  1  0.112327  0.001283  0.117886  0.085896  0.000496  1.021807  0.001
H  H10  1  0.72702178  0.49227417  0.03518717  1  0.112364  0.001283  0.117907  0.0859  0.000496  1.021767  0.001
H  H11  1  0.27298324  0.99227782  0.46479236  1  0.111279  0.001284  0.117841  0.085775  0.000496  1.021765  0.001
H  H12  1  0.17346065  0.49909462  0.81631377  1  0.102589  0.000804  0.108139  0.113754  0.000262  1.006484  0.0
H  H13  1  0.82653824  0.99909629  0.68369604  1  0.102313  0.000804  0.108167  0.113879  0.000262  1.006418  0.0
H  H14  1  0.82655025  0.50090518  0.18368917  1  0.102598  0.000804  0.108178  0.113901  0.000262  1.006514  0.0
H  H15  1  0.17346723  0.00090285  0.31628314  1  0.102438  0.000805  0.108185  0.11384  0.000262  1.006241  0.0
H  H16  1  0.05514129  0.63150012  0.75437112  1  0.11786  9.3e-05  0.111326  0.108234  -0.000305  1.01676  0.0
H  H17  1  0.94482359  0.13151109  0.74564511  1  0.117832  9.3e-05  0.111268  0.10825  -0.000305  1.016679  0.0
H  H18  1  0.94483620  0.36848782  0.24564924  1  0.117708  9.3e-05  0.111244  0.10824  -0.000305  1.016608  0.0
H  H19  1  0.05519016  0.86848344  0.25434285  1  0.117583  9.3e-05  0.111359  0.1084  -0.000305  1.016795  0.0
H  H20  1  0.05387074  0.76746092  0.83918125  1  0.117809  0.000939  0.111513  0.118856  0.000308  1.024597  0.0
H  H21  1  0.94609758  0.26747074  0.66082656  1  0.117792  0.000939  0.111518  0.118906  0.000308  1.024483  0.0
H  H22  1  0.94609103  0.23252043  0.16083449  1  0.11758  0.000939  0.111506  0.118917  0.000308  1.024457  0.0
H  H23  1  0.05391804  0.73252774  0.33915853  1  0.114912  0.000939  0.111547  0.118986  0.000308  1.024497  0.0
H  H24  1  0.10387489  0.88207721  0.90399313  1  0.126171  0.001157  0.114494  0.128505  0.000591  1.022105  0.0
H  H25  1  0.89610740  0.38207269  0.59600518  1  0.126265  0.001156  0.114487  0.128488  0.00059  1.022219  0.0
H  H26  1  0.89612121  0.11792127  0.09600711  1  0.126064  0.001157  0.114499  0.128633  0.000591  1.022155  0.0
H  H27  1  0.10389152  0.61793105  0.40398679  1  0.126141  0.001157  0.114547  0.128655  0.00059  1.022242  0.0
H  H28  1  0.12466438  0.00868953  0.00055592  1  0.111461  0.000173  0.113599  0.112585  -0.000108  0.994692  0.0
H  H29  1  0.87532785  0.50868664  0.49944001  1  0.111637  0.000173  0.113575  0.112518  -0.000108  0.994586  0.0
H  H30  1  0.87534560  0.99131158  0.99944387  1  0.111458  0.000173  0.113588  0.112544  -0.000108  0.994755  0.0
H  H31  1  0.12465162  0.49131909  0.50055367  1  0.11164  0.000173  0.113505  0.112438  -0.000107  0.99445  0.0
H  H32  1  0.19340409  0.98077283  0.15252180  1  0.089163  0.000819  0.113197  0.119167  0.000423  0.985427  0.0
H  H33  1  0.80661216  0.48076908  0.34747003  1  0.089336  0.000819  0.113156  0.119109  0.000423  0.985442  0.0
H  H34  1  0.80660683  0.01922763  0.84747687  1  0.089304  0.000819  0.113142  0.119031  0.000423  0.985368  0.0
H  H35  1  0.19336826  0.51923730  0.65252131  1  0.089531  0.000819  0.113146  0.119067  0.000423  0.985564  0.0
H  H36  1  0.25092832  0.82592661  0.19766211  1  0.126627  0.00121  0.115682  0.083043  0.000411  1.036112  0.001
H  H37  1  0.74908666  0.32592273  0.30233315  1  0.126651  0.001211  0.115639  0.082978  0.000411  1.036141  0.001
H  H38  1  0.74906591  0.17407516  0.80234161  1  0.126725  0.001211  0.115666  0.083062  0.000411  1.036164  0.001
H  H39  1  0.25091042  0.67407773  0.69765497  1  0.126353  0.001211  0.115673  0.083098  0.000411  1.036274  0.001
H  H40  1  0.52566174  0.32088529  0.23250973  1  0.066428  0.000546  0.10217  0.107337  -0.000422  1.032741  0.0
H  H41  1  0.47436251  0.82087594  0.26749936  1  0.066509  0.000546  0.102207  0.107453  -0.000422  1.032676  0.0
H  H42  1  0.47435288  0.67912175  0.76749053  1  0.066282  0.000547  0.102179  0.107409  -0.000422  1.032818  0.0
H  H43  1  0.52564930  0.17912056  0.73250550  1  0.066262  0.000547  0.102159  0.107364  -0.000422  1.032943  0.0
H  H44  1  0.42929150  0.42342292  0.98694280  1  0.079708  0.000383  0.107152  0.116542  -0.000332  1.026663  0.0
H  H45  1  0.57072429  0.92340294  0.51307290  1  0.080028  0.000382  0.10711  0.116511  -0.000332  1.026619  0.0
H  H46  1  0.57069719  0.57658807  0.01305914  1  0.07997  0.000382  0.107158  0.116559  -0.000332  1.026613  0.0
H  H47  1  0.42929951  0.07658566  0.48693927  1  0.079941  0.000382  0.107132  0.116535  -0.000332  1.026538  0.0
H  H48  1  0.58739999  0.16326078  0.02406399  1  0.099835  0.000433  0.112203  0.128265  -0.000262  0.995816  0.0
H  H49  1  0.41258328  0.66325673  0.47593971  1  0.099644  0.000433  0.112256  0.128304  -0.000262  0.995929  0.0
H  H50  1  0.41258595  0.83674692  0.97593218  1  0.099445  0.000433  0.11219  0.1282  -0.000262  0.995967  0.0
H  H51  1  0.58741095  0.33674438  0.52406462  1  0.099702  0.000433  0.112199  0.128223  -0.000262  0.995988  0.0
H  H52  1  0.93721566  0.72116595  0.23297037  1  0.121154  0.000589  0.09864  0.106414  5.2e-05  1.055899  0.0
H  H53  1  0.06281581  0.22116192  0.26702017  1  0.121431  0.000589  0.098657  0.106444  5.2e-05  1.055819  0.0
H  H54  1  0.06278412  0.27884109  0.76703451  1  0.121225  0.00059  0.098616  0.106449  5.2e-05  1.055901  0.0
H  H55  1  0.93719789  0.77884051  0.73297755  1  0.121436  0.000589  0.098662  0.106451  5.2e-05  1.055831  0.0
H  H56  1  0.75941513  0.79604813  0.99143649  1  0.071395  0.000497  0.104988  0.121793  0.000121  1.001685  0.0
H  H57  1  0.24058424  0.29604353  0.50856605  1  0.07168  0.000497  0.104898  0.121713  0.000121  1.001419  0.0
H  H58  1  0.24057821  0.20394705  0.00856224  1  0.071126  0.000497  0.10494  0.121714  0.000121  1.001709  0.0
H  H59  1  0.75942664  0.70394111  0.49144056  1  0.071192  0.000497  0.104859  0.121625  0.000121  1.001538  0.0
H  H60  1  0.99369673  0.56537233  0.02152793  1  0.082842  0.000324  0.101043  0.109157  -0.000284  1.032988  0.0
H  H61  1  0.00630203  0.06537680  0.47846658  1  0.082941  0.000324  0.101066  0.109197  -0.000284  1.032982  0.0
H  H62  1  0.00630670  0.43462681  0.97848709  1  0.082687  0.000323  0.101085  0.109177  -0.000284  1.032996  0.0
H  H63  1  0.99368488  0.93462299  0.52152235  1  0.082953  0.000324  0.101006  0.109123  -0.000284  1.032861  0.0
H  H64  1  0.44693954  0.32248486  0.87347385  1  0.450605  0.000537  0.319412  0.311368  -4.6e-05  0.906702  0.0
H  H65  1  0.55303994  0.82246892  0.62653485  1  0.450583  0.000535  0.31946  0.311517  -4.7e-05  0.906517  0.0
H  H66  1  0.55305103  0.67753337  0.12652217  1  0.451036  0.000536  0.319476  0.311471  -4.6e-05  0.906424  0.0
H  H67  1  0.44695425  0.17752495  0.37347619  1  0.450832  0.000536  0.319407  0.311395  -4.6e-05  0.906552  0.0
H  H68  1  0.51181458  0.22322160  0.88795061  1  0.437083  0.000699  0.318859  0.31018  -9.9e-05  0.912288  0.0
H  H69  1  0.48816279  0.72321358  0.61205388  1  0.437307  0.000699  0.318835  0.31013  -9.9e-05  0.912128  0.0
H  H70  1  0.48816953  0.77678676  0.11204231  1  0.437086  0.0007  0.31879  0.310093  -9.8e-05  0.91228  0.0
H  H71  1  0.51183699  0.27677502  0.38795161  1  0.43719  0.000699  0.318847  0.310186  -9.9e-05  0.912306  0.0
H  H72  1  0.86386211  0.59770328  0.89036270  1  0.480233  0.000416  0.30538  0.310894  -0.00026  0.96018  0.0
H  H73  1  0.13612189  0.09770286  0.60963885  1  0.480121  0.000416  0.305375  0.310906  -0.00026  0.960068  0.0
H  H74  1  0.13613577  0.40228005  0.10965177  1  0.480187  0.000417  0.305408  0.310887  -0.00026  0.960143  0.0
H  H75  1  0.86388072  0.90227915  0.39035471  1  0.48021  0.000416  0.305392  0.3109  -0.00026  0.960088  0.0
H  H76  1  0.77796321  0.69226701  0.87522722  1  0.444745  7.3e-05  0.312381  0.313764  -0.00013  0.935188  0.0
H  H77  1  0.22202023  0.19226246  0.62477285  1  0.445035  7.3e-05  0.312223  0.313704  -0.000131  0.935357  0.0
H  H78  1  0.22204305  0.30772291  0.12477648  1  0.444908  7.3e-05  0.312359  0.313632  -0.00013  0.935338  0.0
H  H79  1  0.77798053  0.80772219  0.37522175  1  0.445195  7.3e-05  0.312333  0.313688  -0.000131  0.935414  0.0
C  C80  1  0.22414549  0.56373882  0.93368293  1  0.423817  0.00946  0.054671  0.10536  0.007587  3.941573  0.006
C  C81  1  0.77585753  0.06373232  0.56632470  1  0.423811  0.009458  0.05482  0.105681  0.007585  3.941507  0.006
C  C82  1  0.77585890  0.43626954  0.06632547  1  0.423928  0.009458  0.054789  0.105649  0.007584  3.941478  0.006
C  C83  1  0.22414514  0.93626484  0.43365725  1  0.424347  0.009464  0.054891  0.105923  0.007589  3.940814  0.006
C  C84  1  0.16888644  0.55960912  0.85142002  1  0.050562  0.000435  -0.083149  -0.131101  -0.00033  3.961205  0.0
C  C85  1  0.83110184  0.05960740  0.64858681  1  0.050444  0.000433  -0.083194  -0.131478  -0.000332  3.960936  0.0
C  C86  1  0.83111242  0.44039528  0.14858416  1  0.050439  0.000433  -0.083259  -0.131512  -0.000332  3.961166  0.0
C  C87  1  0.16889808  0.94038515  0.35139059  1  0.051422  0.000432  -0.083274  -0.131462  -0.000332  3.960832  0.0
C  C88  1  0.10519353  0.63324200  0.81687381  1  -0.042641  0.007844  -0.063347  -0.015888  0.00578  3.949  0.005
C  C89  1  0.89477969  0.13324781  0.68313529  1  -0.043028  0.007846  -0.063365  -0.015624  0.005781  3.94856  0.005
C  C90  1  0.89478216  0.36675450  0.18313660  1  -0.043264  0.007844  -0.063235  -0.015576  0.00578  3.948214  0.005
C  C91  1  0.10522761  0.86674671  0.31684713  1  -0.043225  0.007846  -0.063396  -0.015764  0.005781  3.948906  0.005
C  C92  1  0.10221438  0.70885825  0.86467448  1  0.015906  -2.5e-05  -0.072152  -0.140603  -0.000629  3.914866  -0.001
C  C93  1  0.89775581  0.20886225  0.63533134  1  0.016653  -2.6e-05  -0.072126  -0.140953  -0.00063  3.915556  -0.001
C  C94  1  0.89774930  0.29113298  0.13533106  1  0.016614  -2.7e-05  -0.07216  -0.140912  -0.000631  3.915096  -0.001
C  C95  1  0.10225794  0.79113030  0.36465600  1  0.019824  -2.7e-05  -0.072163  -0.141085  -0.000631  3.915198  -0.001
C  C96  1  0.16140594  0.70866503  0.94625244  1  0.417132  0.008552  0.125919  0.168261  0.006715  3.989286  0.006
C  C97  1  0.83859293  0.20866493  0.55375564  1  0.416976  0.008553  0.125954  0.168476  0.006714  3.989376  0.006
C  C98  1  0.83858272  0.29132488  0.05375377  1  0.417487  0.008547  0.125824  0.168109  0.00671  3.989475  0.006
C  C99  1  0.16141712  0.79133091  0.44623316  1  0.417247  0.008551  0.1259  0.168525  0.006712  3.988726  0.006
C  C100  1  0.16502595  0.78691049  0.00031241  1  0.47016  0.008838  0.12671  0.168487  0.006886  3.984395  0.006
C  C101  1  0.83497019  0.28690322  0.49968643  1  0.470021  0.008832  0.126753  0.168552  0.006882  3.984318  0.006
C  C102  1  0.83496828  0.21308732  0.99969069  1  0.469734  0.008829  0.126822  0.168717  0.006879  3.984918  0.006
C  C103  1  0.16502690  0.71309723  0.50030107  1  0.469339  0.008831  0.126772  0.168669  0.00688  3.984455  0.006
C  C104  1  0.13281816  0.87124094  0.96974846  1  -0.02806  -0.000229  -0.067355  -0.140139  -0.000737  3.891556  -0.001
C  C105  1  0.86717354  0.37123580  0.53025340  1  -0.027777  -0.000226  -0.06734  -0.140245  -0.000734  3.891804  -0.001
C  C106  1  0.86718530  0.12876149  0.03025985  1  -0.027908  -0.000224  -0.067374  -0.140441  -0.000733  3.891919  -0.001
C  C107  1  0.13281891  0.62876795  0.46973730  1  -0.027869  -0.000225  -0.067377  -0.140495  -0.000733  3.89214  -0.001
C  C108  1  0.14406199  0.94227955  0.02414515  1  0.007857  0.008188  -0.056579  -0.006857  0.006276  3.937293  0.005
C  C109  1  0.85593261  0.44227388  0.47585608  1  0.007745  0.008181  -0.056522  -0.006631  0.00627  3.937108  0.005
C  C110  1  0.85594797  0.05772354  0.97586014  1  0.007911  0.00818  -0.05655  -0.006716  0.006269  3.937255  0.005
C  C111  1  0.14404779  0.55773514  0.52413831  1  0.007744  0.008179  -0.056504  -0.006618  0.006269  3.937037  0.005
C  C112  1  0.18455414  0.92716167  0.10784313  1  -0.053564  -0.000262  -0.077338  -0.124796  -0.00082  3.959482  0.0
C  C113  1  0.81544998  0.42715445  0.39215317  1  -0.053851  -0.00026  -0.077246  -0.124752  -0.000818  3.959294  0.0
C  C114  1  0.81545583  0.07284800  0.89215911  1  -0.053533  -0.00026  -0.077268  -0.124588  -0.000818  3.959214  0.0
C  C115  1  0.18452856  0.57285128  0.60784225  1  -0.05386  -0.00026  -0.077224  -0.124637  -0.000818  3.95934  0.0
C  C116  1  0.21581528  0.84157512  0.13351986  1  0.469619  0.008755  0.049208  0.092157  0.006826  3.965169  0.006
C  C117  1  0.78419205  0.34156460  0.36647623  1  0.469769  0.008747  0.049201  0.092141  0.00682  3.965475  0.006
C  C118  1  0.78418080  0.15843258  0.86648343  1  0.469796  0.008744  0.049211  0.091932  0.006819  3.965461  0.006
C  C119  1  0.21580225  0.65843783  0.63351589  1  0.470384  0.008745  0.049147  0.091923  0.00682  3.965502  0.006
C  C120  1  0.63119883  0.16855415  0.18964502  1  1.564231  0.023801  0.228289  0.598022  0.023358  4.173405  0.021
C  C121  1  0.36879546  0.66856318  0.31035970  1  1.56393  0.023793  0.228369  0.598281  0.023349  4.173388  0.021
C  C122  1  0.36878619  0.83144236  0.81034983  1  1.564015  0.023786  0.228386  0.59826  0.023342  4.17306  0.021
C  C123  1  0.63120616  0.33143925  0.68964659  1  1.563955  0.023801  0.228404  0.598122  0.023355  4.173308  0.021
C  C124  1  0.56347911  0.23557115  0.13340283  1  -0.021911  -0.000124  -0.023185  -0.029205  -0.001488  4.024143  -0.002
C  C125  1  0.43652060  0.73556163  0.36659959  1  -0.022236  -0.000124  -0.02315  -0.029496  -0.001487  4.024547  -0.002
C  C126  1  0.43651240  0.76443457  0.86658961  1  -0.02199  -0.000123  -0.023139  -0.029409  -0.001487  4.024305  -0.002
C  C127  1  0.56348100  0.26442829  0.63340975  1  -0.022099  -0.000123  -0.023183  -0.029267  -0.001487  4.024252  -0.002
C  C128  1  0.51884820  0.31206424  0.16605477  1  -0.019243  0.018151  -0.093055  -0.140962  0.013648  3.977546  0.011
C  C129  1  0.48116694  0.81205104  0.33395171  1  -0.018556  0.018139  -0.093055  -0.14084  0.013639  3.977944  0.011
C  C130  1  0.48115624  0.68794675  0.83394325  1  -0.019287  0.018144  -0.093112  -0.140991  0.013643  3.977882  0.011
C  C131  1  0.51884576  0.18794085  0.66605874  1  -0.019144  0.018139  -0.093105  -0.141044  0.013639  3.978272  0.011
C  C132  1  0.46763233  0.37868997  0.11290281  1  -0.047899  0.00032  -0.023056  -0.034236  -0.00098  4.037219  -0.001
C  C133  1  0.53238826  0.87866957  0.38709833  1  -0.048504  0.000323  -0.023106  -0.03452  -0.000978  4.037325  -0.001
C  C134  1  0.53237211  0.62132432  0.88709521  1  -0.047889  0.000322  -0.022997  -0.034173  -0.00098  4.037045  -0.001
C  C135  1  0.46763557  0.12132100  0.61290774  1  -0.04802  0.000323  -0.023009  -0.034164  -0.000979  4.037138  -0.001
C  C136  1  0.42065504  0.46074605  0.14805851  1  1.574093  0.026969  0.222199  0.587565  0.026798  4.182774  0.024
C  C137  1  0.57937718  0.96073255  0.35194804  1  1.574225  0.026962  0.222343  0.587505  0.026791  4.182504  0.024
C  C138  1  0.57935402  0.53926362  0.85194058  1  1.574458  0.026975  0.222239  0.587506  0.026807  4.182263  0.024
C  C139  1  0.42064110  0.03925802  0.64805747  1  1.574473  0.026958  0.222229  0.587491  0.02679  4.182488  0.024
C  C140  1  0.46259055  0.36912027  0.02757364  1  -0.017282  0.015822  -0.084444  -0.187479  0.011908  3.921138  0.01
C  C141  1  0.53742182  0.86910295  0.47243598  1  -0.017511  0.015821  -0.084248  -0.187063  0.011906  3.920795  0.01
C  C142  1  0.53740278  0.63088874  0.97242632  1  -0.017525  0.015822  -0.084383  -0.187381  0.011907  3.920981  0.01
C  C143  1  0.46260014  0.13089092  0.52757418  1  -0.017386  0.01582  -0.084348  -0.187395  0.011905  3.920851  0.01
C  C144  1  0.50500107  0.29176816  0.99468996  1  0.341481  -0.000337  0.089833  0.270807  -1.8e-05  4.073491  -0.002
C  C145  1  0.49499374  0.79175540  0.50531341  1  0.341377  -0.000336  0.089586  0.270311  -1.6e-05  4.073772  -0.002
C  C146  1  0.49498672  0.70824085  0.00530761  1  0.341561  -0.000336  0.08963  0.270542  -1.6e-05  4.073514  -0.002
C  C147  1  0.50502087  0.20823979  0.49468746  1  0.34158  -0.000336  0.089742  0.270766  -1.6e-05  4.07346  -0.002
C  C148  1  0.55307045  0.22410938  0.04783724  1  0.01959  0.016349  -0.086232  -0.193493  0.012176  3.913422  0.01
C  C149  1  0.44692112  0.72410091  0.45216515  1  0.020043  0.016342  -0.086276  -0.193333  0.012171  3.913508  0.01
C  C150  1  0.44692105  0.77589700  0.95215704  1  0.02006  0.016347  -0.086189  -0.193313  0.012175  3.913399  0.01
C  C151  1  0.55308420  0.27589361  0.54784273  1  0.01988  0.016345  -0.086249  -0.193458  0.012174  3.913237  0.01
C  C152  1  0.06545394  0.58144653  0.18649712  1  1.500156  0.02189  0.211447  0.563655  0.02367  4.17951  0.017
C  C153  1  0.93456768  0.08144320  0.31349944  1  1.500614  0.021884  0.211452  0.563382  0.023664  4.180081  0.017
C  C154  1  0.93455783  0.41856314  0.81351630  1  1.500062  0.021879  0.211373  0.563476  0.023658  4.180003  0.017
C  C155  1  0.06542567  0.91855659  0.68649441  1  1.499918  0.021888  0.21137  0.5634  0.02366  4.179724  0.017
C  C156  1  0.97408324  0.63679754  0.13265641  1  -0.092388  -6.4e-05  -0.025808  -0.032818  -0.001016  4.077057  -0.002
C  C157  1  0.02593288  0.13678870  0.36733876  1  -0.09175  -6.5e-05  -0.025751  -0.032407  -0.001015  4.076977  -0.002
C  C158  1  0.02592114  0.36320950  0.86735260  1  -0.092905  -6.5e-05  -0.025762  -0.032753  -0.001016  4.077159  -0.002
C  C159  1  0.97406787  0.86320122  0.63265583  1  -0.092547  -6.3e-05  -0.025733  -0.032477  -0.001015  4.077012  -0.002
C  C160  1  0.91932058  0.70826635  0.16706711  1  0.002119  0.008907  -0.10672  -0.172204  0.006423  3.990771  0.006
C  C161  1  0.08070368  0.20825512  0.33292657  1  0.001862  0.008907  -0.106754  -0.172522  0.006423  3.990665  0.006
C  C162  1  0.08066995  0.29174793  0.83293562  1  0.002589  0.008905  -0.106747  -0.172395  0.006421  3.99094  0.006
C  C163  1  0.91931834  0.79174599  0.66707259  1  0.001743  0.008907  -0.106749  -0.172465  0.006423  3.990631  0.006
C  C164  1  0.84534807  0.76648868  0.11489433  1  -0.103131  -0.002153  -0.02632  -0.015804  -0.003541  4.042099  -0.003
C  C165  1  0.15466413  0.26648132  0.38510521  1  -0.10349  -0.002152  -0.026418  -0.015705  -0.003541  4.042131  -0.003
C  C166  1  0.15464892  0.23351572  0.88511272  1  -0.103064  -0.002154  -0.026289  -0.015729  -0.003541  4.041945  -0.003
C  C167  1  0.84533661  0.73350662  0.61489305  1  -0.103224  -0.002152  -0.026274  -0.01565  -0.003541  4.041772  -0.003
C  C168  1  0.81814720  0.74975767  0.03025412  1  0.039095  0.007925  -0.097523  -0.215893  0.006016  3.91049  0.005
C  C169  1  0.18185047  0.24975127  0.46974361  1  0.038679  0.007924  -0.097367  -0.215838  0.006014  3.910358  0.005
C  C170  1  0.18185074  0.25023817  0.96974875  1  0.038883  0.007923  -0.097445  -0.215692  0.006014  3.910328  0.005
C  C171  1  0.81815673  0.75023469  0.53025835  1  0.03884  0.007924  -0.097444  -0.215732  0.006014  3.910298  0.005
C  C172  1  0.86643294  0.67449589  0.99543333  1  0.450917  -0.000576  0.098087  0.307672  -0.000816  4.123447  -0.001
C  C173  1  0.13355821  0.17448878  0.50456228  1  0.450154  -0.000576  0.098091  0.307826  -0.000815  4.123324  -0.001
C  C174  1  0.13356126  0.32550456  0.00457771  1  0.451876  -0.000576  0.098177  0.307578  -0.000815  4.123373  -0.001
C  C175  1  0.86643701  0.82550312  0.49542932  1  0.451546  -0.000575  0.098064  0.307551  -0.000815  4.123459  -0.001
C  C176  1  0.94870876  0.62042677  0.04777943  1  -0.044497  0.007301  -0.099971  -0.222699  0.005439  3.931212  0.004
C  C177  1  0.05129837  0.12042680  0.45221447  1  -0.044426  0.007298  -0.100007  -0.222839  0.005437  3.931562  0.004
C  C178  1  0.05129097  0.37957171  0.95223400  1  -0.044801  0.007298  -0.100152  -0.222751  0.005436  3.931179  0.004
C  C179  1  0.94869318  0.87956575  0.54777126  1  -0.044653  0.007297  -0.100001  -0.222835  0.005436  3.931051  0.004
C  C180  1  0.80231265  0.84959321  0.15058176  1  1.537283  0.012661  0.193525  0.543816  0.014617  4.22621  0.009
C  C181  1  0.19771491  0.34958685  0.34941562  1  1.536701  0.01266  0.193622  0.54381  0.014614  4.225553  0.009
C  C182  1  0.19769180  0.15041317  0.84941504  1  1.537403  0.01266  0.193491  0.543576  0.014618  4.226209  0.009
C  C183  1  0.80229136  0.65040834  0.65058686  1  1.537099  0.012656  0.193368  0.543572  0.014615  4.226329  0.009
N  N184  1  0.22005042  0.63598514  0.98019149  1  -1.263789  0.051258  -0.317493  -0.283442  0.034509  3.516523  0.016
N  N185  1  0.77995887  0.13597614  0.51981385  1  -1.263803  0.051267  -0.317672  -0.28376  0.034508  3.51653  0.016
N  N186  1  0.77995119  0.36402651  0.01981724  1  -1.264021  0.05126  -0.317566  -0.283626  0.034507  3.516399  0.016
N  N187  1  0.22004747  0.86402629  0.48017398  1  -1.264364  0.051276  -0.317672  -0.283909  0.03451  3.516061  0.016
N  N188  1  0.20731325  0.77299849  0.08124363  1  -1.265178  0.050309  -0.315332  -0.289989  0.034708  3.497733  0.018
N  N189  1  0.79268866  0.27299622  0.41875601  1  -1.26535  0.0503  -0.315364  -0.289975  0.034707  3.498109  0.018
N  N190  1  0.79267817  0.22699999  0.91876653  1  -1.265255  0.050301  -0.315339  -0.289803  0.034703  3.49819  0.018
N  N191  1  0.20731121  0.72700490  0.58123056  1  -1.265299  0.050305  -0.315324  -0.289861  0.034702  3.497915  0.018
N  N192  1  0.51238522  0.28625000  0.90942214  1  -1.208651  0.041783  -0.576345  -0.598701  0.031096  3.363123  0.019
N  N193  1  0.48760319  0.78623842  0.59058129  1  -1.209045  0.041796  -0.576295  -0.59864  0.031088  3.362799  0.019
N  N194  1  0.48759795  0.71375704  0.09057375  1  -1.209096  0.041793  -0.576233  -0.598554  0.031092  3.362733  0.019
N  N195  1  0.51240306  0.21375084  0.40942424  1  -1.20916  0.04179  -0.576258  -0.598642  0.031085  3.36308  0.019
N  N196  1  0.84014178  0.65634167  0.91311971  1  -1.264059  0.0003  -0.586786  -0.607824  -0.000193  3.384873  0.0
N  N197  1  0.15983575  0.15634149  0.58687909  1  -1.264053  0.000301  -0.586665  -0.607861  -0.000193  3.384477  0.0
N  N198  1  0.15984777  0.34364298  0.08689331  1  -1.264391  0.000301  -0.586826  -0.607575  -0.000193  3.38492  0.0
N  N199  1  0.84015947  0.84364249  0.41311190  1  -1.264634  0.000301  -0.586725  -0.607614  -0.000193  3.38466  0.0
O  O200  1  0.65095102  0.18674137  0.26663598  1  -1.218806  0.072338  -0.317383  -0.573553  0.050859  2.391269  0.032
O  O201  1  0.34904389  0.68674991  0.23337219  1  -1.218855  0.072352  -0.317437  -0.573697  0.050863  2.391487  0.032
O  O202  1  0.34903769  0.81325316  0.73336107  1  -1.218964  0.072323  -0.317418  -0.573674  0.050846  2.391208  0.032
O  O203  1  0.65096884  0.31325779  0.76663521  1  -1.218892  0.072344  -0.317419  -0.573577  0.050865  2.391589  0.032
O  O204  1  0.66828159  0.09973682  0.15652159  1  -1.186442  0.071701  -0.303788  -0.538998  0.047142  2.340161  0.028
O  O205  1  0.33171198  0.59973761  0.34347432  1  -1.186331  0.071712  -0.303889  -0.539112  0.047147  2.339884  0.028
O  O206  1  0.33169883  0.90026429  0.84346913  1  -1.186376  0.071692  -0.303904  -0.539132  0.047144  2.339804  0.028
O  O207  1  0.66828783  0.40026284  0.65652384  1  -1.186268  0.071701  -0.303922  -0.539142  0.047148  2.339786  0.028
O  O208  1  0.39951884  0.52674994  0.09959197  1  -1.212122  0.07604  -0.311546  -0.545933  0.052461  2.356455  0.038
O  O209  1  0.60052021  0.02673411  0.40042305  1  -1.212032  0.076019  -0.311742  -0.545998  0.052461  2.356237  0.038
O  O210  1  0.60048928  0.47325973  0.90041131  1  -1.212158  0.076042  -0.311598  -0.545944  0.052464  2.356267  0.038
O  O211  1  0.39950548  0.97325647  0.59958260  1  -1.212214  0.076029  -0.311623  -0.545996  0.052461  2.356403  0.038
O  O212  1  0.40522947  0.45980367  0.22363341  1  -1.21022  0.074423  -0.317572  -0.565862  0.051033  2.318037  0.032
O  O213  1  0.59478890  0.95978613  0.27637116  1  -1.210081  0.074397  -0.317539  -0.565686  0.051019  2.317878  0.032
O  O214  1  0.59477591  0.54020995  0.77636286  1  -1.210217  0.074428  -0.317602  -0.565861  0.051032  2.31778  0.032
O  O215  1  0.40522291  0.04020839  0.72363310  1  -1.210174  0.074387  -0.317557  -0.565787  0.051015  2.317811  0.032
O  O216  1  0.15711822  0.54819424  0.15355466  1  -1.218873  0.098165  -0.311658  -0.587524  0.070867  2.342956  0.041
O  O217  1  0.84291040  0.04818368  0.34644310  1  -1.219073  0.098178  -0.311736  -0.587486  0.070872  2.342955  0.041
O  O218  1  0.84289727  0.45182400  0.84645424  1  -1.218701  0.098131  -0.311669  -0.587493  0.070861  2.342952  0.041
O  O219  1  0.15708574  0.95182335  0.65354859  1  -1.218425  0.098156  -0.311644  -0.587482  0.070866  2.342712  0.041
O  O220  1  0.05775742  0.56849034  0.26175889  1  -1.184269  0.057685  -0.298989  -0.537787  0.041046  2.156313  0.032
O  O221  1  0.94225327  0.06848565  0.23824287  1  -1.184488  0.057681  -0.298969  -0.537707  0.041042  2.156764  0.032
O  O222  1  0.94225063  0.43151407  0.73825720  1  -1.18419  0.057673  -0.298908  -0.537703  0.041038  2.156664  0.032
O  O223  1  0.05773822  0.93151612  0.76175263  1  -1.184299  0.05768  -0.298891  -0.537626  0.041037  2.156671  0.032
O  O224  1  0.82592930  0.86114522  0.22929481  1  -1.201747  0.053033  -0.32555  -0.571612  0.035243  2.235423  0.022
O  O225  1  0.17408695  0.36114238  0.27070554  1  -1.201765  0.053031  -0.325567  -0.571565  0.035237  2.235327  0.022
O  O226  1  0.17407886  0.13886906  0.77069992  1  -1.201847  0.05303  -0.325574  -0.571487  0.035239  2.235542  0.022
O  O227  1  0.82590451  0.63886071  0.72929789  1  -1.201899  0.053041  -0.325508  -0.571425  0.03524  2.235342  0.022
O  O228  1  0.74733051  0.90897585  0.10388048  1  -1.186474  0.056522  -0.318754  -0.551859  0.03891  2.128845  0.028
O  O229  1  0.25271269  0.40895974  0.39612979  1  -1.185772  0.056523  -0.318835  -0.551892  0.038905  2.128253  0.028
O  O230  1  0.25266834  0.09103053  0.89612492  1  -1.186502  0.056521  -0.318684  -0.551738  0.038907  2.12873  0.028
O  O231  1  0.74731208  0.59103215  0.60387515  1  -1.186099  0.056509  -0.318698  -0.551819  0.038903  2.128656  0.028
