# generated using pymatgen
data_CdH24C24(N2O3)2
_symmetry_space_group_name_H-M   'P 1'
_cell_length_a   10.12776447
_cell_length_b   10.09707867
_cell_length_c   13.65673791
_cell_angle_alpha   104.78481080
_cell_angle_beta   109.50476258
_cell_angle_gamma   94.71040737
_symmetry_Int_Tables_number   1
_chemical_formula_structural   CdH24C24(N2O3)2
_chemical_formula_sum   'Cd2 H48 C48 N8 O12'
_cell_volume   1251.18792163
_cell_formula_units_Z   2
loop_
 _symmetry_equiv_pos_site_id
 _symmetry_equiv_pos_as_xyz
  1  'x, y, z'
loop_
 _atom_site_type_symbol
 _atom_site_label
 _atom_site_symmetry_multiplicity
 _atom_site_fract_x
 _atom_site_fract_y
 _atom_site_fract_z
 _atom_site_occupancy
 _atom_site_hle17_bader_spin_density
 _atom_site_hle17_ddec_charge
 _atom_site_hle17_ddec_spin_density
 _atom_site_hle17_ddec_sum_bond_order
 _atom_site_hle17_magmom
 _atom_site_hse06_10hf_bader_spin_density
 _atom_site_hse06_10hf_ddec_charge
 _atom_site_hse06_10hf_ddec_spin_density
 _atom_site_hse06_10hf_ddec_sum_bond_order
 _atom_site_hse06_10hf_magmom
 _atom_site_hse06_bader_spin_density
 _atom_site_hse06_ddec_charge
 _atom_site_hse06_ddec_spin_density
 _atom_site_hse06_ddec_sum_bond_order
 _atom_site_hse06_magmom
 _atom_site_pbe_bader_spin_density
 _atom_site_pbe_cm5_charge
 _atom_site_pbe_ddec_charge
 _atom_site_pbe_ddec_spin_density
 _atom_site_pbe_ddec_sum_bond_order
 _atom_site_pbe_magmom
Cd  Cd0  1  0.85095571  0.58216705  0.39889079  1  0  1.106797  0  1.6765  0  0  0.904973  0  2.123088  0  0  0.964284  0  2.07142  0  0  0.76529  0.862414  0  2.158856  0
Cd  Cd1  1  0.14904428  0.41783429  0.60111055  1  0  1.106786  0  1.676475  0  0  0.904963  0  2.123078  0  0  0.964276  0  2.071408  0  0  0.765294  0.862405  0  2.158841  0
H  H2  1  0.23474576  0.87651083  0.38583556  1  0  0.125117  0  0.950444  0  0  0.142458  0  1.011464  0  0  0.145323  0  1.010143  0  0  0.089737  0.140657  0  1.012125  0
H  H3  1  0.76525298  0.12348950  0.61416161  1  0  0.125107  0  0.950442  0  0  0.142453  0  1.011457  0  0  0.145317  0  1.010137  0  0  0.089742  0.140651  0  1.012119  0
H  H4  1  0.16047837  0.00372314  0.45967726  1  0  0.152653  0  0.945934  0  0  0.171298  0  1.004969  0  0  0.1739  0  1.004355  0  0  0.104563  0.169445  0  1.005383  0
H  H5  1  0.83952077  0.99627928  0.54031895  1  0  0.152615  0  0.94597  0  0  0.171263  0  1.005001  0  0  0.173863  0  1.00439  0  0  0.10455  0.169409  0  1.005417  0
H  H6  1  0.08892371  0.94797124  0.31563155  1  0  0.128022  0  0.95048  0  0  0.148578  0  1.011052  0  0  0.150132  0  1.011255  0  0  0.096991  0.147445  0  1.010967  0
H  H7  1  0.91107523  0.05203014  0.68436441  1  0  0.128035  0  0.950604  0  0  0.148583  0  1.011182  0  0  0.150138  0  1.011385  0  0  0.096991  0.147448  0  1.0111  0
H  H8  1  0.73404871  0.09271418  0.33219735  1  0  0.141249  0  0.926094  0  0  0.162684  0  0.977522  0  0  0.165947  0  0.975391  0  0  0.097248  0.160398  0  0.979133  0
H  H9  1  0.26595192  0.90728511  0.66779862  1  0  0.141206  0  0.926125  0  0  0.162619  0  0.977572  0  0  0.16588  0  0.975447  0  0  0.097218  0.160332  0  0.979182  0
H  H10  1  0.91901578  0.09112651  0.40176913  1  0  0.144653  0  0.97237  0  0  0.160155  0  1.036942  0  0  0.162648  0  1.03688  0  0  0.097283  0.158386  0  1.037129  0
H  H11  1  0.08098425  0.90886964  0.59822829  1  0  0.144645  0  0.972379  0  0  0.160161  0  1.03691  0  0  0.162654  0  1.036847  0  0  0.097278  0.158391  0  1.037095  0
H  H12  1  0.85433664  0.09183500  0.26479229  1  0  0.127745  0  0.968303  0  0  0.145869  0  1.032513  0  0  0.148139  0  1.031804  0  0  0.092888  0.144284  0  1.033207  0
H  H13  1  0.14566733  0.90816530  0.73520617  1  0  0.127694  0  0.968321  0  0  0.14581  0  1.032548  0  0  0.148078  0  1.031841  0  0  0.092859  0.144228  0  1.033229  0
H  H14  1  0.19403340  0.59573718  0.36416456  1  0  0.315918  0  0.931087  0  0  0.292181  0  1.001824  0  0  0.301362  0  0.994531  0  0  0.302945  0.285565  0  1.00728  0
H  H15  1  0.80596719  0.40426730  0.63583606  1  0  0.315963  0  0.930953  0  0  0.292175  0  1.001786  0  0  0.301357  0  0.99449  0  0  0.302918  0.285557  0  1.007248  0
H  H16  1  0.52063427  0.50098544  0.31014954  1  0  0.103238  0  0.966075  0  0  0.106311  0  1.036239  0  0  0.110269  0  1.032314  0  0  0.1177  0.103211  0  1.039287  0
H  H17  1  0.47936507  0.49901800  0.68985058  1  0  0.103283  0  0.966064  0  0  0.10632  0  1.036237  0  0  0.110276  0  1.032315  0  0  0.117712  0.103219  0  1.039286  0
H  H18  1  0.79862372  0.77689468  0.60206209  1  0  0.084059  0  0.943296  0  0  0.092567  0  1.00766  0  0  0.095058  0  1.005734  0  0  0.114994  0.090107  0  1.010037  0
H  H19  1  0.20137707  0.22311085  0.39793732  1  0  0.084046  0  0.943302  0  0  0.092576  0  1.007636  0  0  0.095067  0  1.005709  0  0  0.114977  0.090103  0  1.010032  0
H  H20  1  0.59436923  0.84385801  0.66079878  1  0  0.100403  0  0.94272  0  0  0.113641  0  0.996097  0  0  0.116433  0  0.99512  0  0  0.10895  0.11127  0  0.997358  0
H  H21  1  0.40563261  0.15614751  0.33920089  1  0  0.100394  0  0.942804  0  0  0.113692  0  0.996101  0  0  0.116485  0  0.995122  0  0  0.10897  0.11132  0  0.997363  0
H  H22  1  0.34583330  0.72844312  0.53641313  1  0  0.125042  0  0.953665  0  0  0.134405  0  1.013554  0  0  0.137638  0  1.011535  0  0  0.114655  0.131727  0  1.015521  0
H  H23  1  0.65417168  0.27156238  0.46358804  1  0  0.125019  0  0.953681  0  0  0.134383  0  1.013578  0  0  0.137617  0  1.011556  0  0  0.114617  0.131698  0  1.015554  0
H  H24  1  0.03365802  0.28832421  0.16671682  1  0  0.111574  0  0.945199  0  0  0.125314  0  1.006847  0  0  0.12681  0  1.007132  0  0  0.100473  0.124693  0  1.005848  0
H  H25  1  0.96634408  0.71167711  0.83328723  1  0  0.111579  0  0.945207  0  0  0.12533  0  1.006868  0  0  0.126825  0  1.007153  0  0  0.100492  0.124708  0  1.005866  0
H  H26  1  0.01194634  0.44939953  0.24526726  1  0  0.118583  0  0.955326  0  0  0.128172  0  1.024448  0  0  0.130472  0  1.023226  0  0  0.102893  0.126327  0  1.025791  0
H  H27  1  0.98805555  0.55060074  0.75473800  1  0  0.118554  0  0.955447  0  0  0.128164  0  1.024551  0  0  0.130462  0  1.02333  0  0  0.102892  0.126316  0  1.025897  0
H  H28  1  0.97285014  0.24630742  0.97754940  1  0  0.081069  0  0.996874  0  0  0.090117  0  1.06376  0  0  0.091313  0  1.065583  0  0  0.090272  0.089657  0  1.062249  0
H  H29  1  0.02715070  0.75369287  0.02245414  1  0  0.081032  0  0.996938  0  0  0.090103  0  1.063801  0  0  0.091301  0  1.065627  0  0  0.090273  0.089643  0  1.06229  0
H  H30  1  0.07878032  0.67008540  0.18462551  1  0  0.091479  0  0.959478  0  0  0.104191  0  1.019217  0  0  0.106718  0  1.018692  0  0  0.096523  0.102263  0  1.019569  0
H  H31  1  0.92121863  0.32991594  0.81537850  1  0  0.091503  0  0.959432  0  0  0.104212  0  1.019172  0  0  0.10674  0  1.018647  0  0  0.09655  0.102285  0  1.019523  0
H  H32  1  0.70177482  0.69015937  0.92050983  1  0  0.30142  0  0.94203  0  0  0.280822  0  1.011138  0  0  0.288968  0  1.005247  0  0  0.300846  0.275068  0  1.015291  0
H  H33  1  0.29822565  0.30983363  0.07948930  1  0  0.301443  0  0.942011  0  0  0.280836  0  1.011132  0  0  0.288981  0  1.005244  0  0  0.300846  0.275084  0  1.015282  0
H  H34  1  0.75207705  0.74110813  0.21088762  1  0  0.10696  0  0.955365  0  0  0.112878  0  1.019131  0  0  0.1163  0  1.016062  0  0  0.11761  0.110222  0  1.021601  0
H  H35  1  0.24792215  0.25888904  0.78911492  1  0  0.106952  0  0.955328  0  0  0.112883  0  1.019094  0  0  0.116304  0  1.016027  0  0  0.117627  0.110226  0  1.021565  0
H  H36  1  0.69466854  0.31884558  0.17751289  1  0  0.084078  0  0.948817  0  0  0.094132  0  1.008106  0  0  0.096644  0  1.006373  0  0  0.11208  0.091784  0  1.01015  0
H  H37  1  0.30533254  0.68115055  0.82248626  1  0  0.084016  0  0.948819  0  0  0.094119  0  1.008055  0  0  0.096629  0  1.006321  0  0  0.112077  0.09177  0  1.010098  0
H  H38  1  0.62966514  0.25654283  0.97397445  1  0  0.103105  0  0.949947  0  0  0.11533  0  1.004935  0  0  0.118083  0  1.004113  0  0  0.107735  0.114348  0  1.00382  0
H  H39  1  0.37033574  0.74345225  0.02602518  1  0  0.103028  0  0.949911  0  0  0.11523  0  1.004956  0  0  0.117972  0  1.004144  0  0  0.107692  0.11425  0  1.003841  0
H  H40  1  0.62873802  0.44887606  0.88925316  1  0  0.110443  0  0.927161  0  0  0.123915  0  0.981664  0  0  0.12682  0  0.980319  0  0  0.112685  0.122012  0  0.982658  0
H  H41  1  0.37126242  0.55112215  0.11074842  1  0  0.110392  0  0.927168  0  0  0.123906  0  0.981633  0  0  0.12681  0  0.980288  0  0  0.112679  0.122002  0  0.982627  0
H  H42  1  0.63285153  0.89560764  0.88075576  1  0  0.121108  0  0.911798  0  0  0.137994  0  0.965385  0  0  0.141133  0  0.962866  0  0  0.110677  0.135431  0  0.967959  0
H  H43  1  0.36714412  0.10438748  0.11924185  1  0  0.121128  0  0.911831  0  0  0.138006  0  0.965419  0  0  0.141142  0  0.9629  0  0  0.110693  0.135444  0  0.967991  0
H  H44  1  0.65867269  0.04048007  0.99505551  1  0  0.117384  0  0.926895  0  0  0.132274  0  0.985524  0  0  0.134407  0  0.98432  0  0  0.106699  0.132184  0  0.9834  0
H  H45  1  0.34131817  0.95951194  0.00494106  1  0  0.117391  0  0.926858  0  0  0.132282  0  0.985486  0  0  0.134413  0  0.984281  0  0  0.106724  0.13219  0  0.983362  0
H  H46  1  0.81597488  0.94562637  0.81463847  1  0  0.087723  0  0.956541  0  0  0.10019  0  1.016597  0  0  0.102912  0  1.015267  0  0  0.100573  0.098191  0  1.017574  0
H  H47  1  0.18401944  0.05437815  0.18535842  1  0  0.087646  0  0.956577  0  0  0.100145  0  1.016606  0  0  0.102866  0  1.015277  0  0  0.100559  0.098147  0  1.017581  0
H  H48  1  0.92918486  0.00499667  0.15754525  1  0  0.087469  0  0.980788  0  0  0.101883  0  1.036968  0  0  0.104195  0  1.036497  0  0  0.10043  0.099918  0  1.037731  0
H  H49  1  0.07080906  0.99500574  0.84245553  1  0  0.087438  0  0.980866  0  0  0.10189  0  1.036995  0  0  0.104202  0  1.036523  0  0  0.100436  0.099928  0  1.037752  0
C  C50  1  0.02871943  0.80177354  0.38902910  1  0  0.727609  0  3.860089  0  0  0.688074  0  4.149967  0  0  0.720898  0  4.145451  0  0  0.198301  0.665562  0  4.151788  0
C  C51  1  0.97127847  0.19822782  0.61097173  1  0  0.727851  0  3.859904  0  0  0.688346  0  4.149731  0  0  0.721174  0  4.145207  0  0  0.198433  0.665836  0  4.151556  0
C  C52  1  0.13651940  0.91334369  0.38759018  1  0  -0.458049  0  3.668469  0  0  -0.533755  0  3.901827  0  0  -0.541029  0  3.904682  0  0  -0.246622  -0.528193  0  3.899128  0
C  C53  1  0.86348059  0.08665768  0.61240750  1  0  -0.458095  0  3.668708  0  0  -0.533806  0  3.902048  0  0  -0.54108  0  3.904903  0  0  -0.24666  -0.528243  0  3.899353  0
C  C54  1  0.87583282  0.28924813  0.37631247  1  0  0.743421  0  3.856846  0  0  0.698991  0  4.153115  0  0  0.733436  0  4.146266  0  0  0.197222  0.675559  0  4.156475  0
C  C55  1  0.12417389  0.71075008  0.62368479  1  0  0.743375  0  3.856938  0  0  0.698943  0  4.153187  0  0  0.733385  0  4.146342  0  0  0.197266  0.675511  0  4.156541  0
C  C56  1  0.84380503  0.13244685  0.34392638  1  0  -0.4596  0  3.660858  0  0  -0.534941  0  3.896873  0  0  -0.542341  0  3.898587  0  0  -0.253316  -0.529736  0  3.89565  0
C  C57  1  0.15619585  0.86754826  0.65606886  1  0  -0.459499  0  3.660901  0  0  -0.534817  0  3.896941  0  0  -0.542214  0  3.898657  0  0  -0.253239  -0.529608  0  3.895714  0
C  C58  1  0.41284313  0.60851268  0.41161072  1  0  0.210863  0  3.786076  0  0  0.208425  0  4.032837  0  0  0.212358  0  4.055773  0  0  0.103454  0.205463  0  4.017625  0
C  C59  1  0.58715996  0.39149387  0.58839092  1  0  0.210929  0  3.786155  0  0  0.208608  0  4.032701  0  0  0.212542  0  4.055639  0  0  0.103464  0.205646  0  4.017487  0
C  C60  1  0.53220768  0.57806603  0.38573019  1  0  0.026853  0  3.668878  0  0  -0.012552  0  3.923596  0  0  -0.008178  0  3.941045  0  0  0.039365  -0.015531  0  3.912237  0
C  C61  1  0.46779272  0.42193740  0.61427165  1  0  0.026722  0  3.668958  0  0  -0.012644  0  3.923591  0  0  -0.008271  0  3.94104  0  0  0.039349  -0.015624  0  3.912235  0
C  C62  1  0.68739275  0.73400453  0.55026069  1  0  0.110563  0  3.718562  0  0  0.07587  0  3.975709  0  0  0.081521  0  3.99599  0  0  0.038314  0.071904  0  3.962891  0
C  C63  1  0.31260889  0.26599995  0.44973946  1  0  0.11061  0  3.7185  0  0  0.075911  0  3.975646  0  0  0.081562  0  3.995927  0  0  0.038321  0.071952  0  3.962836  0
C  C64  1  0.57435015  0.76972856  0.58160347  1  0  -0.09872  0  3.770394  0  0  -0.112276  0  4.025432  0  0  -0.117656  0  4.047257  0  0  -0.08239  -0.108969  0  4.011031  0
C  C65  1  0.42565189  0.23027801  0.41839645  1  0  -0.098784  0  3.770504  0  0  -0.112399  0  4.025553  0  0  -0.117781  0  4.047381  0  0  -0.082421  -0.10909  0  4.011145  0
C  C66  1  0.43585358  0.70689909  0.51197419  1  0  -0.104809  0  3.673614  0  0  -0.129216  0  3.922997  0  0  -0.128961  0  3.940819  0  0  -0.069307  -0.129047  0  3.911252  0
C  C67  1  0.56414931  0.29310641  0.48802792  1  0  -0.10477  0  3.673691  0  0  -0.129237  0  3.923065  0  0  -0.128983  0  3.940891  0  0  -0.069268  -0.129061  0  3.91132  0
C  C68  1  0.22620448  0.43656524  0.25180784  1  0  0.60617  0  3.757435  0  0  0.562743  0  4.051301  0  0  0.590777  0  4.051212  0  0  0.250214  0.544228  0  4.050185  0
C  C69  1  0.77379657  0.56343609  0.74819522  1  0  0.606064  0  3.757447  0  0  0.562712  0  4.051235  0  0  0.590745  0  4.051146  0  0  0.250218  0.544198  0  4.050115  0
C  C70  1  0.06596928  0.40186689  0.19149563  1  0  -0.306848  0  3.702335  0  0  -0.352534  0  3.94177  0  0  -0.356513  0  3.948884  0  0  -0.161374  -0.350059  0  3.936794  0
C  C71  1  0.93403301  0.59813548  0.80850648  1  0  -0.306793  0  3.702268  0  0  -0.352563  0  3.941809  0  0  -0.35654  0  3.94892  0  0  -0.161377  -0.350088  0  3.936829  0
C  C72  1  0.02943270  0.45224447  0.09219966  1  0  0.109615  0  3.75062  0  0  0.130694  0  3.986797  0  0  0.130704  0  4.011072  0  0  -0.014357  0.130447  0  3.971439  0
C  C73  1  0.97056834  0.54775685  0.90780560  1  0  0.109672  0  3.750511  0  0  0.130729  0  3.986763  0  0  0.130739  0  4.011037  0  0  -0.014393  0.130482  0  3.971403  0
C  C74  1  0.98476068  0.35778410  0.98758562  1  0  -0.12015  0  3.764427  0  0  -0.140016  0  4.013654  0  0  -0.141944  0  4.035592  0  0  -0.099181  -0.139579  0  4.000682  0
C  C75  1  0.01523932  0.64221724  0.01241792  1  0  -0.120152  0  3.76445  0  0  -0.140031  0  4.013687  0  0  -0.141964  0  4.03563  0  0  -0.099177  -0.139594  0  4.000715  0
C  C76  1  0.04452529  0.59520409  0.10355703  1  0  -0.123202  0  3.747353  0  0  -0.142916  0  3.99513  0  0  -0.145753  0  4.016543  0  0  -0.098993  -0.140936  0  3.981742  0
C  C77  1  0.95547242  0.40479621  0.89644647  1  0  -0.123272  0  3.7474  0  0  -0.142975  0  3.995186  0  0  -0.145811  0  4.016596  0  0  -0.099032  -0.140995  0  3.981799  0
C  C78  1  0.68839655  0.61015155  0.04297432  1  0  0.211109  0  3.802284  0  0  0.21031  0  4.04903  0  0  0.21458  0  4.071573  0  0  0.103886  0.206944  0  4.035293  0
C  C79  1  0.31160223  0.38984355  0.95702479  1  0  0.211106  0  3.802294  0  0  0.210344  0  4.049016  0  0  0.214612  0  4.071563  0  0  0.103897  0.206979  0  4.035275  0
C  C80  1  0.72409279  0.63548001  0.15565569  1  0  0.031514  0  3.657082  0  0  -0.006813  0  3.912876  0  0  -0.00227  0  3.929047  0  0  0.040019  -0.009723  0  3.902022  0
C  C81  1  0.27590725  0.36451612  0.84434540  1  0  0.031597  0  3.656981  0  0  -0.006774  0  3.912796  0  0  -0.002233  0  3.928969  0  0  0.039994  -0.009684  0  3.901943  0
C  C82  1  0.69285834  0.39840045  0.13630458  1  0  0.099537  0  3.71834  0  0  0.066304  0  3.976837  0  0  0.071804  0  3.995836  0  0  0.029518  0.063038  0  3.964247  0
C  C83  1  0.30714129  0.60159359  0.86369527  1  0  0.099591  0  3.718344  0  0  0.066346  0  3.976813  0  0  0.071852  0  3.995804  0  0  0.029571  0.063079  0  3.964224  0
C  C84  1  0.65795372  0.36500310  0.02420741  1  0  -0.099241  0  3.77015  0  0  -0.112397  0  4.027102  0  0  -0.117423  0  4.049061  0  0  -0.085157  -0.109728  0  4.012587  0
C  C85  1  0.34204696  0.63499094  0.97579343  1  0  -0.099023  0  3.770049  0  0  -0.112179  0  4.027039  0  0  -0.117191  0  4.048993  0  0  -0.085086  -0.109513  0  4.012522  0
C  C86  1  0.65626485  0.47160090  0.97684509  1  0  -0.099271  0  3.6903  0  0  -0.126613  0  3.943474  0  0  -0.126813  0  3.962578  0  0  -0.070406  -0.126695  0  3.932526  0
C  C87  1  0.34373623  0.52839523  0.02315479  1  0  -0.099342  0  3.690336  0  0  -0.126731  0  3.943531  0  0  -0.126929  0  3.962632  0  0  -0.070429  -0.126817  0  3.93259  0
C  C88  1  0.67002930  0.84992581  0.03326641  1  0  0.586316  0  3.79363  0  0  0.547738  0  4.086499  0  0  0.574887  0  4.087921  0  0  0.239843  0.529769  0  4.084575  0
C  C89  1  0.32996594  0.15006722  0.96673143  1  0  0.58628  0  3.793715  0  0  0.547841  0  4.086371  0  0  0.574977  0  4.087808  0  0  0.239936  0.529892  0  4.084422  0
C  C90  1  0.69678438  0.94422815  0.96782380  1  0  -0.296481  0  3.684195  0  0  -0.345112  0  3.931725  0  0  -0.348924  0  3.938218  0  0  -0.153257  -0.342749  0  3.925587  0
C  C91  1  0.30320752  0.05576387  0.03217010  1  0  -0.296515  0  3.684265  0  0  -0.345123  0  3.931777  0  0  -0.348928  0  3.938279  0  0  -0.153298  -0.342774  0  3.925653  0
C  C92  1  0.85303396  0.97350479  0.98420853  1  0  0.110927  0  3.745744  0  0  0.128695  0  3.988611  0  0  0.129432  0  4.012582  0  0  -0.008672  0.128221  0  3.971901  0
C  C93  1  0.14695770  0.02649140  0.01578684  1  0  0.111112  0  3.745478  0  0  0.128708  0  3.988602  0  0  0.129442  0  4.012575  0  0  -0.00862  0.128233  0  3.97189  0
C  C94  1  0.89633307  0.96996169  0.89646204  1  0  -0.116609  0  3.760579  0  0  -0.136153  0  4.011885  0  0  -0.137693  0  4.031095  0  0  -0.089742  -0.134774  0  3.997687  0
C  C95  1  0.10366253  0.03003865  0.10353510  1  0  -0.116543  0  3.760468  0  0  -0.136076  0  4.011864  0  0  -0.137616  0  4.031073  0  0  -0.0897  -0.134697  0  3.997664  0
C  C96  1  0.95952375  0.00358309  0.08786548  1  0  -0.126057  0  3.752169  0  0  -0.144236  0  3.998397  0  0  -0.14672  0  4.018746  0  0  -0.092984  -0.142439  0  3.983698  0
C  C97  1  0.04047061  0.99641621  0.91213188  1  0  -0.126105  0  3.752252  0  0  -0.144267  0  3.998528  0  0  -0.14675  0  4.018876  0  0  -0.093013  -0.142469  0  3.983825  0
N  N98  1  0.66507285  0.64061189  0.45399881  1  0  -0.308956  0  3.304857  0  0  -0.227331  0  3.570764  0  0  -0.247209  0  3.591681  0  0  -0.329909  -0.214266  0  3.557095  0
N  N99  1  0.33492879  0.35939258  0.54600207  1  0  -0.308928  0  3.304877  0  0  -0.227325  0  3.570765  0  0  -0.247203  0  3.591681  0  0  -0.329902  -0.214261  0  3.557095  0
N  N100  1  0.27220269  0.54744204  0.34333228  1  0  -0.448877  0  3.339278  0  0  -0.390842  0  3.57666  0  0  -0.414251  0  3.587379  0  0  -0.391574  -0.375012  0  3.569187  0
N  N101  1  0.72779791  0.45256243  0.65666907  1  0  -0.448911  0  3.339261  0  0  -0.390903  0  3.576588  0  0  -0.414312  0  3.587307  0  0  -0.391566  -0.375073  0  3.569113  0
N  N102  1  0.72711595  0.53150537  0.20073326  1  0  -0.332305  0  3.257934  0  0  -0.25772  0  3.527178  0  0  -0.276303  0  3.547675  0  0  -0.325975  -0.244614  0  3.512278  0
N  N103  1  0.27288389  0.46848971  0.79926758  1  0  -0.332401  0  3.257952  0  0  -0.257812  0  3.527239  0  0  -0.276394  0  3.547733  0  0  -0.32604  -0.244707  0  3.512339  0
N  N104  1  0.68995618  0.71689531  0.99515592  1  0  -0.468297  0  3.368578  0  0  -0.413598  0  3.606586  0  0  -0.437489  0  3.619101  0  0  -0.401444  -0.397501  0  3.598463  0
N  N105  1  0.31004491  0.28310082  0.00484395  1  0  -0.468322  0  3.368367  0  0  -0.413671  0  3.606324  0  0  -0.437552  0  3.61884  0  0  -0.401492  -0.397585  0  3.598204  0
O  O106  1  0.91355738  0.83071499  0.39768555  1  0  -0.633978  0  1.903826  0  0  -0.574722  0  2.125397  0  0  -0.601946  0  2.117809  0  0  -0.323396  -0.554361  0  2.129318  0
O  O107  1  0.08644092  0.16928847  0.60231285  1  0  -0.634095  0  1.903704  0  0  -0.574868  0  2.125276  0  0  -0.602089  0  2.117688  0  0  -0.323486  -0.554508  0  2.1292  0
O  O108  1  0.05820433  0.67829003  0.38242752  1  0  -0.678967  0  2.018188  0  0  -0.602005  0  2.256796  0  0  -0.632603  0  2.248049  0  0  -0.330866  -0.580708  0  2.262574  0
O  O109  1  0.94179650  0.32171028  0.61757163  1  0  -0.679037  0  2.018138  0  0  -0.602059  0  2.25674  0  0  -0.632664  0  2.247993  0  0  -0.330864  -0.580749  0  2.262487  0
O  O110  1  0.00421118  0.35328611  0.41065703  1  0  -0.689811  0  1.959201  0  0  -0.621865  0  2.211365  0  0  -0.649712  0  2.198436  0  0  -0.348144  -0.60163  0  2.21955  0
O  O111  1  0.99579706  0.64670375  0.58933975  1  0  -0.689765  0  1.95916  0  0  -0.621798  0  2.211287  0  0  -0.649648  0  2.198371  0  0  -0.34815  -0.601586  0  2.219524  0
O  O112  1  0.76945840  0.35222530  0.36310962  1  0  -0.653685  0  1.981656  0  0  -0.584041  0  2.226511  0  0  -0.613669  0  2.215692  0  0  -0.332648  -0.562371  0  2.232967  0
O  O113  1  0.23054932  0.64777810  0.63689328  1  0  -0.653623  0  1.98157  0  0  -0.584039  0  2.226508  0  0  -0.613666  0  2.215692  0  0  -0.332691  -0.562358  0  2.232938  0
O  O114  1  0.30794268  0.36978403  0.21668238  1  0  -0.578075  0  1.963865  0  0  -0.527903  0  2.188141  0  0  -0.550042  0  2.1832  0  0  -0.294217  -0.512575  0  2.190993  0
O  O115  1  0.69205732  0.63021731  0.78332043  1  0  -0.577965  0  1.963901  0  0  -0.52782  0  2.188153  0  0  -0.549959  0  2.183213  0  0  -0.294186  -0.512492  0  2.191  0
O  O116  1  0.63762476  0.89268842  0.11399360  1  0  -0.549848  0  1.88054  0  0  -0.510642  0  2.087968  0  0  -0.530879  0  2.083055  0  0  -0.298969  -0.496958  0  2.090632  0
O  O117  1  0.36237422  0.10730772  0.88600576  1  0  -0.549816  0  1.880563  0  0  -0.510653  0  2.08792  0  0  -0.530888  0  2.083015  0  0  -0.299002  -0.496977  0  2.090578  0
