# generated using pymatgen
data_SmH12C12(N3O2)3
_symmetry_space_group_name_H-M   'P 1'
_cell_length_a   8.74247120
_cell_length_b   9.16239429
_cell_length_c   13.80551379
_cell_angle_alpha   72.24827576
_cell_angle_beta   71.54000796
_cell_angle_gamma   61.52030477
_symmetry_Int_Tables_number   1
_chemical_formula_structural   SmH12C12(N3O2)3
_chemical_formula_sum   'Sm2 H24 C24 N18 O12'
_cell_volume   906.16613010
_cell_formula_units_Z   2
loop_
 _symmetry_equiv_pos_site_id
 _symmetry_equiv_pos_as_xyz
  1  'x, y, z'
loop_
 _atom_site_type_symbol
 _atom_site_label
 _atom_site_symmetry_multiplicity
 _atom_site_fract_x
 _atom_site_fract_y
 _atom_site_fract_z
 _atom_site_occupancy
 _atom_site_hle17_bader_spin_density
 _atom_site_hle17_ddec_charge
 _atom_site_hle17_ddec_spin_density
 _atom_site_hle17_ddec_sum_bond_order
 _atom_site_hle17_magmom
 _atom_site_hse06_10hf_bader_spin_density
 _atom_site_hse06_10hf_ddec_charge
 _atom_site_hse06_10hf_ddec_spin_density
 _atom_site_hse06_10hf_ddec_sum_bond_order
 _atom_site_hse06_10hf_magmom
 _atom_site_hse06_bader_spin_density
 _atom_site_hse06_ddec_charge
 _atom_site_hse06_ddec_spin_density
 _atom_site_hse06_ddec_sum_bond_order
 _atom_site_hse06_magmom
 _atom_site_pbe_bader_spin_density
 _atom_site_pbe_cm5_charge
 _atom_site_pbe_ddec_charge
 _atom_site_pbe_ddec_spin_density
 _atom_site_pbe_ddec_sum_bond_order
 _atom_site_pbe_magmom
Sm  Sm0  1  0.65359093  0.38698543  0.85719930  1  0  2.326889  0  1.662685  0  0  2.225186  0  2.030609  0  0  2.264902  0  1.987355  0  0  1.570273  2.137992  0  2.1725  0
Sm  Sm1  1  0.10223581  0.88712056  0.35710930  1  0  2.327191  0  1.66209  0  0  2.225373  0  2.029993  0  0  2.265115  0  1.986732  0  0  1.569469  2.138331  0  2.171632  0
H  H2  1  0.28913537  0.19040304  0.94425415  1  0  0.35562  0  0.847444  0  0  0.344716  0  0.897023  0  0  0.351845  0  0.89112  0  0  0.329853  0.339629  0  0.901547  0
H  H3  1  0.57597463  0.69082162  0.44410755  1  0  0.356049  0  0.846299  0  0  0.345168  0  0.896028  0  0  0.352277  0  0.890119  0  0  0.330011  0.340097  0  0.900527  0
H  H4  1  0.34368661  0.98844554  0.92554538  1  0  0.323573  0  0.933648  0  0  0.303082  0  1.002909  0  0  0.310735  0  0.996925  0  0  0.295842  0.297645  0  1.007306  0
H  H5  1  0.74237343  0.48901628  0.42543946  1  0  0.323925  0  0.933043  0  0  0.303403  0  1.00203  0  0  0.311033  0  0.996107  0  0  0.295737  0.297967  0  1.006437  0
H  H6  1  0.33626353  0.71648360  0.05963812  1  0  0.334446  0  0.904736  0  0  0.318588  0  0.969046  0  0  0.326018  0  0.962896  0  0  0.306808  0.313406  0  0.973356  0
H  H7  1  0.88756376  0.21649764  0.55950749  1  0  0.332511  0  0.907763  0  0  0.317319  0  0.97113  0  0  0.324746  0  0.965007  0  0  0.306307  0.312134  0  0.975436  0
H  H8  1  0.14099383  0.88069367  0.04154163  1  0  0.323898  0  0.884196  0  0  0.315748  0  0.935149  0  0  0.321736  0  0.930906  0  0  0.309187  0.311387  0  0.938535  0
H  H9  1  0.93644188  0.38085218  0.54171803  1  0  0.324886  0  0.883156  0  0  0.316198  0  0.934726  0  0  0.322199  0  0.930468  0  0  0.309387  0.311827  0  0.938128  0
H  H10  1  0.61951076  0.30724628  0.52956679  1  0  0.32656  0  0.903537  0  0  0.31146  0  0.965479  0  0  0.318078  0  0.96067  0  0  0.311353  0.306697  0  0.969176  0
H  H11  1  0.54372266  0.80677965  0.02963143  1  0  0.325251  0  0.904118  0  0  0.31005  0  0.966434  0  0  0.31672  0  0.961529  0  0  0.31053  0.305268  0  0.970159  0
H  H12  1  0.61192856  0.11777323  0.53660630  1  0  0.341958  0  0.903114  0  0  0.323811  0  0.966522  0  0  0.331298  0  0.960765  0  0  0.304089  0.318356  0  0.970877  0
H  H13  1  0.73386699  0.61747636  0.03657328  1  0  0.341512  0  0.903244  0  0  0.323798  0  0.966036  0  0  0.331248  0  0.960329  0  0  0.304047  0.318361  0  0.9704  0
H  H14  1  0.92166712  0.45397090  0.91479776  1  0  0.427808  0  0.881664  0  0  0.390502  0  0.956629  0  0  0.401695  0  0.940588  0  0  0.294951  0.382718  0  0.967552  0
H  H15  1  0.70919752  0.95407872  0.41496655  1  0  0.42774  0  0.882021  0  0  0.39034  0  0.95705  0  0  0.401526  0  0.941027  0  0  0.294892  0.382556  0  0.967971  0
H  H16  1  0.88474897  0.31462943  0.01088746  1  0  0.444695  0  0.801822  0  0  0.429199  0  0.851024  0  0  0.437143  0  0.84038  0  0  0.333587  0.423287  0  0.857037  0
H  H17  1  0.78972902  0.81484406  0.51101249  1  0  0.444224  0  0.802409  0  0  0.428636  0  0.851812  0  0  0.436602  0  0.841138  0  0  0.332834  0.422719  0  0.857846  0
H  H18  1  0.58722021  0.14172048  0.07050128  1  0  0.45725  0  0.833212  0  0  0.424806  0  0.897308  0  0  0.435229  0  0.882172  0  0  0.29984  0.417199  0  0.90829  0
H  H19  1  0.20038628  0.64177389  0.57058955  1  0  0.4567  0  0.833964  0  0  0.424316  0  0.898082  0  0  0.434729  0  0.882958  0  0  0.299636  0.416711  0  0.909062  0
H  H20  1  0.48050187  0.33800265  0.08184644  1  0  0.44236  0  0.848528  0  0  0.413829  0  0.907633  0  0  0.423361  0  0.893693  0  0  0.303283  0.407064  0  0.917346  0
H  H21  1  0.09920164  0.83812707  0.58176904  1  0  0.441438  0  0.849892  0  0  0.412647  0  0.909539  0  0  0.422193  0  0.895575  0  0  0.302822  0.40585  0  0.919315  0
H  H22  1  0.46090666  0.50222179  0.67450754  1  0  0.443397  0  0.847622  0  0  0.411659  0  0.911447  0  0  0.422725  0  0.895294  0  0  0.296748  0.403683  0  0.922933  0
H  H23  1  0.36256359  0.00235555  0.17426873  1  0  0.442694  0  0.848206  0  0  0.411115  0  0.91209  0  0  0.422188  0  0.895903  0  0  0.296469  0.403101  0  0.923652  0
H  H24  1  0.50002571  0.65785379  0.67031143  1  0  0.431967  0  0.862412  0  0  0.399104  0  0.92969  0  0  0.409473  0  0.914278  0  0  0.291939  0.391615  0  0.940664  0
H  H25  1  0.17202391  0.15798975  0.17004180  1  0  0.431048  0  0.863639  0  0  0.39835  0  0.930651  0  0  0.408722  0  0.915236  0  0  0.291899  0.390873  0  0.941606  0
C  C26  1  0.51739437  0.10117493  0.83975274  1  0  0.684607  0  3.890922  0  0  0.63062  0  4.183037  0  0  0.662354  0  4.182168  0  0  0.24826  0.609185  0  4.180678  0
C  C27  1  0.54168521  0.60130698  0.33968870  1  0  0.687  0  3.889592  0  0  0.632967  0  4.181903  0  0  0.664651  0  4.181056  0  0  0.248851  0.611551  0  4.179557  0
C  C28  1  0.64841802  0.96318233  0.78755746  1  0  -0.367142  0  3.963744  0  0  -0.34191  0  4.211671  0  0  -0.362204  0  4.229612  0  0  -0.056149  -0.328251  0  4.200206  0
C  C29  1  0.60072442  0.46330689  0.28753199  1  0  -0.367327  0  3.961815  0  0  -0.342502  0  4.21038  0  0  -0.362558  0  4.227943  0  0  -0.057809  -0.328844  0  4.198829  0
C  C30  1  0.64245726  0.80925307  0.80143187  1  0  0.392523  0  3.849854  0  0  0.370905  0  4.114715  0  0  0.388657  0  4.132453  0  0  0.202738  0.357816  0  4.101185  0
C  C31  1  0.74669087  0.30943856  0.30147892  1  0  0.3928  0  3.848435  0  0  0.371471  0  4.11317  0  0  0.389158  0  4.130881  0  0  0.203474  0.358408  0  4.099705  0
C  C32  1  0.79691092  0.98335662  0.71935633  1  0  0.350739  0  3.868249  0  0  0.325535  0  4.14174  0  0  0.341546  0  4.15964  0  0  0.194557  0.314887  0  4.129214  0
C  C33  1  0.50035726  0.48362823  0.21923021  1  0  0.349445  0  3.866301  0  0  0.32444  0  4.13979  0  0  0.34038  0  4.157726  0  0  0.195107  0.313826  0  4.127273  0
C  C34  1  0.25103363  0.70904996  0.94576838  1  0  0.677441  0  3.847338  0  0  0.626174  0  4.137775  0  0  0.657576  0  4.13651  0  0  0.248135  0.604797  0  4.136072  0
C  C35  1  0.09398662  0.20927360  0.44575689  1  0  0.677944  0  3.84709  0  0  0.627462  0  4.136083  0  0  0.658981  0  4.134764  0  0  0.248598  0.606029  0  4.134409  0
C  C36  1  0.09959342  0.77640618  0.89949856  1  0  -0.351668  0  3.956623  0  0  -0.330199  0  4.208909  0  0  -0.350678  0  4.227554  0  0  -0.051728  -0.316441  0  4.197139  0
C  C37  1  0.22456185  0.27641087  0.39942666  1  0  -0.353156  0  3.955155  0  0  -0.332141  0  4.207661  0  0  -0.35287  0  4.226619  0  0  -0.05271  -0.318252  0  4.195698  0
C  C38  1  0.97390515  0.94256810  0.89994713  1  0  0.38945  0  3.859584  0  0  0.365587  0  4.132225  0  0  0.382843  0  4.149882  0  0  0.202251  0.352791  0  4.118714  0
C  C39  1  0.18379982  0.44255756  0.39985596  1  0  0.389107  0  3.859736  0  0  0.365348  0  4.13234  0  0  0.382689  0  4.15005  0  0  0.201391  0.352519  0  4.118804  0
C  C40  1  0.06951697  0.66287756  0.86756078  1  0  0.358916  0  3.826707  0  0  0.332027  0  4.102652  0  0  0.348022  0  4.120114  0  0  0.196197  0.321036  0  4.091293  0
C  C41  1  0.40005457  0.16283553  0.36752983  1  0  0.358474  0  3.824904  0  0  0.331555  0  4.101099  0  0  0.347626  0  4.118621  0  0  0.196307  0.320529  0  4.089707  0
C  C42  1  0.38491980  0.30282908  0.61178240  1  0  0.654468  0  3.901421  0  0  0.596484  0  4.196672  0  0  0.627221  0  4.197326  0  0  0.233978  0.575655  0  4.19592  0
C  C43  1  0.70053911  0.80280307  0.11165054  1  0  0.655857  0  3.899075  0  0  0.597939  0  4.194311  0  0  0.628718  0  4.194939  0  0  0.234801  0.577072  0  4.193587  0
C  C44  1  0.28123562  0.20329073  0.64828752  1  0  -0.367699  0  3.94017  0  0  -0.343711  0  4.194411  0  0  -0.364461  0  4.213914  0  0  -0.062983  -0.329656  0  4.181676  0
C  C45  1  0.86729218  0.70356304  0.14804655  1  0  -0.369337  0  3.938903  0  0  -0.34592  0  4.194162  0  0  -0.366683  0  4.213674  0  0  -0.063392  -0.331819  0  4.181426  0
C  C46  1  0.10213300  0.27859227  0.69436172  1  0  0.41903  0  3.837942  0  0  0.392656  0  4.112739  0  0  0.412484  0  4.126376  0  0  0.205857  0.378286  0  4.101247  0
C  C47  1  0.92484210  0.77890021  0.19425734  1  0  0.422085  0  3.831528  0  0  0.395879  0  4.106517  0  0  0.415726  0  4.120109  0  0  0.20727  0.381489  0  4.095051  0
C  C48  1  0.35503330  0.03550168  0.63433383  1  0  0.329801  0  3.860922  0  0  0.310034  0  4.132715  0  0  0.324801  0  4.152498  0  0  0.174404  0.299787  0  4.119969  0
C  C49  1  0.97531800  0.53572064  0.13416112  1  0  0.328965  0  3.859513  0  0  0.309437  0  4.131395  0  0  0.324187  0  4.151172  0  0  0.174145  0.299183  0  4.118654  0
N  N50  1  0.37268792  0.09045978  0.90816520  1  0  -0.682277  0  3.082389  0  0  -0.641403  0  3.310441  0  0  -0.662293  0  3.303517  0  0  -0.563042  -0.627386  0  3.315648  0
N  N51  1  0.62853387  0.59073466  0.40812534  1  0  -0.683962  0  3.079641  0  0  -0.643041  0  3.308614  0  0  -0.663913  0  3.301654  0  0  -0.562878  -0.629036  0  3.31386  0
N  N52  1  0.64302806  0.67740195  0.81135968  1  0  -0.56973  0  2.79735  0  0  -0.536046  0  3.057548  0  0  -0.552202  0  3.065948  0  0  -0.421048  -0.51747  0  3.054367  0
N  N53  1  0.86810039  0.17770802  0.31147335  1  0  -0.569519  0  2.796073  0  0  -0.535846  0  3.055976  0  0  -0.551975  0  3.064373  0  0  -0.420631  -0.517337  0  3.052843  0
N  N54  1  0.92326773  0.99803901  0.66305796  1  0  -0.484507  0  2.702152  0  0  -0.4515  0  2.939515  0  0  -0.466016  0  2.948724  0  0  -0.322696  -0.441608  0  2.932781  0
N  N55  1  0.41567594  0.49847613  0.16284756  1  0  -0.483523  0  2.700996  0  0  -0.450483  0  2.938103  0  0  -0.465008  0  2.947417  0  0  -0.322753  -0.440605  0  2.931315  0
N  N56  1  0.26028166  0.79969702  0.00576113  1  0  -0.712412  0  3.028724  0  0  -0.671169  0  3.249414  0  0  -0.691271  0  3.242603  0  0  -0.57447  -0.657456  0  3.254644  0
N  N57  1  0.93415044  0.29988831  0.50577231  1  0  -0.71078  0  3.031209  0  0  -0.67001  0  3.251183  0  0  -0.690153  0  3.244448  0  0  -0.574067  -0.656274  0  3.256361  0
N  N58  1  0.87343747  0.08432752  0.90054470  1  0  -0.578917  0  2.803701  0  0  -0.549685  0  3.06663  0  0  -0.565064  0  3.074937  0  0  -0.415024  -0.531682  0  3.063473  0
N  N59  1  0.14177350  0.58435388  0.40048755  1  0  -0.578333  0  2.803818  0  0  -0.549014  0  3.066548  0  0  -0.564442  0  3.074874  0  0  -0.413944  -0.531013  0  3.063377  0
N  N60  1  0.04415148  0.56166505  0.84772789  1  0  -0.451872  0  2.680916  0  0  -0.418954  0  2.917164  0  0  -0.433517  0  2.926055  0  0  -0.315166  -0.409404  0  2.911725  0
N  N61  1  0.54649729  0.06179285  0.34765123  1  0  -0.451003  0  2.680918  0  0  -0.417947  0  2.917003  0  0  -0.432517  0  2.92589  0  0  -0.314812  -0.4084  0  2.911565  0
N  N62  1  0.55147994  0.23446490  0.55577210  1  0  -0.697693  0  3.121235  0  0  -0.658131  0  3.359669  0  0  -0.680122  0  3.356274  0  0  -0.577012  -0.643088  0  3.362419  0
N  N63  1  0.65850524  0.73428803  0.05563803  1  0  -0.696551  0  3.12026  0  0  -0.657522  0  3.358465  0  0  -0.679506  0  3.355097  0  0  -0.576717  -0.642495  0  3.361206  0
N  N64  1  0.94903423  0.34011336  0.72983852  1  0  -0.622748  0  2.762762  0  0  -0.595118  0  3.029249  0  0  -0.610824  0  3.03337  0  0  -0.42074  -0.575637  0  3.029238  0
N  N65  1  0.98077839  0.84044851  0.22984972  1  0  -0.624365  0  2.758273  0  0  -0.597045  0  3.025291  0  0  -0.612754  0  3.029359  0  0  -0.421905  -0.577587  0  3.025306  0
N  N66  1  0.42363281  0.89534278  0.62097030  1  0  -0.480029  0  2.626329  0  0  -0.44506  0  2.850416  0  0  -0.458158  0  2.858746  0  0  -0.329979  -0.436603  0  2.845683  0
N  N67  1  0.06005225  0.39550181  0.12089194  1  0  -0.479175  0  2.625243  0  0  -0.444378  0  2.849399  0  0  -0.457457  0  2.857748  0  0  -0.329895  -0.435944  0  2.844671  0
O  O68  1  0.54034258  0.23503122  0.82012843  1  0  -0.739225  0  2.06797  0  0  -0.689715  0  2.334153  0  0  -0.713481  0  2.321915  0  0  -0.42441  -0.663478  0  2.342821  0
O  O69  1  0.40460136  0.73522300  0.32004491  1  0  -0.740369  0  2.068739  0  0  -0.69092  0  2.335162  0  0  -0.714696  0  2.322948  0  0  -0.424296  -0.664784  0  2.343975  0
O  O70  1  0.37609755  0.56670628  0.93345954  1  0  -0.714065  0  2.115459  0  0  -0.667082  0  2.38451  0  0  -0.690295  0  2.372594  0  0  -0.404443  -0.641733  0  2.393265  0
O  O71  1  0.12326620  0.06699129  0.43343799  1  0  -0.714208  0  2.116343  0  0  -0.667417  0  2.385325  0  0  -0.690652  0  2.373338  0  0  -0.404038  -0.642056  0  2.394048  0
O  O72  1  0.32257282  0.44937661  0.63162300  1  0  -0.633002  0  1.980105  0  0  -0.564822  0  2.194079  0  0  -0.588789  0  2.18577  0  0  -0.308331  -0.548677  0  2.200271  0
O  O73  1  0.59632707  0.94929434  0.13157944  1  0  -0.633704  0  1.981832  0  0  -0.565015  0  2.195475  0  0  -0.589061  0  2.187125  0  0  -0.308214  -0.548851  0  2.201749  0
O  O74  1  0.82951142  0.41027902  0.95908119  1  0  -0.911575  0  1.887353  0  0  -0.869997  0  2.081144  0  0  -0.887983  0  2.051475  0  0  -0.612501  -0.849617  0  2.103463  0
O  O75  1  0.80107929  0.91037172  0.45903485  1  0  -0.911706  0  1.888727  0  0  -0.869809  0  2.082565  0  0  -0.887758  0  2.052835  0  0  -0.611998  -0.849511  0  2.104969  0
O  O76  1  0.56361705  0.25988252  0.03377563  1  0  -0.943169  0  1.870951  0  0  -0.898327  0  2.060145  0  0  -0.916674  0  2.02873  0  0  -0.65637  -0.877788  0  2.085505  0
O  O77  1  0.14263920  0.75987328  0.53372990  1  0  -0.94169  0  1.870963  0  0  -0.896667  0  2.059632  0  0  -0.915032  0  2.028271  0  0  -0.65582  -0.876121  0  2.084938  0
O  O78  1  0.54119002  0.53388309  0.69290502  1  0  -0.929514  0  1.831026  0  0  -0.888588  0  2.016851  0  0  -0.905416  0  1.982608  0  0  -0.638071  -0.868611  0  2.044311  0
O  O79  1  0.23218091  0.03404897  0.19275559  1  0  -0.928283  0  1.832036  0  0  -0.887826  0  2.016896  0  0  -0.904672  0  1.982777  0  0  -0.638073  -0.8678  0  2.044256  0
