# generated using pymatgen
data_CdH17C12N2ClO2
_symmetry_space_group_name_H-M   'P 1'
_cell_length_a   6.90466054
_cell_length_b   14.02898863
_cell_length_c   16.07289985
_cell_angle_alpha   90.00013827
_cell_angle_beta   90.00015700
_cell_angle_gamma   89.99977351
_symmetry_Int_Tables_number   1
_chemical_formula_structural   CdH17C12N2ClO2
_chemical_formula_sum   'Cd4 H68 C48 N8 Cl4 O8'
_cell_volume   1556.90793861
_cell_formula_units_Z   4
loop_
 _symmetry_equiv_pos_site_id
 _symmetry_equiv_pos_as_xyz
  1  'x, y, z'
loop_
 _atom_site_type_symbol
 _atom_site_label
 _atom_site_symmetry_multiplicity
 _atom_site_fract_x
 _atom_site_fract_y
 _atom_site_fract_z
 _atom_site_occupancy
 _atom_site_hle17_bader_spin_density
 _atom_site_hle17_ddec_charge
 _atom_site_hle17_ddec_spin_density
 _atom_site_hle17_ddec_sum_bond_order
 _atom_site_hle17_magmom
 _atom_site_hse06_10hf_bader_spin_density
 _atom_site_hse06_10hf_ddec_charge
 _atom_site_hse06_10hf_ddec_spin_density
 _atom_site_hse06_10hf_ddec_sum_bond_order
 _atom_site_hse06_10hf_magmom
 _atom_site_hse06_bader_spin_density
 _atom_site_hse06_ddec_charge
 _atom_site_hse06_ddec_spin_density
 _atom_site_hse06_ddec_sum_bond_order
 _atom_site_hse06_magmom
 _atom_site_pbe_bader_spin_density
 _atom_site_pbe_cm5_charge
 _atom_site_pbe_ddec_charge
 _atom_site_pbe_ddec_spin_density
 _atom_site_pbe_ddec_sum_bond_order
 _atom_site_pbe_magmom
Cd  Cd0  1  0.64635112  0.26645351  0.11019546  1  0  1.04782  0  1.792555  0  0  0.861199  0  2.255243  0  0  0.915601  0  2.205911  0  0  0.705776  0.82274  0  2.28879  0
Cd  Cd1  1  0.85364415  0.73354755  0.61019173  1  0  1.047824  0  1.792586  0  0  0.8612  0  2.255265  0  0  0.915605  0  2.205935  0  0  0.705784  0.822737  0  2.288794  0
Cd  Cd2  1  0.14634797  0.23354822  0.88980554  1  0  1.047825  0  1.792519  0  0  0.8612  0  2.255206  0  0  0.915603  0  2.205874  0  0  0.705781  0.822741  0  2.288739  0
Cd  Cd3  1  0.35364915  0.76645388  0.38980560  1  0  1.047863  0  1.792546  0  0  0.861251  0  2.255234  0  0  0.915655  0  2.205901  0  0  0.705792  0.822792  0  2.288771  0
H  H4  1  0.64674746  0.07571640  0.17089371  1  0  0.249345  0  0.913605  0  0  0.2432  0  0.967106  0  0  0.24821  0  0.964644  0  0  0.295376  0.239615  0  0.968913  0
H  H5  1  0.85325254  0.92428412  0.67089162  1  0  0.249349  0  0.913577  0  0  0.243197  0  0.967091  0  0  0.248206  0  0.964634  0  0  0.295357  0.239617  0  0.968888  0
H  H6  1  0.14674964  0.42428248  0.82910543  1  0  0.249324  0  0.913685  0  0  0.243176  0  0.967186  0  0  0.248185  0  0.964725  0  0  0.295409  0.23959  0  0.968992  0
H  H7  1  0.35325578  0.57571659  0.32910757  1  0  0.249329  0  0.913638  0  0  0.243183  0  0.967123  0  0  0.248192  0  0.964664  0  0  0.295375  0.239596  0  0.968933  0
H  H8  1  0.90114419  0.84270828  0.36832637  1  0  0.08228  0  0.948822  0  0  0.088861  0  1.016386  0  0  0.091135  0  1.014374  0  0  0.109997  0.087138  0  1.017946  0
H  H9  1  0.59885561  0.15729350  0.86833045  1  0  0.082321  0  0.948669  0  0  0.088901  0  1.016246  0  0  0.091174  0  1.014234  0  0  0.110025  0.087176  0  1.017813  0
H  H10  1  0.40114147  0.65729092  0.63167350  1  0  0.082221  0  0.948879  0  0  0.088825  0  1.016409  0  0  0.091099  0  1.014394  0  0  0.10995  0.087101  0  1.017972  0
H  H11  1  0.09885112  0.34270690  0.13167548  1  0  0.08227  0  0.948935  0  0  0.088842  0  1.01651  0  0  0.091114  0  1.014498  0  0  0.109977  0.087115  0  1.018072  0
H  H12  1  0.73504693  0.98741516  0.31425466  1  0  0.107477  0  0.93802  0  0  0.119928  0  0.995739  0  0  0.123185  0  0.994594  0  0  0.109042  0.117496  0  0.996905  0
H  H13  1  0.76496121  0.01259003  0.81425490  1  0  0.107527  0  0.938288  0  0  0.120013  0  0.995942  0  0  0.123271  0  0.994795  0  0  0.109093  0.117549  0  0.997144  0
H  H14  1  0.23503992  0.51258578  0.68574315  1  0  0.107487  0  0.938008  0  0  0.119905  0  0.995759  0  0  0.123162  0  0.994617  0  0  0.109057  0.117473  0  0.996923  0
H  H15  1  0.26496315  0.48741076  0.18574562  1  0  0.107415  0  0.937969  0  0  0.119869  0  0.995697  0  0  0.123126  0  0.994553  0  0  0.109027  0.117434  0  0.996862  0
H  H16  1  0.27398196  0.06854807  0.19789794  1  0  0.109505  0  0.975206  0  0  0.117207  0  1.040586  0  0  0.1209  0  1.038822  0  0  0.095491  0.114516  0  1.042037  0
H  H17  1  0.22602118  0.93144565  0.69790193  1  0  0.109509  0  0.975023  0  0  0.117185  0  1.040463  0  0  0.120879  0  1.038688  0  0  0.095471  0.114492  0  1.041917  0
H  H18  1  0.77397080  0.43145056  0.80210259  1  0  0.109532  0  0.975233  0  0  0.117232  0  1.04061  0  0  0.120925  0  1.038853  0  0  0.095503  0.114539  0  1.042067  0
H  H19  1  0.72603148  0.56855174  0.30210146  1  0  0.109531  0  0.975216  0  0  0.11722  0  1.0406  0  0  0.120918  0  1.038841  0  0  0.095473  0.114528  0  1.042057  0
H  H20  1  0.41657084  0.91475869  0.25338921  1  0  0.066204  0  0.975519  0  0  0.069841  0  1.050954  0  0  0.072787  0  1.047873  0  0  0.102274  0.0676  0  1.053306  0
H  H21  1  0.08342976  0.08523305  0.75339624  1  0  0.066216  0  0.975547  0  0  0.069846  0  1.050999  0  0  0.072794  0  1.047915  0  0  0.102253  0.067603  0  1.053346  0
H  H22  1  0.91656500  0.58523976  0.74661316  1  0  0.066123  0  0.975521  0  0  0.069779  0  1.050946  0  0  0.072727  0  1.047866  0  0  0.102257  0.067534  0  1.053296  0
H  H23  1  0.58343113  0.41476239  0.24661465  1  0  0.066112  0  0.975536  0  0  0.069748  0  1.050973  0  0  0.072692  0  1.047896  0  0  0.102265  0.067506  0  1.053327  0
H  H24  1  0.82064443  0.16716130  0.26690956  1  0  0.085688  0  0.909677  0  0  0.101478  0  0.968629  0  0  0.103041  0  0.967048  0  0  0.110737  0.100268  0  0.969884  0
H  H25  1  0.67936052  0.83283307  0.76690832  1  0  0.085689  0  0.909618  0  0  0.101464  0  0.9686  0  0  0.103023  0  0.967017  0  0  0.110719  0.10025  0  0.969861  0
H  H26  1  0.32064094  0.33283510  0.73308916  1  0  0.085699  0  0.909714  0  0  0.101483  0  0.968639  0  0  0.103054  0  0.967069  0  0  0.110747  0.100271  0  0.969895  0
H  H27  1  0.17936822  0.66716157  0.23308943  1  0  0.085671  0  0.909704  0  0  0.101473  0  0.968623  0  0  0.103035  0  0.967047  0  0  0.110718  0.10025  0  0.969889  0
H  H28  1  0.01580517  0.17824546  0.19568237  1  0  0.090112  0  0.937005  0  0  0.102352  0  1.003773  0  0  0.103565  0  1.003059  0  0  0.102993  0.101376  0  1.004406  0
H  H29  1  0.48419361  0.82175966  0.69568146  1  0  0.090143  0  0.936995  0  0  0.10241  0  1.003722  0  0  0.103621  0  1.003002  0  0  0.103011  0.101428  0  1.00436  0
H  H30  1  0.51580214  0.32175438  0.80431599  1  0  0.090095  0  0.936903  0  0  0.102341  0  1.003655  0  0  0.103568  0  1.002942  0  0  0.102957  0.101363  0  1.00429  0
H  H31  1  0.98420449  0.67824579  0.30431539  1  0  0.090161  0  0.936877  0  0  0.10238  0  1.003657  0  0  0.103598  0  1.002942  0  0  0.102973  0.101401  0  1.004291  0
H  H32  1  0.95221651  0.01028790  0.09293713  1  0  0.065317  0  0.932518  0  0  0.077241  0  0.991808  0  0  0.078665  0  0.991728  0  0  0.10939  0.076243  0  0.991965  0
H  H33  1  0.54778009  0.98971597  0.59293917  1  0  0.065286  0  0.932525  0  0  0.077258  0  0.991759  0  0  0.078674  0  0.991683  0  0  0.1094  0.076254  0  0.991918  0
H  H34  1  0.45221866  0.48971324  0.90705801  1  0  0.065326  0  0.932498  0  0  0.07728  0  0.991744  0  0  0.078704  0  0.991663  0  0  0.109379  0.076281  0  0.991904  0
H  H35  1  0.04778291  0.51028605  0.40705841  1  0  0.065332  0  0.93247  0  0  0.077292  0  0.99172  0  0  0.078718  0  0.991638  0  0  0.109401  0.076289  0  0.991882  0
H  H36  1  0.56940067  0.07085489  0.01196341  1  0  0.080019  0  0.930295  0  0  0.09741  0  0.993617  0  0  0.098201  0  0.993608  0  0  0.094397  0.09676  0  0.99375  0
H  H37  1  0.93059253  0.92914447  0.51196453  1  0  0.080052  0  0.930206  0  0  0.097451  0  0.993532  0  0  0.098248  0  0.993522  0  0  0.094411  0.096804  0  0.993666  0
H  H38  1  0.06940671  0.42914200  0.98803253  1  0  0.080018  0  0.930157  0  0  0.097434  0  0.993504  0  0  0.098227  0  0.993497  0  0  0.094415  0.096788  0  0.993633  0
H  H39  1  0.43059537  0.57085609  0.48803476  1  0  0.080046  0  0.930152  0  0  0.097455  0  0.993481  0  0  0.098249  0  0.993471  0  0  0.094417  0.096809  0  0.993608  0
H  H40  1  0.74302619  0.99554707  0.96479441  1  0  0.081464  0  0.941939  0  0  0.099876  0  1.002148  0  0  0.100625  0  1.002865  0  0  0.096276  0.099305  0  1.001714  0
H  H41  1  0.75697133  0.00445497  0.46479524  1  0  0.081433  0  0.941946  0  0  0.099858  0  1.002155  0  0  0.100608  0  1.002876  0  0  0.096278  0.099283  0  1.001728  0
H  H42  1  0.24302959  0.50445171  0.03520279  1  0  0.081484  0  0.941884  0  0  0.099917  0  1.002107  0  0  0.100667  0  1.002825  0  0  0.096288  0.099334  0  1.001681  0
H  H43  1  0.25697107  0.49554655  0.53520403  1  0  0.081444  0  0.941946  0  0  0.099879  0  1.002143  0  0  0.100628  0  1.002862  0  0  0.096283  0.099301  0  1.001716  0
H  H44  1  0.54187119  0.94764458  0.12936192  1  0  0.015096  0  0.939869  0  0  0.033577  0  0.998754  0  0  0.032709  0  1.000126  0  0  0.083651  0.03414  0  0.997884  0
H  H45  1  0.95812854  0.05235581  0.62936310  1  0  0.015123  0  0.939844  0  0  0.033596  0  0.998715  0  0  0.032725  0  1.000088  0  0  0.083656  0.03416  0  0.997841  0
H  H46  1  0.04187227  0.55235602  0.87063690  1  0  0.015135  0  0.939884  0  0  0.033608  0  0.998743  0  0  0.032738  0  1.000115  0  0  0.083672  0.034168  0  0.997874  0
H  H47  1  0.45812328  0.44764388  0.37063641  1  0  0.015088  0  0.939878  0  0  0.033574  0  0.998765  0  0  0.032703  0  1.000138  0  0  0.083658  0.03414  0  0.997887  0
H  H48  1  0.44572309  0.87718743  0.95357585  1  0  0.0952  0  0.944242  0  0  0.118706  0  1.000149  0  0  0.119561  0  1.001488  0  0  0.08393  0.118067  0  0.999229  0
H  H49  1  0.05427443  0.12281128  0.45357606  1  0  0.095209  0  0.944151  0  0  0.118718  0  1.000054  0  0  0.119571  0  1.001396  0  0  0.083937  0.118079  0  0.999136  0
H  H50  1  0.94572554  0.62280883  0.04642408  1  0  0.095229  0  0.944149  0  0  0.118734  0  1.000057  0  0  0.119586  0  1.001399  0  0  0.083938  0.118094  0  0.999133  0
H  H51  1  0.55427946  0.37719063  0.54642297  1  0  0.095193  0  0.944161  0  0  0.118693  0  1.000078  0  0  0.119545  0  1.001421  0  0  0.083924  0.118053  0  0.999155  0
H  H52  1  0.30484680  0.96015090  0.01090899  1  0  0.106501  0  0.960832  0  0  0.123296  0  1.028611  0  0  0.125621  0  1.027645  0  0  0.082144  0.12155  0  1.029382  0
H  H53  1  0.19514936  0.03984730  0.51090983  1  0  0.106487  0  0.960853  0  0  0.123282  0  1.028632  0  0  0.125606  0  1.027667  0  0  0.082118  0.121536  0  1.029405  0
H  H54  1  0.80485155  0.53984492  0.98909076  1  0  0.106528  0  0.960858  0  0  0.123333  0  1.028617  0  0  0.125656  0  1.027655  0  0  0.082163  0.121606  0  1.029375  0
H  H55  1  0.69514902  0.46015505  0.48908812  1  0  0.106518  0  0.960846  0  0  0.123307  0  1.028627  0  0  0.125631  0  1.027663  0  0  0.082164  0.121581  0  1.029383  0
H  H56  1  0.33230711  0.84081730  0.04736777  1  0  0.093723  0  0.954119  0  0  0.114186  0  1.014856  0  0  0.115438  0  1.01523  0  0  0.083815  0.113257  0  1.014633  0
H  H57  1  0.16769363  0.15918171  0.54736820  1  0  0.093702  0  0.954227  0  0  0.114173  0  1.014952  0  0  0.115425  0  1.015327  0  0  0.083811  0.113246  0  1.014726  0
H  H58  1  0.83230632  0.65917989  0.95263327  1  0  0.093768  0  0.954185  0  0  0.114244  0  1.0149  0  0  0.115495  0  1.015275  0  0  0.083838  0.113316  0  1.014681  0
H  H59  1  0.66769401  0.34081998  0.45263034  1  0  0.09372  0  0.954188  0  0  0.114193  0  1.014904  0  0  0.115445  0  1.015278  0  0  0.083819  0.113265  0  1.014685  0
H  H60  1  0.78470728  0.82554058  0.01021977  1  0  0.090134  0  0.952568  0  0  0.112498  0  1.012361  0  0  0.113729  0  1.01249  0  0  0.083066  0.111583  0  1.012311  0
H  H61  1  0.71529170  0.17445948  0.51022092  1  0  0.090172  0  0.952554  0  0  0.112519  0  1.012357  0  0  0.113749  0  1.01249  0  0  0.083064  0.111598  0  1.012315  0
H  H62  1  0.28470813  0.67445812  0.98978120  1  0  0.090192  0  0.952555  0  0  0.112547  0  1.012347  0  0  0.113778  0  1.012478  0  0  0.083074  0.111629  0  1.012301  0
H  H63  1  0.21529251  0.32554140  0.48978203  1  0  0.09019  0  0.95255  0  0  0.112533  0  1.012357  0  0  0.113768  0  1.012483  0  0  0.083059  0.111616  0  1.01231  0
H  H64  1  0.66228897  0.78343872  0.10084985  1  0  0.104204  0  0.959334  0  0  0.123776  0  1.021384  0  0  0.125481  0  1.021076  0  0  0.080783  0.122506  0  1.021658  0
H  H65  1  0.83771203  0.21656231  0.60084998  1  0  0.104203  0  0.959315  0  0  0.123771  0  1.021369  0  0  0.125476  0  1.021063  0  0  0.080777  0.122501  0  1.021641  0
H  H66  1  0.16229036  0.71656236  0.89915222  1  0  0.104233  0  0.959313  0  0  0.123805  0  1.021361  0  0  0.125509  0  1.021056  0  0  0.080789  0.122534  0  1.021639  0
H  H67  1  0.33770681  0.28343762  0.39915187  1  0  0.104219  0  0.959403  0  0  0.123797  0  1.021436  0  0  0.125502  0  1.021129  0  0  0.080765  0.122526  0  1.021707  0
H  H68  1  0.85787831  0.86338230  0.11107285  1  0  0.091982  0  0.957903  0  0  0.110796  0  1.022781  0  0  0.112062  0  1.023282  0  0  0.079613  0.109852  0  1.022501  0
H  H69  1  0.64212130  0.13661948  0.61107445  1  0  0.091978  0  0.957898  0  0  0.110782  0  1.022783  0  0  0.112051  0  1.023283  0  0  0.079611  0.109836  0  1.022502  0
H  H70  1  0.35788028  0.63661912  0.88892697  1  0  0.091978  0  0.957903  0  0  0.110783  0  1.022788  0  0  0.11205  0  1.023291  0  0  0.079614  0.10984  0  1.022511  0
H  H71  1  0.14211828  0.36337941  0.38892842  1  0  0.092032  0  0.957881  0  0  0.110841  0  1.02275  0  0  0.112103  0  1.023257  0  0  0.079629  0.109894  0  1.022474  0
C  C72  1  0.97867411  0.89396915  0.32984306  1  0  0.148299  0  3.70485  0  0  0.116973  0  3.958292  0  0  0.125058  0  3.976318  0  0  0.050396  0.111713  0  3.946073  0
C  C73  1  0.52131821  0.10602895  0.82984445  1  0  0.148262  0  3.705152  0  0  0.116886  0  3.958647  0  0  0.124968  0  3.976681  0  0  0.050345  0.111624  0  3.946421  0
C  C74  1  0.47866624  0.60603274  0.67015566  1  0  0.148306  0  3.704675  0  0  0.116939  0  3.958095  0  0  0.125025  0  3.976117  0  0  0.05038  0.111675  0  3.945878  0
C  C75  1  0.02133383  0.39396518  0.17015703  1  0  0.148101  0  3.704554  0  0  0.116753  0  3.957992  0  0  0.124837  0  3.976017  0  0  0.050289  0.111491  0  3.945774  0
C  C76  1  0.88732090  0.97524875  0.29939059  1  0  -0.16388  0  3.699147  0  0  -0.18364  0  3.950422  0  0  -0.191624  0  3.971158  0  0  -0.082327  -0.17859  0  3.93672  0
C  C77  1  0.61269150  0.02475497  0.79939565  1  0  -0.163886  0  3.699263  0  0  -0.183687  0  3.950472  0  0  -0.191668  0  3.971205  0  0  -0.082369  -0.178615  0  3.936785  0
C  C78  1  0.38731677  0.52475118  0.70060864  1  0  -0.163868  0  3.699205  0  0  -0.18356  0  3.95051  0  0  -0.19154  0  3.971238  0  0  -0.082379  -0.178519  0  3.936822  0
C  C79  1  0.11268059  0.47524612  0.20061278  1  0  -0.163776  0  3.699228  0  0  -0.183501  0  3.950538  0  0  -0.191481  0  3.971272  0  0  -0.082374  -0.178451  0  3.936828  0
C  C80  1  0.99283583  0.04017191  0.25149227  1  0  0.125572  0  3.71969  0  0  0.141937  0  3.958149  0  0  0.146281  0  3.980357  0  0  0.00814  0.139198  0  3.943076  0
C  C81  1  0.50716467  0.95982669  0.75149171  1  0  0.12528  0  3.720114  0  0  0.141754  0  3.958424  0  0  0.146091  0  3.980638  0  0  0.008073  0.13902  0  3.943336  0
C  C82  1  0.49282418  0.45982843  0.74850541  1  0  0.125606  0  3.719697  0  0  0.141855  0  3.958275  0  0  0.146212  0  3.980499  0  0  0.008178  0.139115  0  3.943202  0
C  C83  1  0.00718218  0.54017042  0.24850582  1  0  0.125592  0  3.719633  0  0  0.141847  0  3.958229  0  0  0.14619  0  3.980446  0  0  0.00818  0.139113  0  3.943144  0
C  C84  1  0.18652396  0.01852678  0.23380797  1  0  -0.164783  0  3.712083  0  0  -0.181441  0  3.954222  0  0  -0.189377  0  3.975353  0  0  -0.087062  -0.176438  0  3.940211  0
C  C85  1  0.31348955  0.98147061  0.73381342  1  0  -0.16464  0  3.712112  0  0  -0.181321  0  3.954225  0  0  -0.189255  0  3.975358  0  0  -0.087057  -0.176318  0  3.940213  0
C  C86  1  0.68651796  0.48147202  0.76619495  1  0  -0.164792  0  3.711846  0  0  -0.181431  0  3.954031  0  0  -0.189371  0  3.975165  0  0  -0.087024  -0.176427  0  3.940022  0
C  C87  1  0.81347830  0.51852947  0.26619506  1  0  -0.164781  0  3.711619  0  0  -0.181399  0  3.953785  0  0  -0.189344  0  3.974922  0  0  -0.086987  -0.176399  0  3.939779  0
C  C88  1  0.26653156  0.93532484  0.26551452  1  0  0.127586  0  3.732604  0  0  0.099566  0  3.979617  0  0  0.106625  0  3.99831  0  0  0.041594  0.095069  0  3.966931  0
C  C89  1  0.23346622  0.06466907  0.76552106  1  0  0.127431  0  3.732543  0  0  0.099397  0  3.979542  0  0  0.106453  0  3.998242  0  0  0.041548  0.0949  0  3.966855  0
C  C90  1  0.76652146  0.56467747  0.73448581  1  0  0.127665  0  3.732685  0  0  0.099607  0  3.979692  0  0  0.10666  0  3.998394  0  0  0.041552  0.095116  0  3.966996  0
C  C91  1  0.73347894  0.43532180  0.23448503  1  0  0.127671  0  3.732955  0  0  0.099631  0  3.979984  0  0  0.106689  0  3.998683  0  0  0.041557  0.095135  0  3.967298  0
C  C92  1  0.90167230  0.12989475  0.21778153  1  0  -0.031064  0  3.66178  0  0  -0.093136  0  3.920562  0  0  -0.089269  0  3.92991  0  0  -0.070016  -0.095621  0  3.913927  0
C  C93  1  0.59832654  0.87010661  0.71777965  1  0  -0.031087  0  3.662004  0  0  -0.09319  0  3.920754  0  0  -0.0893  0  3.930069  0  0  -0.070056  -0.095671  0  3.914119  0
C  C94  1  0.40167027  0.37010506  0.78221480  1  0  -0.031118  0  3.661821  0  0  -0.093098  0  3.920487  0  0  -0.089276  0  3.929893  0  0  -0.069999  -0.095583  0  3.913851  0
C  C95  1  0.09833195  0.62989388  0.28221613  1  0  -0.031108  0  3.66182  0  0  -0.093124  0  3.920549  0  0  -0.089257  0  3.929891  0  0  -0.069999  -0.095606  0  3.913916  0
C  C96  1  0.84421817  0.06454135  0.07546797  1  0  0.016544  0  3.645171  0  0  -0.000427  0  3.885132  0  0  -0.001492  0  3.89847  0  0  -0.003186  0.000178  0  3.875914  0
C  C97  1  0.65577688  0.93546175  0.57546753  1  0  0.016612  0  3.644965  0  0  -0.000371  0  3.884883  0  0  -0.001417  0  3.898227  0  0  -0.003177  0.000242  0  3.875659  0
C  C98  1  0.34422086  0.43545785  0.92453016  1  0  0.016396  0  3.645198  0  0  -0.000516  0  3.885104  0  0  -0.001583  0  3.898445  0  0  -0.003167  8.9e-05  0  3.875889  0
C  C99  1  0.15578082  0.56454220  0.42453142  1  0  0.016437  0  3.645198  0  0  -0.000538  0  3.885164  0  0  -0.001605  0  3.898504  0  0  -0.003218  7.2e-05  0  3.875946  0
C  C100  1  0.94814895  0.13580789  0.01874157  1  0  0.63466  0  3.861302  0  0  0.587931  0  4.152881  0  0  0.62122  0  4.148587  0  0  0.199642  0.565307  0  4.154931  0
C  C101  1  0.55185153  0.86419434  0.51874086  1  0  0.634511  0  3.861492  0  0  0.58787  0  4.152946  0  0  0.621147  0  4.14866  0  0  0.199694  0.565245  0  4.154996  0
C  C102  1  0.44814823  0.36419253  0.98125731  1  0  0.634621  0  3.861335  0  0  0.587877  0  4.152924  0  0  0.621165  0  4.148637  0  0  0.199612  0.565246  0  4.154983  0
C  C103  1  0.05185671  0.63580839  0.48125424  1  0  0.634632  0  3.86119  0  0  0.587881  0  4.15282  0  0  0.621171  0  4.148524  0  0  0.199617  0.565252  0  4.154874  0
C  C104  1  0.68163961  0.01691862  0.02509546  1  0  -0.18479  0  3.638298  0  0  -0.231829  0  3.887756  0  0  -0.233718  0  3.902414  0  0  -0.160069  -0.230308  0  3.877544  0
C  C105  1  0.81835512  0.98308363  0.52509594  1  0  -0.184739  0  3.638179  0  0  -0.231894  0  3.887801  0  0  -0.23377  0  3.902402  0  0  -0.160098  -0.23038  0  3.8776  0
C  C106  1  0.18164948  0.48308233  0.97490248  1  0  -0.18469  0  3.638063  0  0  -0.23192  0  3.887766  0  0  -0.233794  0  3.902383  0  0  -0.1601  -0.230396  0  3.877552  0
C  C107  1  0.31835252  0.51691644  0.47490383  1  0  -0.184706  0  3.638184  0  0  -0.231856  0  3.887829  0  0  -0.23373  0  3.902444  0  0  -0.160092  -0.230335  0  3.877619  0
C  C108  1  0.58886251  0.92895814  0.06566838  1  0  0.121723  0  3.648499  0  0  0.133254  0  3.886282  0  0  0.133764  0  3.905481  0  0  -0.092263  0.132953  0  3.873005  0
C  C109  1  0.91113827  0.07104208  0.56566892  1  0  0.121639  0  3.648583  0  0  0.133245  0  3.886268  0  0  0.13376  0  3.905472  0  0  -0.092264  0.132943  0  3.872994  0
C  C110  1  0.08886239  0.57104095  0.93433050  1  0  0.121698  0  3.648509  0  0  0.133323  0  3.886201  0  0  0.133837  0  3.905402  0  0  -0.092269  0.133029  0  3.872921  0
C  C111  1  0.41113645  0.42895913  0.43433116  1  0  0.121734  0  3.648523  0  0  0.133252  0  3.886365  0  0  0.133765  0  3.905567  0  0  -0.092256  0.132948  0  3.873098  0
C  C112  1  0.40722429  0.90045513  0.01689546  1  0  -0.323045  0  3.688917  0  0  -0.396461  0  3.924053  0  0  -0.400312  0  3.935763  0  0  -0.246274  -0.393522  0  3.915946  0
C  C113  1  0.09277336  0.09954451  0.51689631  1  0  -0.323003  0  3.689006  0  0  -0.396443  0  3.924131  0  0  -0.400296  0  3.935845  0  0  -0.246249  -0.393509  0  3.916029  0
C  C114  1  0.90722707  0.59954191  0.98310379  1  0  -0.323194  0  3.689053  0  0  -0.396642  0  3.924184  0  0  -0.400492  0  3.935898  0  0  -0.246346  -0.393729  0  3.916065  0
C  C115  1  0.59277491  0.40045661  0.48310215  1  0  -0.323052  0  3.688982  0  0  -0.396452  0  3.924138  0  0  -0.400304  0  3.935852  0  0  -0.246301  -0.393537  0  3.916016  0
C  C116  1  0.73157661  0.84583156  0.07233861  1  0  -0.323511  0  3.700323  0  0  -0.399587  0  3.939426  0  0  -0.402807  0  3.950497  0  0  -0.249103  -0.397138  0  3.93177  0
C  C117  1  0.76841986  0.15416868  0.57233978  1  0  -0.323513  0  3.700312  0  0  -0.399573  0  3.939399  0  0  -0.402794  0  3.950456  0  0  -0.249088  -0.397112  0  3.931715  0
C  C118  1  0.23158158  0.65416867  0.92766168  1  0  -0.323595  0  3.70029  0  0  -0.399664  0  3.93937  0  0  -0.402881  0  3.95042  0  0  -0.249106  -0.397202  0  3.931688  0
C  C119  1  0.26841722  0.34583210  0.42766199  1  0  -0.323646  0  3.70036  0  0  -0.39968  0  3.939455  0  0  -0.402897  0  3.950513  0  0  -0.24908  -0.397221  0  3.931781  0
N  N120  1  0.16531481  0.87452589  0.31346903  1  0  -0.33404  0  3.257694  0  0  -0.255094  0  3.516203  0  0  -0.275156  0  3.535365  0  0  -0.334146  -0.241485  0  3.502884  0
N  N121  1  0.33469051  0.12546957  0.81347395  1  0  -0.333824  0  3.257982  0  0  -0.254822  0  3.516423  0  0  -0.274885  0  3.535593  0  0  -0.333968  -0.241213  0  3.503103  0
N  N122  1  0.66531696  0.62547091  0.68653367  1  0  -0.334006  0  3.25768  0  0  -0.254998  0  3.516147  0  0  -0.275059  0  3.535312  0  0  -0.334024  -0.241383  0  3.502815  0
N  N123  1  0.83467445  0.37452965  0.18653599  1  0  -0.333887  0  3.257802  0  0  -0.254874  0  3.516225  0  0  -0.274933  0  3.535388  0  0  -0.33398  -0.241265  0  3.502905  0
N  N124  1  0.76360020  0.11256068  0.14886854  1  0  -0.42904  0  3.276276  0  0  -0.359436  0  3.524527  0  0  -0.379108  0  3.537676  0  0  -0.480236  -0.345511  0  3.514959  0
N  N125  1  0.73639966  0.88743835  0.64886748  1  0  -0.428997  0  3.276122  0  0  -0.359427  0  3.52443  0  0  -0.379112  0  3.537574  0  0  -0.480212  -0.345504  0  3.514845  0
N  N126  1  0.26359847  0.38743869  0.85112887  1  0  -0.428948  0  3.276285  0  0  -0.35938  0  3.524511  0  0  -0.379039  0  3.537684  0  0  -0.4803  -0.345449  0  3.514936  0
N  N127  1  0.23640420  0.61256045  0.35113095  1  0  -0.429007  0  3.276295  0  0  -0.359382  0  3.524496  0  0  -0.379051  0  3.537651  0  0  -0.480223  -0.345449  0  3.514916  0
Cl  Cl128  1  0.38939756  0.24606755  0.21860385  1  0  -0.636026  0  0.808089  0  0  -0.579944  0  1.051111  0  0  -0.597902  0  1.030393  0  0  -0.3495  -0.566814  0  1.06524  0
Cl  Cl129  1  0.11059702  0.75393122  0.71860547  1  0  -0.63604  0  0.808059  0  0  -0.579951  0  1.051073  0  0  -0.597909  0  1.030356  0  0  -0.34951  -0.566823  0  1.0652  0
Cl  Cl130  1  0.88940073  0.25393228  0.78139059  1  0  -0.636061  0  0.808088  0  0  -0.579965  0  1.051102  0  0  -0.597928  0  1.030387  0  0  -0.349496  -0.566836  0  1.065225  0
Cl  Cl131  1  0.61059997  0.74606926  0.28139467  1  0  -0.636065  0  0.808091  0  0  -0.579981  0  1.051113  0  0  -0.597941  0  1.030396  0  0  -0.349507  -0.566851  0  1.065238  0
O  O132  1  0.90312829  0.22417140  0.02007991  1  0  -0.641014  0  1.994925  0  0  -0.569781  0  2.247939  0  0  -0.599667  0  2.235848  0  0  -0.328373  -0.548771  0  2.255382  0
O  O133  1  0.59686206  0.77583368  0.52007782  1  0  -0.640921  0  1.995195  0  0  -0.569685  0  2.248104  0  0  -0.599587  0  2.23607  0  0  -0.328389  -0.54868  0  2.255546  0
O  O134  1  0.40312682  0.27583125  0.97992264  1  0  -0.64096  0  1.995011  0  0  -0.569722  0  2.248017  0  0  -0.599607  0  2.235928  0  0  -0.328356  -0.548708  0  2.255458  0
O  O135  1  0.09686652  0.72417038  0.47992044  1  0  -0.640991  0  1.995075  0  0  -0.569731  0  2.248053  0  0  -0.599627  0  2.235995  0  0  -0.328352  -0.548721  0  2.255495  0
O  O136  1  0.07180200  0.10130722  0.96886141  1  0  -0.605278  0  1.968597  0  0  -0.544343  0  2.204339  0  0  -0.573065  0  2.195944  0  0  -0.325975  -0.524248  0  2.209337  0
O  O137  1  0.42818983  0.89869937  0.46885872  1  0  -0.605298  0  1.968524  0  0  -0.544412  0  2.204238  0  0  -0.573137  0  2.195849  0  0  -0.326042  -0.52432  0  2.209241  0
O  O138  1  0.57181228  0.39869466  0.03113702  1  0  -0.605255  0  1.968424  0  0  -0.544321  0  2.204169  0  0  -0.573047  0  2.19578  0  0  -0.325962  -0.524219  0  2.209171  0
O  O139  1  0.92818394  0.60130405  0.53113931  1  0  -0.605277  0  1.968226  0  0  -0.544356  0  2.203999  0  0  -0.573084  0  2.19561  0  0  -0.32597  -0.524254  0  2.208993  0
