# generated using pymatgen
data_CuH5C3SIN3
_symmetry_space_group_name_H-M   'P 1'
_cell_length_a   5.65970219
_cell_length_b   9.98871041
_cell_length_c   13.07931859
_cell_angle_alpha   90.00063955
_cell_angle_beta   89.99980136
_cell_angle_gamma   96.35386179
_symmetry_Int_Tables_number   1
_chemical_formula_structural   CuH5C3SIN3
_chemical_formula_sum   'Cu4 H20 C12 S4 I4 N12'
_cell_volume   734.87280787
_cell_formula_units_Z   4
loop_
 _symmetry_equiv_pos_site_id
 _symmetry_equiv_pos_as_xyz
  1  'x, y, z'
loop_
 _atom_site_type_symbol
 _atom_site_label
 _atom_site_symmetry_multiplicity
 _atom_site_fract_x
 _atom_site_fract_y
 _atom_site_fract_z
 _atom_site_occupancy
 _atom_site_hle17_bader_spin_density
 _atom_site_hle17_ddec_charge
 _atom_site_hle17_ddec_spin_density
 _atom_site_hle17_ddec_sum_bond_order
 _atom_site_hle17_magmom
 _atom_site_hse06_10hf_bader_spin_density
 _atom_site_hse06_10hf_ddec_charge
 _atom_site_hse06_10hf_ddec_spin_density
 _atom_site_hse06_10hf_ddec_sum_bond_order
 _atom_site_hse06_10hf_magmom
 _atom_site_hse06_bader_spin_density
 _atom_site_hse06_ddec_charge
 _atom_site_hse06_ddec_spin_density
 _atom_site_hse06_ddec_sum_bond_order
 _atom_site_hse06_magmom
 _atom_site_pbe_bader_spin_density
 _atom_site_pbe_cm5_charge
 _atom_site_pbe_ddec_charge
 _atom_site_pbe_ddec_spin_density
 _atom_site_pbe_ddec_sum_bond_order
 _atom_site_pbe_magmom
Cu  Cu0  1  0.75871300  0.98702346  0.50134517  1  0  0.230799  0  2.289811  0  0  0.173747  0  2.772015  0  0  0.182561  0  2.720598  0  0  0.213895  0.169746  0  2.805001  0
Cu  Cu1  1  0.74129913  0.51296549  0.00134866  1  0  0.23086  0  2.289766  0  0  0.173772  0  2.771933  0  0  0.182544  0  2.720513  0  0  0.213939  0.169779  0  2.804935  0
Cu  Cu2  1  0.24129952  0.01297741  0.49865661  1  0  0.230768  0  2.289919  0  0  0.173752  0  2.772092  0  0  0.182478  0  2.720674  0  0  0.213932  0.169748  0  2.805084  0
Cu  Cu3  1  0.25870138  0.48702834  0.99865006  1  0  0.230802  0  2.289953  0  0  0.173728  0  2.772114  0  0  0.182493  0  2.720699  0  0  0.213923  0.169739  0  2.805109  0
H  H4  1  0.39492225  0.34278977  0.48485660  1  0  0.297045  0  0.909725  0  0  0.265462  0  0.997925  0  0  0.274868  0  0.989027  0  0  0.310269  0.258434  0  1.004903  0
H  H5  1  0.10509064  0.15719560  0.98485001  1  0  0.297121  0  0.909603  0  0  0.265538  0  0.99778  0  0  0.27495  0  0.98888  0  0  0.310288  0.258535  0  1.004738  0
H  H6  1  0.60507494  0.65720507  0.51515053  1  0  0.297164  0  0.909704  0  0  0.265547  0  0.99792  0  0  0.274946  0  0.989029  0  0  0.310349  0.258522  0  1.0049  0
H  H7  1  0.89492025  0.84278815  0.01515330  1  0  0.297088  0  0.909749  0  0  0.265518  0  0.997917  0  0  0.274917  0  0.989028  0  0  0.310353  0.258497  0  1.004888  0
H  H8  1  0.00232084  0.50910027  0.34333941  1  0  0.111499  0  0.939287  0  0  0.118179  0  1.005245  0  0  0.120774  0  1.002828  0  0  0.129898  0.11579  0  1.007406  0
H  H9  1  0.49769270  0.99090219  0.84332723  1  0  0.111449  0  0.939569  0  0  0.118164  0  1.005456  0  0  0.120761  0  1.003034  0  0  0.129931  0.115776  0  1.007614  0
H  H10  1  0.99766369  0.49091978  0.65665702  1  0  0.111377  0  0.939738  0  0  0.118096  0  1.005619  0  0  0.120693  0  1.003201  0  0  0.129893  0.115707  0  1.007781  0
H  H11  1  0.50230388  0.00908963  0.15666155  1  0  0.111379  0  0.939763  0  0  0.118111  0  1.005628  0  0  0.120708  0  1.003208  0  0  0.129874  0.115723  0  1.007791  0
H  H12  1  0.01029357  0.13771701  0.31268348  1  0  0.103041  0  0.970654  0  0  0.115139  0  1.048779  0  0  0.11717  0  1.047053  0  0  0.092066  0.113719  0  1.049814  0
H  H13  1  0.48970355  0.36227877  0.81269097  1  0  0.103013  0  0.970775  0  0  0.115126  0  1.048915  0  0  0.117158  0  1.047186  0  0  0.092073  0.113708  0  1.049947  0
H  H14  1  0.98972902  0.86229896  0.68732059  1  0  0.103039  0  0.970715  0  0  0.115088  0  1.048884  0  0  0.11712  0  1.047157  0  0  0.092057  0.113667  0  1.04992  0
H  H15  1  0.51029777  0.63771909  0.18731310  1  0  0.103037  0  0.970804  0  0  0.11515  0  1.048935  0  0  0.117182  0  1.047208  0  0  0.092078  0.113732  0  1.049967  0
H  H16  1  0.15890110  0.29722761  0.27267579  1  0  0.111012  0  0.953199  0  0  0.129908  0  1.015284  0  0  0.130879  0  1.015783  0  0  0.096213  0.129193  0  1.015047  0
H  H17  1  0.34109727  0.20277258  0.77268607  1  0  0.110966  0  0.953257  0  0  0.129908  0  1.015319  0  0  0.130877  0  1.01582  0  0  0.096225  0.129192  0  1.015083  0
H  H18  1  0.84110130  0.70279342  0.72731757  1  0  0.111005  0  0.953269  0  0  0.129996  0  1.015242  0  0  0.130967  0  1.015744  0  0  0.096286  0.12928  0  1.015005  0
H  H19  1  0.65889855  0.79722427  0.22731494  1  0  0.111009  0  0.953448  0  0  0.129979  0  1.015447  0  0  0.13095  0  1.015946  0  0  0.096259  0.129263  0  1.015211  0
H  H20  1  0.91304995  0.22043877  0.20035321  1  0  0.107037  0  0.944519  0  0  0.124028  0  1.012126  0  0  0.125416  0  1.011367  0  0  0.090896  0.122808  0  1.013251  0
H  H21  1  0.58692694  0.27956627  0.70035523  1  0  0.107082  0  0.944444  0  0  0.124106  0  1.012031  0  0  0.125493  0  1.011275  0  0  0.090905  0.122888  0  1.013156  0
H  H22  1  0.08694494  0.77957118  0.79964474  1  0  0.107044  0  0.944544  0  0  0.124029  0  1.012147  0  0  0.125418  0  1.011387  0  0  0.090873  0.12281  0  1.013271  0
H  H23  1  0.41307558  0.72043763  0.29964502  1  0  0.107043  0  0.944501  0  0  0.124069  0  1.012085  0  0  0.125455  0  1.011332  0  0  0.09091  0.12285  0  1.013209  0
C  C24  1  0.62328841  0.24571510  0.38517046  1  0  0.317215  0  3.754432  0  0  0.272846  0  4.043235  0  0  0.294516  0  4.053483  0  0  0.219663  0.257884  0  4.036993  0
C  C25  1  0.87670574  0.25427872  0.88517497  1  0  0.317088  0  3.754186  0  0  0.272727  0  4.042987  0  0  0.294403  0  4.053229  0  0  0.219622  0.257789  0  4.036758  0
C  C26  1  0.37671078  0.75428982  0.61483438  1  0  0.317103  0  3.754324  0  0  0.272791  0  4.043016  0  0  0.294457  0  4.053273  0  0  0.219628  0.257829  0  4.036777  0
C  C27  1  0.12329712  0.74570906  0.11483292  1  0  0.317043  0  3.753939  0  0  0.272699  0  4.042697  0  0  0.294367  0  4.05295  0  0  0.219592  0.25774  0  4.03645  0
C  C28  1  0.85608045  0.43743761  0.36855474  1  0  0.164989  0  3.663446  0  0  0.10141  0  3.948524  0  0  0.114491  0  3.958515  0  0  0.155793  0.093805  0  3.939765  0
C  C29  1  0.64391653  0.06255191  0.86854967  1  0  0.165006  0  3.663493  0  0  0.101416  0  3.948533  0  0  0.114501  0  3.958518  0  0  0.155797  0.093811  0  3.939769  0
C  C30  1  0.14389477  0.56256229  0.63145239  1  0  0.165225  0  3.663095  0  0  0.101631  0  3.948178  0  0  0.114712  0  3.958165  0  0  0.155834  0.094021  0  3.939427  0
C  C31  1  0.35609772  0.93743988  0.13145517  1  0  0.165286  0  3.663436  0  0  0.101696  0  3.94845  0  0  0.114779  0  3.958432  0  0  0.155918  0.094084  0  3.9397  0
C  C32  1  0.98741566  0.23526909  0.27760954  1  0  -0.157553  0  3.624968  0  0  -0.257191  0  3.865859  0  0  -0.254846  0  3.875092  0  0  -0.141848  -0.2589  0  3.86021  0
C  C33  1  0.51258055  0.26473009  0.77761536  1  0  -0.157616  0  3.625174  0  0  -0.257373  0  3.866148  0  0  -0.255033  0  3.875386  0  0  -0.141892  -0.259087  0  3.860501  0
C  C34  1  0.01259043  0.76474388  0.72238918  1  0  -0.157559  0  3.625113  0  0  -0.257205  0  3.865963  0  0  -0.254863  0  3.875186  0  0  -0.141864  -0.258919  0  3.860324  0
C  C35  1  0.48743137  0.73526775  0.22238871  1  0  -0.157537  0  3.625281  0  0  -0.257304  0  3.86619  0  0  -0.254961  0  3.875414  0  0  -0.141884  -0.259016  0  3.860544  0
S  S36  1  0.51683981  0.08047741  0.37507992  1  0  -0.343661  0  2.609051  0  0  -0.327081  0  3.059403  0  0  -0.335628  0  3.033599  0  0  -0.22185  -0.321134  0  3.076867  0
S  S37  1  0.98315990  0.41951725  0.87508251  1  0  -0.343676  0  2.609136  0  0  -0.327059  0  3.059452  0  0  -0.33561  0  3.033648  0  0  -0.221846  -0.321109  0  3.076902  0
S  S38  1  0.48316665  0.91952850  0.62492033  1  0  -0.343504  0  2.609247  0  0  -0.32696  0  3.059596  0  0  -0.335509  0  3.033801  0  0  -0.221803  -0.320993  0  3.077018  0
S  S39  1  0.01684512  0.58047254  0.12492157  1  0  -0.343554  0  2.609206  0  0  -0.326962  0  3.059522  0  0  -0.335508  0  3.033719  0  0  -0.221821  -0.321025  0  3.076996  0
I  I40  1  0.01619347  0.19114053  0.59132128  1  0  -0.409954  0  1.51517  0  0  -0.362222  0  1.922096  0  0  -0.377752  0  1.889156  0  0  -0.210831  -0.352049  0  1.943634  0
I  I41  1  0.48379523  0.30885581  0.09132215  1  0  -0.409982  0  1.515111  0  0  -0.362199  0  1.921963  0  0  -0.377733  0  1.889026  0  0  -0.210823  -0.352031  0  1.943507  0
I  I42  1  0.98381259  0.80886337  0.40867361  1  0  -0.409984  0  1.515136  0  0  -0.362232  0  1.922035  0  0  -0.377767  0  1.889105  0  0  -0.210837  -0.352055  0  1.943571  0
I  I43  1  0.51620096  0.69113399  0.90866969  1  0  -0.409992  0  1.515017  0  0  -0.362246  0  1.921925  0  0  -0.377779  0  1.888989  0  0  -0.210836  -0.35208  0  1.94347  0
N  N44  1  0.68189678  0.46668764  0.42779964  1  0  -0.209416  0  2.945162  0  0  -0.197249  0  3.234956  0  0  -0.203599  0  3.246288  0  0  -0.225017  -0.192921  0  3.225788  0
N  N45  1  0.81810846  0.03330180  0.92778571  1  0  -0.209472  0  2.945391  0  0  -0.197311  0  3.235189  0  0  -0.20366  0  3.246519  0  0  -0.225036  -0.192959  0  3.226042  0
N  N46  1  0.31809514  0.53331627  0.57220367  1  0  -0.209433  0  2.944867  0  0  -0.197315  0  3.234698  0  0  -0.203671  0  3.246032  0  0  -0.225047  -0.192986  0  3.225528  0
N  N47  1  0.18189358  0.96668195  0.07221071  1  0  -0.209616  0  2.945093  0  0  -0.197491  0  3.234943  0  0  -0.203847  0  3.246275  0  0  -0.225153  -0.193163  0  3.225775  0
N  N48  1  0.53923531  0.34749598  0.43692283  1  0  -0.226286  0  3.453515  0  0  -0.163477  0  3.70044  0  0  -0.177581  0  3.712418  0  0  -0.271085  -0.154704  0  3.693778  0
N  N49  1  0.96076499  0.15249563  0.93691346  1  0  -0.226305  0  3.453489  0  0  -0.16351  0  3.700466  0  0  -0.17762  0  3.712441  0  0  -0.271162  -0.154815  0  3.693873  0
N  N50  1  0.46078408  0.65250388  0.56307588  1  0  -0.226591  0  3.45329  0  0  -0.163723  0  3.700212  0  0  -0.177819  0  3.712192  0  0  -0.271183  -0.154952  0  3.693552  0
N  N51  1  0.03919960  0.84749522  0.06307914  1  0  -0.226322  0  3.452995  0  0  -0.163513  0  3.699934  0  0  -0.17761  0  3.711916  0  0  -0.271119  -0.154743  0  3.69327  0
N  N52  1  0.82865073  0.30471667  0.34066212  1  0  -0.095739  0  3.550042  0  0  0.006494  0  3.766281  0  0  -0.011225  0  3.790388  0  0  -0.23809  0.018321  0  3.749899  0
N  N53  1  0.67133939  0.19528150  0.84065727  1  0  -0.095504  0  3.54965  0  0  0.006754  0  3.765897  0  0  -0.01097  0  3.790006  0  0  -0.23801  0.018585  0  3.749505  0
N  N54  1  0.17133983  0.69528926  0.65934424  1  0  -0.095683  0  3.549835  0  0  0.006492  0  3.766142  0  0  -0.011223  0  3.790242  0  0  -0.238092  0.018315  0  3.749772  0
N  N55  1  0.32866743  0.80471736  0.15934069  1  0  -0.095698  0  3.549693  0  0  0.006528  0  3.765968  0  0  -0.011189  0  3.790065  0  0  -0.238102  0.018353  0  3.749589  0
