# generated using pymatgen
data_TbH19C21NO8
_symmetry_space_group_name_H-M   'P 1'
_cell_length_a   12.15173111
_cell_length_b   12.15018440
_cell_length_c   18.33150569
_cell_angle_alpha   102.32192858
_cell_angle_beta   107.50623100
_cell_angle_gamma   102.96056741
_symmetry_Int_Tables_number   1
_chemical_formula_structural   TbH19C21NO8
_chemical_formula_sum   'Tb4 H76 C84 N4 O32'
_cell_volume   2397.83652622
_cell_formula_units_Z   4
loop_
 _symmetry_equiv_pos_site_id
 _symmetry_equiv_pos_as_xyz
  1  'x, y, z'
loop_
 _atom_site_type_symbol
 _atom_site_label
 _atom_site_symmetry_multiplicity
 _atom_site_fract_x
 _atom_site_fract_y
 _atom_site_fract_z
 _atom_site_occupancy
 _atom_site_pbe_bader_charge
 _atom_site_pbe_bader_spin_density
 _atom_site_pbe_cm5_charge
 _atom_site_pbe_ddec_charge
 _atom_site_pbe_ddec_spin_density
 _atom_site_pbe_ddec_sum_bond_order
 _atom_site_pbe_magmom
Tb  Tb0  1  0.17222671  0.59803899  0.01184196  1  2.164927  0  1.498586  2.025469  0  2.144268  0
Tb  Tb1  1  0.08616058  0.16048633  0.48825037  1  2.16314  0  1.49864  2.027248  0  2.141714  0
Tb  Tb2  1  0.82777403  0.40196221  0.98815820  1  2.164923  0  1.498578  2.025444  0  2.144256  0
Tb  Tb3  1  0.91383853  0.83951299  0.51174906  1  2.163211  0  1.498655  2.027243  0  2.141723  0
H  H4  1  0.11913349  0.79018906  0.10885212  1  0.639107  0  0.336009  0.426462  0  0.854575  0
H  H5  1  0.18133699  0.01044235  0.39122543  1  0.651665  0  0.336051  0.426484  0  0.854778  0
H  H6  1  0.88086618  0.20981057  0.89114876  1  0.639073  0  0.336017  0.426462  0  0.8546  0
H  H7  1  0.81866250  0.98955821  0.60877437  1  0.651663  0  0.336024  0.426448  0  0.854824  0
H  H8  1  0.01910612  0.67389261  0.10638045  1  0.657146  0  0.302669  0.405168  0  0.930868  0
H  H9  1  0.06755595  0.91279418  0.39364681  1  0.646844  0  0.303003  0.405805  0  0.929915  0
H  H10  1  0.98089371  0.32610656  0.89361970  1  0.657136  0  0.302671  0.405184  0  0.930843  0
H  H11  1  0.93244371  0.08720569  0.60635316  1  0.646842  0  0.302995  0.405781  0  0.929951  0
H  H12  1  0.81491855  0.72084375  0.95468822  1  0.041325  0  0.107383  0.108312  0  0.996972  0
H  H13  1  0.26630002  0.86024714  0.54539505  1  0.045651  0  0.107337  0.108526  0  0.996576  0
H  H14  1  0.18508181  0.27915622  0.04531158  1  0.041327  0  0.107397  0.10834  0  0.99697  0
H  H15  1  0.73369909  0.13975218  0.45460439  1  0.045652  0  0.107329  0.108505  0  0.996584  0
H  H16  1  0.64200552  0.77964853  0.87987206  1  0.040948  0  0.098804  0.094456  0  1.031534  0
H  H17  1  0.40006188  0.76232675  0.62023558  1  0.035861  0  0.098936  0.09473  0  1.031765  0
H  H18  1  0.35799376  0.22035011  0.12012754  1  0.040938  0  0.098792  0.094436  0  1.031555  0
H  H19  1  0.59993886  0.23767446  0.37976459  1  0.035855  0  0.098945  0.094758  0  1.031726  0
H  H20  1  0.56606267  0.71770908  0.72921765  1  0.053864  0  0.098026  0.090547  0  1.034646  0
H  H21  1  0.48866991  0.83703816  0.77090746  1  0.058455  0  0.098052  0.090446  0  1.034295  0
H  H22  1  0.43393786  0.28229019  0.27078231  1  0.053876  0  0.098061  0.090561  0  1.034696  0
H  H23  1  0.51132974  0.16296170  0.22909251  1  0.058455  0  0.098052  0.090449  0  1.034311  0
H  H24  1  0.65972325  0.59600486  0.65736630  1  0.066049  0  0.0968  0.093038  0  1.059092  0
H  H25  1  0.43853655  0.00240074  0.84269328  1  0.051203  0  0.096919  0.092841  0  1.059055  0
H  H26  1  0.34027674  0.40399387  0.34263312  1  0.066051  0  0.096797  0.093039  0  1.059095  0
H  H27  1  0.56146366  0.99759967  0.15730724  1  0.051211  0  0.096935  0.092822  0  1.059061  0
H  H28  1  0.85654610  0.39750214  0.79101395  1  0.107091  0  0.109657  0.117675  0  1.026913  0
H  H29  1  0.10636825  0.06562190  0.70904022  1  0.120905  0  0.109903  0.11805  0  1.0268  0
H  H30  1  0.14345356  0.60249772  0.20898602  1  0.107097  0  0.109662  0.117682  0  1.026901  0
H  H31  1  0.89363158  0.93437728  0.29095993  1  0.120909  0  0.109905  0.118054  0  1.026792  0
H  H32  1  0.93540407  0.26935478  0.70938076  1  0.060354  0  0.100848  0.097812  0  1.033435  0
H  H33  1  0.05990493  0.22621594  0.79063727  1  0.070596  0  0.100907  0.097994  0  1.032937  0
H  H34  1  0.06459559  0.73064509  0.29061921  1  0.060355  0  0.100852  0.097815  0  1.033433  0
H  H35  1  0.94009474  0.77378368  0.20936361  1  0.070602  0  0.10091  0.098007  0  1.032922  0
H  H36  1  0.90687702  0.47698161  0.54555588  1  0.097282  0  0.110416  0.119857  0  0.993948  0
H  H37  1  0.43136629  0.36139330  0.95442534  1  0.138567  0  0.110484  0.119671  0  0.993292  0
H  H38  1  0.09312264  0.52301826  0.45444410  1  0.097287  0  0.110418  0.119865  0  0.993959  0
H  H39  1  0.56863463  0.63860721  0.04557500  1  0.138579  0  0.110477  0.119703  0  0.99327  0
H  H40  1  0.83462813  0.61058044  0.62973499  1  0.090301  0  0.105903  0.106628  0  1.023885  0
H  H41  1  0.48073824  0.20497316  0.87025166  1  0.073081  0  0.105465  0.106408  0  1.023148  0
H  H42  1  0.16537170  0.38941873  0.37026516  1  0.090297  0  0.105904  0.106622  0  1.02386  0
H  H43  1  0.51926179  0.79502795  0.12974869  1  0.073082  0  0.105465  0.106415  0  1.023144  0
H  H44  1  0.50866445  0.79651484  0.94854139  1  0.084059  0  0.10483  0.107394  0  1.013803  0
H  H45  1  0.34821658  0.56028761  0.55160167  1  0.095948  0  0.104979  0.107295  0  1.013754  0
H  H46  1  0.49133612  0.20348705  0.05145860  1  0.083915  0  0.104849  0.107413  0  1.013795  0
H  H47  1  0.65178308  0.43971226  0.44839830  1  0.095948  0  0.104979  0.107295  0  1.013753  0
H  H48  1  0.33678011  0.02444757  0.05177543  1  0.110667  0  0.105214  0.109456  0  1.005557  0
H  H49  1  0.47245643  0.28492502  0.44814851  1  0.120875  0  0.105055  0.108916  0  1.005275  0
H  H50  1  0.66321954  0.97555254  0.94822364  1  0.110654  0  0.105215  0.109482  0  1.005467  0
H  H51  1  0.52754394  0.71507494  0.55185128  1  0.120846  0  0.105056  0.108917  0  1.005276  0
H  H52  1  0.58151461  0.51329633  0.20385064  1  0.068147  0  0.109941  0.122755  0  0.989331  0
H  H53  1  0.80936896  0.37757644  0.29610785  1  0.058886  0  0.109575  0.122307  0  0.988926  0
H  H54  1  0.41848450  0.48670299  0.79614879  1  0.068157  0  0.109941  0.122766  0  0.989318  0
H  H55  1  0.19063070  0.62242343  0.70389213  1  0.058891  0  0.109565  0.122299  0  0.988907  0
H  H56  1  0.57687148  0.52312598  0.30176134  1  0.047245  0  0.1017  0.116664  0  1.005636  0
H  H57  1  0.72129696  0.27491533  0.19822593  1  0.070419  0  0.101385  0.116694  0  1.004536  0
H  H58  1  0.42312888  0.47687399  0.69823845  1  0.047229  0  0.101709  0.116667  0  1.005644  0
H  H59  1  0.27870270  0.72508454  0.80177405  1  0.070427  0  0.10139  0.116707  0  1.004514  0
H  H60  1  0.66613649  0.64690471  0.28559023  1  0.111996  0  0.113075  0.141446  0  0.987421  0
H  H61  1  0.86118224  0.38043350  0.21435502  1  0.126372  0  0.112897  0.140569  0  0.988148  0
H  H62  1  0.33386333  0.35309471  0.71440902  1  0.112  0  0.113074  0.141457  0  0.987405  0
H  H63  1  0.13881599  0.61956642  0.78564442  1  0.126365  0  0.112894  0.140567  0  0.988129  0
H  H64  1  0.42866943  0.53265365  0.11776778  1  0.127506  0  0.129148  0.058531  0  1.017345  0
H  H65  1  0.91486587  0.31090867  0.38226486  1  0.102346  0  0.129118  0.058901  0  1.017416  0
H  H66  1  0.57133093  0.46734632  0.88223202  1  0.127507  0  0.129142  0.058519  0  1.017339  0
H  H67  1  0.08513325  0.68909041  0.61773547  1  0.10235  0  0.129121  0.058904  0  1.017414  0
H  H68  1  0.38179832  0.72169497  0.27827984  1  0.098512  0  0.111473  0.133812  0  0.99833  0
H  H69  1  0.94350570  0.10350085  0.22182387  1  0.089009  0  0.111506  0.133051  0  0.998135  0
H  H70  1  0.61820259  0.27830554  0.72172050  1  0.098508  0  0.111471  0.133814  0  0.99832  0
H  H71  1  0.05649395  0.89649901  0.77817610  1  0.089014  0  0.111503  0.133052  0  0.998098  0
H  H72  1  0.54266866  0.76885797  0.33631229  1  0.119647  0  0.106873  0.137864  0  1.014851  0
H  H73  1  0.93264478  0.20633767  0.16380361  1  0.122823  0  0.106643  0.136735  0  1.016211  0
H  H74  1  0.45733117  0.23114120  0.66368785  1  0.11964  0  0.106862  0.137846  0  1.014879  0
H  H75  1  0.06735488  0.79366220  0.83619637  1  0.12281  0  0.106637  0.136717  0  1.016242  0
H  H76  1  0.44352278  0.64338202  0.34470676  1  0.052575  0  0.101357  0.114925  0  1.000298  0
H  H77  1  0.79876931  0.09870499  0.15531618  1  0.057998  0  0.1009  0.113707  0  0.999985  0
H  H78  1  0.55647704  0.35661740  0.65529249  1  0.052566  0  0.10135  0.114926  0  1.000295  0
H  H79  1  0.20123035  0.90129488  0.84468379  1  0.057996  0  0.100905  0.113719  0  0.999973  0
C  C80  1  0.79381104  0.59206000  0.76394069  1  -0.002979  0  0.002605  0.051441  0  3.959062  0
C  C81  1  0.32804912  0.02990287  0.73609348  1  -0.032006  0  0.002725  0.052359  0  3.956333  0
C  C82  1  0.20618932  0.40793997  0.23605910  1  -0.002978  0  0.002593  0.051391  0  3.959056  0
C  C83  1  0.67195037  0.97009769  0.26390632  1  -0.031993  0  0.002689  0.052274  0  3.956309  0
C  C84  1  0.83753317  0.62891874  0.84854453  1  -0.093002  0  -0.004656  -0.066906  0  3.921355  0
C  C85  1  0.28034678  0.98897506  0.65147564  1  0.007629  0  -0.004528  -0.065853  0  3.918688  0
C  C86  1  0.16246791  0.37108108  0.15145598  1  -0.09326  0  -0.004665  -0.066914  0  3.921367  0
C  C87  1  0.71965413  0.01102545  0.34852470  1  0.007597  0  -0.004576  -0.065888  0  3.918598  0
C  C88  1  0.78137214  0.69487503  0.88935435  1  -0.012308  0  -0.081947  -0.09232  0  3.9771  0
C  C89  1  0.30555823  0.89202558  0.61071522  1  0.048843  0  -0.082096  -0.092436  0  3.975865  0
C  C90  1  0.21862878  0.30512548  0.11064598  1  -0.01202  0  -0.081957  -0.092337  0  3.977065  0
C  C91  1  0.69444268  0.10797493  0.38928512  1  0.048857  0  -0.082076  -0.092385  0  3.97577  0
C  C92  1  0.68433328  0.72786151  0.84724904  1  0.088571  0  -0.093673  -0.092411  0  4.028903  0
C  C93  1  0.38071242  0.83716576  0.65285257  1  -0.137069  0  -0.093941  -0.094145  0  4.030061  0
C  C94  1  0.31566725  0.27213777  0.15275092  1  0.088523  0  -0.093659  -0.092377  0  4.028909  0
C  C95  1  0.61928833  0.16283545  0.34714760  1  -0.137058  0  -0.093924  -0.094138  0  4.029992  0
C  C96  1  0.64209109  0.69359352  0.76352989  1  -0.141919  0  -0.092966  -0.082792  0  4.040108  0
C  C97  1  0.43012301  0.87865525  0.73657063  1  0.049294  0  -0.092855  -0.081103  0  4.038713  0
C  C98  1  0.35790872  0.30640590  0.23646936  1  -0.141936  0  -0.092975  -0.082792  0  4.040215  0
C  C99  1  0.56987735  0.12134471  0.26342917  1  0.049307  0  -0.092858  -0.081159  0  4.038756  0
C  C100  1  0.69577363  0.62590152  0.72272994  1  0.013691  0  -0.087609  -0.121767  0  3.973611  0
C  C101  1  0.40311923  0.97310619  0.77733286  1  -0.066477  0  -0.087423  -0.122742  0  3.972576  0
C  C102  1  0.30422673  0.37409845  0.27726986  1  0.013703  0  -0.087627  -0.12177  0  3.973611  0
C  C103  1  0.59688113  0.02689377  0.22266694  1  -0.066505  0  -0.08741  -0.12264  0  3.972578  0
C  C104  1  0.94766844  0.60642738  0.89858673  1  1.564013  0  0.221709  0.621065  0  4.200341  0
C  C105  1  0.20782438  0.04908992  0.60143151  1  1.565714  0  0.221662  0.620829  0  4.199268  0
C  C106  1  0.05233209  0.39357189  0.10141323  1  1.564009  0  0.2217  0.621021  0  4.200347  0
C  C107  1  0.79217599  0.95091005  0.39856828  1  1.565723  0  0.221686  0.620874  0  4.199229  0
C  C108  1  0.84211742  0.51473105  0.71678789  1  -0.03527  0  -0.000159  0.078025  0  3.985533  0
C  C109  1  0.29785250  0.12542893  0.78320143  1  -0.077745  0  -0.00013  0.077682  0  3.985178  0
C  C110  1  0.15788224  0.48526882  0.28321208  1  -0.035274  0  -0.00017  0.078054  0  3.985501  0
C  C111  1  0.70214716  0.87457094  0.21679855  1  -0.077735  0  -0.000135  0.077684  0  3.985201  0
C  C112  1  0.87028335  0.41747821  0.73860889  1  -0.018057  0  -0.083836  -0.122356  0  3.945026  0
C  C113  1  0.17879035  0.13179214  0.76139750  1  -0.035239  0  -0.084056  -0.122832  0  3.943951  0
C  C114  1  0.12971648  0.58252097  0.26139126  1  -0.018054  0  -0.083838  -0.122351  0  3.944979  0
C  C115  1  0.82120930  0.86820773  0.23860247  1  -0.035141  0  -0.084055  -0.122822  0  3.943946  0
C  C116  1  0.91249838  0.34400890  0.69212237  1  -0.02045  0  -0.082198  -0.081916  0  3.97531  0
C  C117  1  0.15181703  0.22050725  0.80788011  1  -0.070463  0  -0.082311  -0.081583  0  3.973287  0
C  C118  1  0.08750128  0.65599097  0.30787760  1  -0.020444  0  -0.082218  -0.08197  0  3.975293  0
C  C119  1  0.84818263  0.77949262  0.19211986  1  -0.070553  0  -0.082317  -0.081616  0  3.973281  0
C  C120  1  0.92611737  0.36469363  0.62253720  1  -0.061035  0  -0.022583  -0.044177  0  3.999887  0
C  C121  1  0.24208749  0.30371856  0.87748020  1  -0.026418  0  -0.02298  -0.045124  0  3.998593  0
C  C122  1  0.07388229  0.63530624  0.37746278  1  -0.061039  0  -0.022547  -0.044075  0  3.999834  0
C  C123  1  0.75791234  0.69628061  0.12251995  1  -0.026418  0  -0.022956  -0.045091  0  3.998563  0
C  C124  1  0.89592049  0.46031727  0.59950885  1  -0.028275  0  -0.081499  -0.09084  0  3.968569  0
C  C125  1  0.36070877  0.29651772  0.90047141  1  -0.091343  0  -0.081883  -0.090728  0  3.967901  0
C  C126  1  0.10407917  0.53968260  0.40049112  1  -0.028275  0  -0.081499  -0.090888  0  3.968623  0
C  C127  1  0.63929090  0.70348191  0.09952946  1  -0.091349  0  -0.081865  -0.090732  0  3.967913  0
C  C128  1  0.85484082  0.53445893  0.64644811  1  -0.071624  0  -0.088587  -0.133061  0  3.971594  0
C  C129  1  0.38791601  0.20850504  0.85352078  1  0.017906  0  -0.087861  -0.132382  0  3.971595  0
C  C130  1  0.14515884  0.46554094  0.35355186  1  -0.071614  0  -0.088581  -0.133055  0  3.971568  0
C  C131  1  0.61208381  0.79149413  0.14647937  1  0.017895  0  -0.08787  -0.132415  0  3.971654  0
C  C132  1  0.97390854  0.28774013  0.57400167  1  1.52413  0  0.19701  0.569842  0  4.224514  0
C  C133  1  0.21363436  0.39998829  0.92604863  1  1.523249  0  0.196671  0.568703  0  4.224961  0
C  C134  1  0.02609057  0.71225919  0.42599776  1  1.524047  0  0.19698  0.56978  0  4.224558  0
C  C135  1  0.78636476  0.60001079  0.07395170  1  1.523243  0  0.196653  0.568665  0  4.225033  0
C  C136  1  0.41423154  0.90126906  0.99949809  1  -0.062197  0  -0.011757  -0.02261  0  3.962021  0
C  C137  1  0.40172929  0.41476915  0.50050198  1  -0.040683  0  -0.011984  -0.023423  0  3.961051  0
C  C138  1  0.58577099  0.09873357  0.00050208  1  -0.062058  0  -0.011731  -0.022636  0  3.962032  0
C  C139  1  0.59827179  0.58523067  0.49949854  1  -0.040608  0  -0.011983  -0.023476  0  3.961123  0
C  C140  1  0.50603009  0.88629662  0.97048381  1  0.002303  0  -0.082635  -0.104479  0  3.981763  0
C  C141  1  0.41592601  0.53561884  0.52957783  1  -0.016903  0  -0.082164  -0.103463  0  3.979369  0
C  C142  1  0.49397135  0.11370468  0.02951618  1  0.002287  0  -0.08259  -0.104449  0  3.981639  0
C  C143  1  0.58407382  0.46438034  0.47042232  1  -0.017028  0  -0.082158  -0.103445  0  3.9794  0
C  C144  1  0.40852612  0.01542304  0.02897985  1  -0.092712  0  -0.081213  -0.097791  0  3.972868  0
C  C145  1  0.48629982  0.37950408  0.47096204  1  -0.11646  0  -0.081565  -0.097705  0  3.972069  0
C  C146  1  0.59147462  0.98457817  0.97102031  1  -0.092706  0  -0.081155  -0.097774  0  3.972812  0
C  C147  1  0.51369984  0.62049579  0.52903794  1  -0.116527  0  -0.081552  -0.097671  0  3.972063  0
C  C148  1  0.32592501  0.79570772  0.00200496  1  1.538581  0  0.187308  0.566477  0  4.245341  0
C  C149  1  0.29367010  0.32397497  0.49804397  1  1.545356  0  0.185955  0.566048  0  4.246854  0
C  C150  1  0.67407590  0.20429279  0.99799538  1  1.538579  0  0.187289  0.566498  0  4.245451  0
C  C151  1  0.70632939  0.67602559  0.50195583  1  1.545329  0  0.185957  0.566072  0  4.246832  0
C  C152  1  0.58172088  0.57217964  0.25835823  1  0.259432  0  -0.128669  -0.278286  0  3.891328  0
C  C153  1  0.81374550  0.32324128  0.24162564  1  0.219002  0  -0.127764  -0.276953  0  3.889673  0
C  C154  1  0.41828018  0.42782042  0.74164138  1  0.259433  0  -0.128696  -0.278342  0  3.891377  0
C  C155  1  0.18625328  0.67675918  0.75837435  1  0.219008  0  -0.127761  -0.276958  0  3.889657  0
C  C156  1  0.40697997  0.59258408  0.16165308  1  1.359014  0  0.181799  0.310099  0  4.110434  0
C  C157  1  0.93094750  0.24535728  0.33838570  1  1.384302  0  0.182361  0.310033  0  4.108354  0
C  C158  1  0.59302094  0.40741643  0.83834726  1  1.359005  0  0.181814  0.310113  0  4.110532  0
C  C159  1  0.06905199  0.75464328  0.66161410  1  1.384309  0  0.182299  0.309952  0  4.108397  0
C  C160  1  0.46015894  0.69284523  0.30333646  1  0.210025  0  -0.13491  -0.27004  0  3.849302  0
C  C161  1  0.88957781  0.15677494  0.19672486  1  0.215111  0  -0.134344  -0.266857  0  3.84794  0
C  C162  1  0.53984072  0.30715464  0.69666352  1  0.210046  0  -0.134907  -0.270039  0  3.849279  0
C  C163  1  0.11042257  0.84322478  0.80327583  1  0.215112  0  -0.134329  -0.266842  0  3.847881  0
N  N164  1  0.47769614  0.61597781  0.23785058  1  -1.216772  0  -0.273421  0.040109  0  3.719196  0
N  N165  1  0.87809370  0.23978385  0.26218007  1  -1.2076  0  -0.2733  0.040147  0  3.717798  0
N  N166  1  0.52230390  0.38402330  0.76214977  1  -1.216776  0  -0.273417  0.040121  0  3.719323  0
N  N167  1  0.12190596  0.76021602  0.73781990  1  -1.207602  0  -0.273305  0.040145  0  3.717787  0
O  O168  1  0.05044930  0.64988407  0.89591951  1  -1.167889  0  -0.340094  -0.596887  0  2.226258  0
O  O169  1  0.25392388  0.15458110  0.60413897  1  -1.169601  0  -0.340269  -0.597909  0  2.227559  0
O  O170  1  0.94955178  0.35011575  0.10408101  1  -1.167873  0  -0.340071  -0.59683  0  2.226247  0
O  O171  1  0.74607578  0.84541877  0.39586101  1  -1.169614  0  -0.340273  -0.597918  0  2.227525  0
O  O172  1  0.93748993  0.54836424  0.94854612  1  -1.213213  0  -0.432706  -0.740066  0  2.426085  0
O  O173  1  0.09982504  0.98896108  0.55144128  1  -1.21754  0  -0.432484  -0.740214  0  2.425618  0
O  O174  1  0.06250973  0.45163563  0.05145385  1  -1.21324  0  -0.432715  -0.740074  0  2.426048  0
O  O175  1  0.90017462  0.01103879  0.44855869  1  -1.217435  0  -0.432482  -0.740231  0  2.425635  0
O  O176  1  0.01666617  0.20955652  0.60053543  1  -1.192735  0  -0.373299  -0.642301  0  2.259092  0
O  O177  1  0.10893766  0.41622667  0.89953872  1  -1.189194  0  -0.373848  -0.642077  0  2.259836  0
O  O178  1  0.98333436  0.79044275  0.39946454  1  -1.192652  0  -0.373293  -0.642282  0  2.259091  0
O  O179  1  0.89106200  0.58377320  0.10046125  1  -1.18919  0  -0.373843  -0.642063  0  2.259855  0
O  O180  1  0.97449580  0.29939527  0.50690798  1  -1.172906  0  -0.370789  -0.617532  0  2.274699  0
O  O181  1  0.29237117  0.46764234  0.99314909  1  -1.177364  0  -0.369704  -0.615552  0  2.274602  0
O  O182  1  0.02550386  0.70060460  0.49309200  1  -1.172893  0  -0.370767  -0.617484  0  2.274712  0
O  O183  1  0.70762780  0.53235719  0.00685196  1  -1.177372  0  -0.369712  -0.615546  0  2.274626  0
O  O184  1  0.32253680  0.69196301  0.96570486  1  -1.169388  0  -0.389097  -0.625969  0  2.170696  0
O  O185  1  0.22615875  0.35696888  0.53424630  1  -1.171675  0  -0.388576  -0.625433  0  2.170617  0
O  O186  1  0.67746482  0.30803759  0.03429529  1  -1.169388  0  -0.389107  -0.625995  0  2.170729  0
O  O187  1  0.77384074  0.64303168  0.46575350  1  -1.171663  0  -0.388565  -0.625429  0  2.170597  0
O  O188  1  0.25777817  0.81079242  0.04210806  1  -1.17454  0  -0.392318  -0.640943  0  2.168737  0
O  O189  1  0.26872896  0.21564194  0.45809716  1  -1.179818  0  -0.391162  -0.640586  0  2.167853  0
O  O190  1  0.74222312  0.18920933  0.95789265  1  -1.174553  0  -0.392299  -0.640926  0  2.168733  0
O  O191  1  0.73127125  0.78435848  0.54190336  1  -1.179827  0  -0.39117  -0.6406  0  2.167854  0
O  O192  1  0.32084654  0.63441363  0.13916195  1  -1.182166  0  -0.38451  -0.570255  0  2.372839  0
O  O193  1  0.99535399  0.18177569  0.36090671  1  -1.181928  0  -0.38511  -0.570853  0  2.370209  0
O  O194  1  0.67915312  0.36558624  0.86083802  1  -1.182173  0  -0.384501  -0.570233  0  2.372847  0
O  O195  1  0.00464512  0.81822364  0.63909272  1  -1.181943  0  -0.385065  -0.57079  0  2.370222  0
O  O196  1  0.10222693  0.70706542  0.10605908  1  -1.26869  0  -0.624175  -0.830447  0  2.065311  0
O  O197  1  0.10102562  0.99627425  0.39403383  1  -1.271842  0  -0.624705  -0.831448  0  2.064657  0
O  O198  1  0.89777290  0.29293376  0.89394107  1  -1.268654  0  -0.624189  -0.830466  0  2.065315  0
O  O199  1  0.89897387  0.00372631  0.60596597  1  -1.271897  0  -0.624678  -0.831393  0  2.064712  0
