# generated using pymatgen
data_CuH7C12N3O4
_symmetry_space_group_name_H-M   'P 1'
_cell_length_a   4.80614594
_cell_length_b   10.63364634
_cell_length_c   31.76440926
_cell_angle_alpha   89.99866299
_cell_angle_beta   90.00016204
_cell_angle_gamma   95.11103092
_symmetry_Int_Tables_number   1
_chemical_formula_structural   CuH7C12N3O4
_chemical_formula_sum   'Cu4 H28 C48 N12 O16'
_cell_volume   1616.92442996
_cell_formula_units_Z   4
loop_
 _symmetry_equiv_pos_site_id
 _symmetry_equiv_pos_as_xyz
  1  'x, y, z'
loop_
 _atom_site_type_symbol
 _atom_site_label
 _atom_site_symmetry_multiplicity
 _atom_site_fract_x
 _atom_site_fract_y
 _atom_site_fract_z
 _atom_site_occupancy
 _atom_site_pbe_bader_charge
 _atom_site_pbe_bader_spin_density
 _atom_site_pbe_cm5_charge
 _atom_site_pbe_ddec_charge
 _atom_site_pbe_ddec_spin_density
 _atom_site_pbe_ddec_sum_bond_order
 _atom_site_pbe_magmom
Cu  Cu0  1  0.50765640  0.39037491  0.80640336  1  1.073566  0.560172  0.751594  0.770672  0.721614  2.293385  0.559
Cu  Cu1  1  0.49234964  0.10961443  0.30640240  1  1.073679  0.560175  0.751549  0.770606  0.721616  2.29347  0.559
Cu  Cu2  1  0.49235824  0.60962207  0.19359683  1  1.073466  0.560172  0.751509  0.770578  0.721611  2.293396  0.559
Cu  Cu3  1  0.50765940  0.89038541  0.69359810  1  1.073645  0.560181  0.751608  0.770704  0.721624  2.293314  0.559
H  H4  1  0.65609276  0.47198443  0.71387563  1  0.213062  0.002195  0.127307  0.124321  0.001097  1.030016  0.002
H  H5  1  0.34393010  0.02801977  0.21387364  1  0.212965  0.002195  0.127337  0.12424  0.001097  1.030067  0.002
H  H6  1  0.34391067  0.52801828  0.28612519  1  0.212885  0.002195  0.127304  0.124242  0.001096  1.030027  0.002
H  H7  1  0.65607811  0.97197630  0.78612875  1  0.213012  0.002194  0.127304  0.124287  0.001096  1.030098  0.002
H  H8  1  0.44955492  0.38840283  0.64510112  1  0.094937  0.001407  0.122978  0.092143  0.000749  0.95789  0.001
H  H9  1  0.55047778  0.11161176  0.14510113  1  0.095075  0.001406  0.122983  0.092218  0.000749  0.957922  0.001
H  H10  1  0.55043479  0.61160372  0.35489970  1  0.094918  0.001407  0.122966  0.092129  0.000749  0.957943  0.001
H  H11  1  0.44952938  0.88837958  0.85490032  1  0.095015  0.001406  0.122981  0.092205  0.000749  0.958025  0.001
H  H12  1  0.78166685  0.59691819  0.00430115  1  0.062614  0.000134  0.10346  0.099912  9.7e-05  1.009736  0.0
H  H13  1  0.21829836  0.90307812  0.50430214  1  0.062796  0.000134  0.103465  0.099938  9.7e-05  1.009695  0.0
H  H14  1  0.21831788  0.40309406  0.99569810  1  0.06286  0.000134  0.103502  0.099857  9.7e-05  1.009693  0.0
H  H15  1  0.78167908  0.09691054  0.49569585  1  0.062649  0.000134  0.103486  0.099884  9.7e-05  1.009837  0.0
H  H16  1  0.38172211  0.58242712  0.86864991  1  0.165478  0.001982  0.11683  0.086855  0.000947  1.052683  0.001
H  H17  1  0.61824698  0.91754954  0.36865259  1  0.16572  0.001983  0.116765  0.086707  0.000947  1.05279  0.001
H  H18  1  0.61830044  0.41757738  0.13134524  1  0.165751  0.001984  0.116828  0.086825  0.000948  1.052646  0.001
H  H19  1  0.38176726  0.08245501  0.63134697  1  0.165839  0.001982  0.11675  0.086705  0.000947  1.052768  0.001
H  H20  1  0.53627026  0.64095668  0.94164872  1  0.071082  0.001078  0.109476  0.11718  0.000562  0.985502  0.0
H  H21  1  0.46368752  0.85903104  0.44165239  1  0.070789  0.001078  0.109464  0.117179  0.000563  0.985506  0.0
H  H22  1  0.46373774  0.35905735  0.05834548  1  0.071306  0.001078  0.109403  0.117009  0.000563  0.985648  0.0
H  H23  1  0.53630343  0.14096228  0.55834559  1  0.071063  0.001078  0.109459  0.117143  0.000562  0.985665  0.0
H  H24  1  0.83825674  0.26877609  0.86877847  1  0.147553  0.001841  0.130719  0.112294  0.000742  0.970675  0.001
H  H25  1  0.16178086  0.23122106  0.36877288  1  0.1484  0.001842  0.13068  0.112295  0.000743  0.970693  0.001
H  H26  1  0.16173692  0.73122005  0.13122644  1  0.148587  0.001842  0.130699  0.112263  0.000744  0.970756  0.001
H  H27  1  0.83821093  0.76877603  0.63122605  1  0.147607  0.001843  0.130672  0.112285  0.000743  0.97066  0.001
H  H28  1  0.01020892  0.31288011  0.94143325  1  0.076611  0.001135  0.109682  0.117823  0.000595  0.991618  0.0
H  H29  1  0.98978743  0.18712448  0.44142665  1  0.076756  0.001135  0.109632  0.117677  0.000595  0.991612  0.0
H  H30  1  0.98974920  0.68712471  0.05857292  1  0.076747  0.001135  0.109641  0.117771  0.000595  0.991598  0.0
H  H31  1  0.01018148  0.81286327  0.55857071  1  0.076664  0.001135  0.109619  0.117694  0.000595  0.991626  0.0
C  C32  1  0.89241187  0.52281324  0.98963823  1  0.028349  -0.000775  -0.083513  -0.126933  -0.000968  3.98284  0.0
C  C33  1  0.10757150  0.97718424  0.48963539  1  -0.156611  -0.000801  -0.083582  -0.127083  -0.000969  3.98262  0.0
C  C34  1  0.10756933  0.47720186  0.01036416  1  -0.156745  -0.0008  -0.083709  -0.127007  -0.000968  3.983021  0.0
C  C35  1  0.89240448  0.02280726  0.51036102  1  0.028472  -0.000775  -0.083627  -0.126927  -0.000969  3.98274  0.0
C  C36  1  0.20284997  0.16239307  0.79020616  1  1.622355  -0.001069  0.201057  0.540575  -0.00093  4.250517  -0.001
C  C37  1  0.79717819  0.33761242  0.29020612  1  1.622404  -0.001066  0.201301  0.540939  -0.000929  4.250336  -0.001
C  C38  1  0.79717507  0.83760386  0.20979529  1  1.621407  -0.001068  0.201037  0.540377  -0.000931  4.250951  -0.001
C  C39  1  0.20285435  0.66240905  0.70979407  1  1.621057  -0.001069  0.200985  0.540203  -0.000931  4.250736  -0.001
C  C40  1  0.25641720  0.22432535  0.74786892  1  0.518091  0.001094  0.121012  0.053052  0.000121  3.893703  0.0
C  C41  1  0.74359262  0.27567466  0.24786871  1  0.518078  0.001093  0.120936  0.052959  0.00012  3.893744  0.0
C  C42  1  0.74359350  0.77567260  0.25213032  1  0.518289  0.001092  0.12097  0.053039  0.000119  3.893832  0.0
C  C43  1  0.25641600  0.72432329  0.75213022  1  0.518166  0.001094  0.120916  0.053135  0.000121  3.893928  0.0
C  C44  1  0.50702525  0.38856567  0.71247592  1  0.517267  0.001805  0.06635  0.075157  0.001249  3.849067  0.001
C  C45  1  0.49299387  0.11144053  0.21247557  1  0.517394  0.001806  0.06631  0.075225  0.001248  3.849571  0.001
C  C46  1  0.49297568  0.61143516  0.28752553  1  0.517562  0.001805  0.066278  0.075204  0.001249  3.849192  0.001
C  C47  1  0.50701933  0.88855929  0.78752808  1  0.51716  0.001807  0.066319  0.075257  0.001249  3.849464  0.001
C  C48  1  0.39345385  0.34035797  0.67467401  1  0.526191  0.005917  0.06705  0.083108  0.00408  3.93564  0.005
C  C49  1  0.60656564  0.15965180  0.17467305  1  0.526258  0.005917  0.067033  0.082928  0.004081  3.936049  0.005
C  C50  1  0.60653898  0.65964384  0.32532712  1  0.526009  0.005917  0.067092  0.083109  0.00408  3.935759  0.005
C  C51  1  0.39344257  0.84034427  0.82532777  1  0.526301  0.005915  0.066956  0.082796  0.004079  3.936306  0.005
C  C52  1  0.14677410  0.17815123  0.70953277  1  0.563526  0.010535  0.136582  0.097947  0.007577  3.900014  0.008
C  C53  1  0.85323901  0.32185615  0.20953383  1  0.563609  0.010533  0.136583  0.097797  0.007576  3.900274  0.008
C  C54  1  0.85323099  0.82184958  0.29046742  1  0.563343  0.010533  0.136594  0.097923  0.007576  3.899934  0.008
C  C55  1  0.14676816  0.67814465  0.79046635  1  0.56374  0.010535  0.136626  0.097819  0.007578  3.900123  0.008
C  C56  1  0.96210011  0.05607043  0.70516667  1  1.606176  -0.000354  0.210989  0.567833  -0.001035  4.220151  -0.003
C  C57  1  0.03791260  0.44393537  0.20516657  1  1.606225  -0.000353  0.211013  0.567769  -0.001034  4.220315  -0.003
C  C58  1  0.03790706  0.94393037  0.29483478  1  1.605904  -0.000354  0.21096  0.567841  -0.001035  4.22018  -0.003
C  C59  1  0.96209290  0.55605788  0.79483267  1  1.605972  -0.000353  0.211034  0.567737  -0.001034  4.220444  -0.003
C  C60  1  0.77534716  0.34958195  0.88637645  1  0.466989  -0.000978  0.057739  0.109966  -0.001435  3.912119  -0.001
C  C61  1  0.22467685  0.15040931  0.38637185  1  0.46618  -0.00098  0.057819  0.109891  -0.001437  3.912346  -0.001
C  C62  1  0.22465544  0.65041698  0.11362721  1  0.465777  -0.000978  0.057746  0.109927  -0.001436  3.912456  -0.001
C  C63  1  0.77531473  0.84958683  0.61362740  1  0.467111  -0.000981  0.057836  0.109991  -0.001438  3.912055  -0.001
C  C64  1  0.51992202  0.52528739  0.88618238  1  0.493078  -0.001602  0.0529  0.106958  -0.002062  3.91654  -0.001
C  C65  1  0.48006342  0.97469648  0.38618263  1  0.492939  -0.001601  0.053165  0.107431  -0.002061  3.916618  -0.001
C  C66  1  0.48008910  0.47472190  0.11381592  1  0.493112  -0.001602  0.052917  0.107046  -0.002062  3.91677  -0.001
C  C67  1  0.51994000  0.02530623  0.61381598  1  0.492721  -0.0016  0.053203  0.107489  -0.00206  3.916585  -0.001
C  C68  1  0.60786418  0.55730202  0.92673395  1  -0.037575  0.004759  -0.082641  -0.176306  0.003161  3.931605  0.004
C  C69  1  0.39211071  0.94268853  0.42673409  1  -0.037183  0.00476  -0.082593  -0.176357  0.003162  3.93137  0.004
C  C70  1  0.39213177  0.44271395  0.07326403  1  -0.03776  0.004761  -0.082502  -0.176149  0.003162  3.931624  0.004
C  C71  1  0.60787484  0.05730859  0.57326421  1  -0.037555  0.00476  -0.08263  -0.176396  0.003162  3.931698  0.004
C  C72  1  0.87222674  0.37609745  0.92681786  1  0.045344  0.004759  -0.083098  -0.177981  0.003228  3.929192  0.004
C  C73  1  0.12777736  0.12389584  0.42681467  1  0.04549  0.004759  -0.08301  -0.177655  0.003228  3.92903  0.004
C  C74  1  0.12775985  0.62390440  0.07318610  1  0.045256  0.004759  -0.08304  -0.177828  0.003229  3.929036  0.004
C  C75  1  0.87220299  0.87609659  0.57318269  1  0.045445  0.004759  -0.083  -0.177734  0.003229  3.928994  0.004
C  C76  1  0.79228249  0.48366785  0.94797159  1  -0.074103  -0.003054  0.00183  0.135392  -0.003468  4.050288  -0.002
C  C77  1  0.20769180  0.01633073  0.44797119  1  -0.074303  -0.003053  0.001794  0.135389  -0.003467  4.050055  -0.002
C  C78  1  0.20769538  0.51634160  0.05202702  1  -0.073945  -0.003052  0.001825  0.135414  -0.003466  4.050168  -0.002
C  C79  1  0.79228647  0.98366170  0.55202680  1  -0.074104  -0.003054  0.001783  0.135336  -0.003468  4.050251  -0.002
N  N80  1  0.43422099  0.32959077  0.74843492  1  -1.209153  0.081759  -0.331328  -0.200954  0.054771  3.632812  0.071
N  N81  1  0.56578884  0.17040920  0.24843322  1  -1.209263  0.081754  -0.331297  -0.200872  0.054769  3.633136  0.071
N  N82  1  0.56578556  0.67040720  0.25156558  1  -1.209214  0.081756  -0.331257  -0.200905  0.05477  3.632759  0.071
N  N83  1  0.43421958  0.82958781  0.75156728  1  -1.209095  0.081758  -0.331251  -0.200942  0.054771  3.632776  0.071
N  N84  1  0.21487358  0.23684301  0.67289187  1  -1.182122  0.001097  -0.30071  -0.258055  -0.000414  3.297961  0.0
N  N85  1  0.78514176  0.26316691  0.17289272  1  -1.182254  0.001096  -0.300655  -0.257889  -0.000414  3.298122  0.0
N  N86  1  0.78512341  0.76315878  0.32710927  1  -1.182021  0.001095  -0.300693  -0.258015  -0.000415  3.297869  0.0
N  N87  1  0.21486083  0.73683203  0.82710873  1  -1.182331  0.001096  -0.30062  -0.257812  -0.000414  3.298084  0.0
N  N88  1  0.60369800  0.42351450  0.86636565  1  -1.197513  0.075612  -0.342317  -0.202162  0.050852  3.589403  0.066
N  N89  1  0.39630364  0.07647071  0.36636615  1  -1.19783  0.075624  -0.342597  -0.202517  0.050859  3.589975  0.066
N  N90  1  0.39630688  0.57648537  0.13363139  1  -1.197572  0.075624  -0.342365  -0.202225  0.050859  3.589806  0.066
N  N91  1  0.60369917  0.92352917  0.63363435  1  -1.197758  0.075623  -0.342565  -0.202528  0.050859  3.589754  0.066
O  O92  1  0.33303530  0.21972321  0.82146234  1  -1.095436  0.120488  -0.338544  -0.548584  0.076697  2.27777  0.109
O  O93  1  0.66698627  0.28026029  0.32146424  1  -1.095244  0.120526  -0.338583  -0.548634  0.076722  2.277407  0.109
O  O94  1  0.66700075  0.78026705  0.17853690  1  -1.094928  0.120513  -0.338493  -0.548444  0.076714  2.277784  0.109
O  O95  1  0.33301529  0.71974337  0.67853721  1  -1.0952  0.120474  -0.338461  -0.54826  0.07669  2.278002  0.109
O  O96  1  0.04964077  0.06216544  0.79296777  1  -1.15352  0.029696  -0.301103  -0.502439  0.018586  2.155522  0.025
O  O97  1  0.95035036  0.43782303  0.29296861  1  -1.15389  0.029677  -0.301215  -0.502604  0.018575  2.156224  0.025
O  O98  1  0.95038136  0.93782773  0.20703148  1  -1.152959  0.029694  -0.30108  -0.502322  0.018585  2.155756  0.025
O  O99  1  0.04962375  0.56216943  0.70703032  1  -1.152723  0.029702  -0.301106  -0.502421  0.01859  2.155185  0.025
O  O100  1  0.69895000  0.06094580  0.71003522  1  -1.089221  0.09742  -0.311041  -0.520892  0.062821  2.316494  0.088
O  O101  1  0.30105874  0.43906062  0.21003313  1  -1.089441  0.097396  -0.311041  -0.520771  0.062807  2.31656  0.088
O  O102  1  0.30105842  0.93905121  0.28996528  1  -1.089039  0.097401  -0.311024  -0.520855  0.06281  2.316342  0.088
O  O103  1  0.69893055  0.56094404  0.78996769  1  -1.089081  0.097432  -0.311035  -0.520747  0.062829  2.316291  0.088
O  O104  1  0.07405058  0.95950124  0.69369528  1  -1.161232  0.002948  -0.313213  -0.576872  0.000756  2.343827  0.005
O  O105  1  0.92596249  0.54050437  0.19369357  1  -1.161335  0.002946  -0.313228  -0.576842  0.000755  2.343802  0.005
O  O106  1  0.92595367  0.04049580  0.30630616  1  -1.161213  0.002947  -0.31318  -0.576831  0.000756  2.343976  0.005
O  O107  1  0.07403553  0.45949270  0.80630221  1  -1.161368  0.002947  -0.313241  -0.576847  0.000755  2.344174  0.005
