# generated using pymatgen
data_FeH10C10(NO)4
_symmetry_space_group_name_H-M   'P 1'
_cell_length_a   5.05230233
_cell_length_b   8.25275960
_cell_length_c   12.18315108
_cell_angle_alpha   92.61802386
_cell_angle_beta   90.00861238
_cell_angle_gamma   89.99392088
_symmetry_Int_Tables_number   1
_chemical_formula_structural   FeH10C10(NO)4
_chemical_formula_sum   'Fe2 H20 C20 N8 O8'
_cell_volume   507.45158856
_cell_formula_units_Z   2
loop_
 _symmetry_equiv_pos_site_id
 _symmetry_equiv_pos_as_xyz
  1  'x, y, z'
loop_
 _atom_site_type_symbol
 _atom_site_label
 _atom_site_symmetry_multiplicity
 _atom_site_fract_x
 _atom_site_fract_y
 _atom_site_fract_z
 _atom_site_occupancy
 _atom_site_hle17_ddec_charge
 _atom_site_hle17_ddec_spin_density
 _atom_site_hle17_ddec_sum_bond_order
 _atom_site_hle17_magmom
 _atom_site_hse06_10hf_ddec_charge
 _atom_site_hse06_10hf_ddec_spin_density
 _atom_site_hse06_10hf_ddec_sum_bond_order
 _atom_site_hse06_10hf_magmom
 _atom_site_hse06_ddec_charge
 _atom_site_hse06_ddec_spin_density
 _atom_site_hse06_ddec_sum_bond_order
 _atom_site_hse06_magmom
 _atom_site_pbe_cm5_charge
 _atom_site_pbe_ddec_charge
 _atom_site_pbe_ddec_spin_density
 _atom_site_pbe_ddec_sum_bond_order
 _atom_site_pbe_magmom
Fe  Fe0  1  0.49999797  0.50000471  0.50000128  1  1.050896  3.876659  1.977355  3.653  0.927256  3.857161  2.443918  3.647  0.992816  3.885158  2.373714  3.705  0.671679  0.878038  3.831683  2.495793  3.593
Fe  Fe1  1  0.00000432  0.99999616  0.99999840  1  1.05116  3.876702  1.97715  3.653  0.927476  3.857241  2.443809  3.647  0.993007  3.885202  2.373589  3.705  0.671776  0.878263  3.831795  2.495684  3.593
H  H2  1  0.34226341  0.82291628  0.69341444  1  0.126009  -0.000506  0.930417  0.0  0.140113  -0.000286  0.987923  0.0  0.142533  -0.000251  0.986643  0.0  0.121798  0.138114  -0.000471  0.989224  0.0
H  H3  1  0.84254351  0.67720989  0.80659368  1  0.125967  -0.000504  0.930471  0.0  0.140078  -0.000286  0.988116  0.0  0.14249  -0.000251  0.986839  0.0  0.12173  0.138079  -0.000471  0.989422  0.0
H  H4  1  0.65774837  0.17708335  0.30658048  1  0.125986  -0.000505  0.930418  0.0  0.140081  -0.000285  0.987942  0.0  0.142504  -0.000251  0.986658  0.0  0.121788  0.138075  -0.000471  0.989251  0.0
H  H5  1  0.15745046  0.32278620  0.19341100  1  0.125966  -0.000507  0.930494  0.0  0.140121  -0.000286  0.988087  0.0  0.142535  -0.000251  0.986806  0.0  0.121748  0.138118  -0.000471  0.989393  0.0
H  H6  1  0.14109250  0.98390182  0.74815385  1  0.114034  -7.2e-05  0.958953  0.0  0.118996  0.000134  1.035325  0.0  0.121463  4.1e-05  1.034066  0.0  0.117213  0.11729  0.000229  1.036063  0.0
H  H7  1  0.64115142  0.51632537  0.75186872  1  0.113665  -7.1e-05  0.958904  0.0  0.118926  0.000134  1.035211  0.0  0.12135  4.1e-05  1.033975  0.0  0.117217  0.117221  0.00023  1.035939  0.0
H  H8  1  0.85891532  0.01609540  0.25184265  1  0.113999  -7e-05  0.958954  0.0  0.118966  0.000134  1.035327  0.0  0.121438  4.1e-05  1.034063  0.0  0.117203  0.117263  0.000229  1.036057  0.0
H  H9  1  0.35884452  0.48367434  0.24813360  1  0.113667  -7e-05  0.958951  0.0  0.118923  0.000134  1.035261  0.0  0.121351  4.1e-05  1.034019  0.0  0.117223  0.117215  0.000229  1.03599  0.0
H  H10  1  0.80178584  0.90656634  0.60676223  1  0.120767  -7.7e-05  0.973851  0.0  0.13118  -3.9e-05  1.032994  0.0  0.133906  -8.7e-05  1.031886  0.0  0.122318  0.128481  0.000132  1.034846  0.0
H  H11  1  0.30204610  0.59333458  0.89322084  1  0.120794  -7.6e-05  0.974463  0.0  0.131173  -3.9e-05  1.033541  0.0  0.133878  -8.6e-05  1.032441  0.0  0.122452  0.128502  0.000132  1.035394  0.0
H  H12  1  0.19823187  0.09344302  0.39323541  1  0.120897  -7.9e-05  0.973934  0.0  0.131329  -4e-05  1.032994  0.0  0.134063  -8.7e-05  1.031884  0.0  0.122393  0.128634  0.000132  1.034848  0.0
H  H13  1  0.69793995  0.40666394  0.10678390  1  0.120756  -8e-05  0.974547  0.0  0.131117  -3.9e-05  1.03364  0.0  0.133824  -8.6e-05  1.032539  0.0  0.122426  0.128442  0.000132  1.035496  0.0
H  H14  1  0.93313398  0.19674116  0.50478607  1  0.105274  -0.00027  1.001862  0.0  0.111685  -0.000176  1.0665  0.0  0.114949  -0.000248  1.064686  0.0  0.11335  0.109236  -5e-05  1.068131  0.0
H  H15  1  0.43333889  0.30313298  0.99515198  1  0.105429  -0.000269  1.002071  0.0  0.111666  -0.000177  1.06685  0.0  0.115001  -0.000248  1.064942  0.0  0.113387  0.109182  -5e-05  1.068526  0.0
H  H16  1  0.06686790  0.80327547  0.49521094  1  0.105211  -0.000269  1.002028  0.0  0.111594  -0.000176  1.066698  0.0  0.114888  -0.000248  1.064848  0.0  0.113295  0.109159  -5e-05  1.068306  0.0
H  H17  1  0.56665310  0.69686430  0.00485027  1  0.10543  -0.000269  1.002085  0.0  0.111645  -0.000177  1.066901  0.0  0.114959  -0.000248  1.06502  0.0  0.113375  0.10916  -5e-05  1.068581  0.0
H  H18  1  0.23008360  0.26588856  0.68552202  1  0.090126  -0.000271  0.984954  0.0  0.093866  -0.000162  1.05796  0.0  0.095997  -0.000164  1.056143  0.0  0.129908  0.091964  -0.000164  1.059913  0.0
H  H19  1  0.73002011  0.23424506  0.81448472  1  0.090163  -0.000272  0.985148  0.0  0.094026  -0.000162  1.058114  0.0  0.096161  -0.000165  1.056288  0.0  0.129987  0.092123  -0.000164  1.060069  0.0
H  H20  1  0.76990640  0.73410745  0.31447445  1  0.090142  -0.00027  0.984974  0.0  0.093889  -0.000162  1.057959  0.0  0.096022  -0.000164  1.056136  0.0  0.129913  0.09198  -0.000164  1.059911  0.0
H  H21  1  0.26997584  0.76574733  0.18551329  1  0.090128  -0.000275  0.985223  0.0  0.093993  -0.000162  1.05821  0.0  0.096131  -0.000164  1.056382  0.0  0.129981  0.092087  -0.000164  1.060156  0.0
C  C22  1  0.47636965  0.92373992  0.84831858  1  0.699231  0.000512  3.808637  0.003  0.647629  0.0048  4.116016  0.009  0.684108  0.003987  4.106993  0.008  0.221867  0.620889  0.004151  4.122817  0.008
C  C23  1  0.97644973  0.57631500  0.65169076  1  0.699091  0.000515  3.808585  0.003  0.647538  0.004804  4.116116  0.009  0.684009  0.003989  4.107087  0.008  0.221754  0.620793  0.00416  4.122924  0.008
C  C24  1  0.52364212  0.07625487  0.15167703  1  0.69919  0.000512  3.80845  0.003  0.647633  0.0048  4.115778  0.009  0.684108  0.003988  4.106752  0.008  0.221948  0.620893  0.004151  4.122573  0.008
C  C25  1  0.02354225  0.42368837  0.34831329  1  0.699371  0.000516  3.80808  0.003  0.647672  0.004804  4.115854  0.009  0.684144  0.003989  4.106815  0.008  0.221751  0.620936  0.004161  4.122653  0.008
C  C26  1  0.34604946  0.94365372  0.73592835  1  -0.178678  0.001683  3.618786  0.003  -0.238057  0.001538  3.862533  0.003  -0.239266  0.000997  3.868625  0.002  -0.057872  -0.236631  0.002195  3.858362  0.004
C  C27  1  0.84617389  0.55646245  0.76409917  1  -0.178316  0.001682  3.618137  0.003  -0.238152  0.001538  3.862079  0.003  -0.23929  0.000994  3.86814  0.002  -0.057844  -0.236718  0.002196  3.8579  0.004
C  C28  1  0.65396034  0.05634592  0.26406740  1  -0.178529  0.001682  3.618703  0.003  -0.237912  0.001538  3.862408  0.003  -0.239123  0.000998  3.868502  0.002  -0.057831  -0.236475  0.002195  3.858223  0.004
C  C29  1  0.15381810  0.44353607  0.23590558  1  -0.178356  0.001682  3.618116  0.003  -0.238218  0.001539  3.862157  0.003  -0.239352  0.000994  3.868209  0.002  -0.057896  -0.236787  0.002195  3.857979  0.004
C  C30  1  0.71130960  0.02554607  0.60825850  1  -0.060301  0.001422  3.661194  0.002  -0.102436  0.000844  3.925013  0.001  -0.100801  0.000475  3.943389  0.001  -0.001222  -0.103204  0.001396  3.912987  0.002
C  C31  1  0.21151803  0.47445778  0.89173935  1  -0.059866  0.001426  3.660127  0.002  -0.10196  0.000846  3.923906  0.001  -0.100313  0.000476  3.942288  0.001  -0.000984  -0.102767  0.001398  3.911915  0.002
C  C32  1  0.28870020  0.97447297  0.39173612  1  -0.060387  0.001423  3.661148  0.002  -0.102532  0.000844  3.924957  0.001  -0.100905  0.000475  3.943343  0.001  -0.001337  -0.103314  0.001397  3.912946  0.002
C  C33  1  0.78847198  0.52553711  0.10826530  1  -0.059853  0.001429  3.660198  0.002  -0.101921  0.000847  3.923962  0.001  -0.100269  0.000478  3.942338  0.001  -0.000979  -0.10273  0.001398  3.911969  0.002
C  C34  1  0.76854066  0.16618437  0.55684996  1  -0.011325  -0.002364  3.737542  -0.001  -0.044738  -0.0004  4.014693  0.001  -0.042985  -0.000585  4.03364  0.0  -0.010051  -0.045994  -9.4e-05  4.001945  0.001
C  C35  1  0.26873578  0.33374389  0.94314512  1  -0.011505  -0.002378  3.736445  -0.001  -0.044824  -0.000405  4.013661  0.001  -0.043124  -0.000589  4.032547  0.0  -0.010295  -0.046043  -9.9e-05  4.000939  0.001
C  C36  1  0.23145133  0.83382019  0.44315248  1  -0.011297  -0.002365  3.737337  -0.001  -0.044709  -0.000401  4.014505  0.001  -0.042979  -0.000584  4.033433  0.0  -0.009971  -0.045968  -9.4e-05  4.001737  0.001
C  C37  1  0.73125620  0.66625459  0.05685552  1  -0.011461  -0.002375  3.736409  -0.001  -0.044778  -0.000405  4.013613  0.001  -0.043064  -0.00059  4.03252  0.0  -0.010284  -0.046004  -9.9e-05  4.000898  0.001
C  C38  1  0.40587008  0.21069649  0.64965804  1  0.155375  0.000251  3.651586  0.001  0.098689  0.001945  3.922748  0.003  0.112505  0.00176  3.936162  0.003  0.13684  0.089457  0.001839  3.913247  0.003
C  C39  1  0.90588717  0.28938940  0.85035078  1  0.154861  0.000242  3.651672  0.001  0.097966  0.001941  3.922827  0.003  0.111776  0.001755  3.936253  0.003  0.136364  0.088733  0.00183  3.913319  0.003
C  C40  1  0.59412784  0.78930680  0.35033862  1  0.155468  0.000252  3.651693  0.001  0.098743  0.001946  3.922878  0.003  0.112558  0.001761  3.93629  0.003  0.13683  0.089518  0.00184  3.913363  0.003
C  C41  1  0.09411471  0.71060788  0.14965065  1  0.154999  0.000244  3.651584  0.001  0.098089  0.001941  3.922718  0.003  0.111897  0.001756  3.936148  0.003  0.136387  0.088866  0.00183  3.913187  0.003
N  N42  1  0.48093907  0.05566566  0.66652778  1  -0.041449  0.000636  3.614759  0.001  0.052715  0.001063  3.826214  0.002  0.038364  0.000893  3.853287  0.002  -0.245865  0.062273  0.001032  3.807492  0.002
N  N43  1  0.98105266  0.44440666  0.83349197  1  -0.041326  0.000629  3.614508  0.001  0.052945  0.001058  3.826045  0.002  0.038594  0.00089  3.853099  0.002  -0.245725  0.062505  0.001027  3.807333  0.002
N  N44  1  0.51907072  0.94433521  0.33346964  1  -0.04164  0.000635  3.614896  0.001  0.052531  0.001063  3.826361  0.002  0.038181  0.000891  3.85344  0.002  -0.245859  0.062087  0.001032  3.807637  0.002
N  N45  1  0.01893933  0.55559063  0.16651110  1  -0.041398  0.000633  3.614639  0.001  0.052872  0.001058  3.826185  0.002  0.038514  0.000889  3.853253  0.002  -0.245731  0.062429  0.001027  3.807463  0.002
N  N46  1  0.57572252  0.28083065  0.58272486  1  -0.383765  0.017895  3.284606  0.033  -0.327714  0.015373  3.583983  0.023  -0.349739  0.012611  3.598308  0.019  -0.360882  -0.311378  0.017752  3.573262  0.026
N  N47  1  0.07579118  0.21919263  0.91728191  1  -0.383722  0.017901  3.284534  0.033  -0.327561  0.015378  3.583791  0.023  -0.349587  0.012616  3.598146  0.019  -0.360587  -0.311216  0.01776  3.573037  0.026
N  N48  1  0.42427738  0.71917629  0.41727271  1  -0.383756  0.017896  3.284688  0.033  -0.327647  0.015373  3.584041  0.023  -0.349678  0.012611  3.598385  0.019  -0.360891  -0.31131  0.017753  3.573304  0.026
N  N49  1  0.92420674  0.78080463  0.08271787  1  -0.38381  0.017901  3.28454  0.033  -0.327636  0.015379  3.583792  0.023  -0.349662  0.012616  3.598144  0.019  -0.360581  -0.311296  0.017761  3.573031  0.026
O  O50  1  0.31973072  0.88106105  0.92421308  1  -0.640719  0.024757  2.076137  0.034  -0.578583  0.026472  2.347185  0.034  -0.611562  0.021892  2.33406  0.026  -0.322846  -0.554145  0.031595  2.357294  0.043
O  O51  1  0.81974834  0.61896357  0.57576643  1  -0.640756  0.024762  2.075901  0.034  -0.578571  0.026474  2.346978  0.034  -0.611625  0.021892  2.334009  0.026  -0.322782  -0.554122  0.0316  2.357082  0.043
O  O52  1  0.68027314  0.11893253  0.07578251  1  -0.64058  0.024752  2.076079  0.034  -0.578511  0.026467  2.347148  0.034  -0.611518  0.021887  2.334096  0.026  -0.322836  -0.554076  0.03159  2.357254  0.043
O  O53  1  0.18024959  0.38103980  0.42423844  1  -0.640833  0.024763  2.075514  0.034  -0.578646  0.026476  2.346745  0.034  -0.611693  0.021892  2.333754  0.026  -0.322797  -0.554197  0.031603  2.356844  0.043
O  O54  1  0.72403648  0.94014566  0.85690631  1  -0.6201  0.018073  2.044965  0.035  -0.566948  0.020299  2.312093  0.036  -0.595835  0.016094  2.299179  0.028  -0.300425  -0.545348  0.02459  2.320456  0.043
O  O55  1  0.22409617  0.55989226  0.64312328  1  -0.619956  0.01806  2.045208  0.035  -0.56697  0.020292  2.312513  0.036  -0.595807  0.01609  2.299508  0.028  -0.300492  -0.545376  0.024579  2.320882  0.043
O  O56  1  0.27596936  0.05984670  0.14308924  1  -0.620231  0.018076  2.044799  0.035  -0.567057  0.020301  2.311861  0.036  -0.59596  0.016096  2.29899  0.028  -0.300569  -0.545456  0.024592  2.320221  0.043
O  O57  1  0.77590374  0.44010989  0.35688074  1  -0.620137  0.018059  2.045333  0.035  -0.567039  0.020291  2.312642  0.036  -0.595887  0.016091  2.299658  0.028  -0.30047  -0.54545  0.024577  2.321011  0.043
