# generated using pymatgen
data_ZnH6C7(N2O)2
_symmetry_space_group_name_H-M   'P 1'
_cell_length_a   9.59355193
_cell_length_b   11.75699800
_cell_length_c   11.75901529
_cell_angle_alpha   80.40648677
_cell_angle_beta   65.91338446
_cell_angle_gamma   65.90651087
_symmetry_Int_Tables_number   1
_chemical_formula_structural   ZnH6C7(N2O)2
_chemical_formula_sum   'Zn4 H24 C28 N16 O8'
_cell_volume   1105.34551622
_cell_formula_units_Z   4
loop_
 _symmetry_equiv_pos_site_id
 _symmetry_equiv_pos_as_xyz
  1  'x, y, z'
loop_
 _atom_site_type_symbol
 _atom_site_label
 _atom_site_symmetry_multiplicity
 _atom_site_fract_x
 _atom_site_fract_y
 _atom_site_fract_z
 _atom_site_occupancy
 _atom_site_hle17_bader_spin_density
 _atom_site_hle17_ddec_charge
 _atom_site_hle17_ddec_spin_density
 _atom_site_hle17_ddec_sum_bond_order
 _atom_site_hle17_magmom
 _atom_site_hse06_10hf_bader_spin_density
 _atom_site_hse06_10hf_ddec_charge
 _atom_site_hse06_10hf_ddec_spin_density
 _atom_site_hse06_10hf_ddec_sum_bond_order
 _atom_site_hse06_10hf_magmom
 _atom_site_hse06_bader_spin_density
 _atom_site_hse06_ddec_charge
 _atom_site_hse06_ddec_spin_density
 _atom_site_hse06_ddec_sum_bond_order
 _atom_site_hse06_magmom
 _atom_site_pbe_bader_spin_density
 _atom_site_pbe_cm5_charge
 _atom_site_pbe_ddec_charge
 _atom_site_pbe_ddec_spin_density
 _atom_site_pbe_ddec_sum_bond_order
 _atom_site_pbe_magmom
Zn  Zn0  1  0.13556490  0.47910356  0.16795437  1  0  0.933465  0  1.915922  0  0  0.730736  0  2.392456  0  0  0.77624  0  2.344753  0  0  0.698581  0.698974  0  2.42534  0
Zn  Zn1  1  0.38527617  0.83207875  0.47924314  1  0  0.933679  0  1.914608  0  0  0.731198  0  2.391524  0  0  0.776716  0  2.343809  0  0  0.698618  0.69957  0  2.424268  0
Zn  Zn2  1  0.78265018  0.52100523  0.83210962  1  0  0.933673  0  1.91496  0  0  0.730334  0  2.391696  0  0  0.775905  0  2.343973  0  0  0.697911  0.698721  0  2.42434  0
Zn  Zn3  1  0.69635469  0.16818505  0.52085457  1  0  0.933985  0  1.913706  0  0  0.730826  0  2.390445  0  0  0.776438  0  2.342739  0  0  0.698411  0.69908  0  2.423247  0
H  H4  1  0.06057641  0.42894152  0.94551577  1  0  0.098238  0  0.953654  0  0  0.101558  0  1.025785  0  0  0.104874  0  1.021014  0  0  0.13251  0.098938  0  1.029448  0
H  H5  1  0.51091296  0.05453739  0.42853403  1  0  0.097991  0  0.954451  0  0  0.101478  0  1.026157  0  0  0.104763  0  1.021414  0  0  0.132787  0.098949  0  1.029699  0
H  H6  1  0.43482725  0.57120800  0.05461012  1  0  0.097447  0  0.955945  0  0  0.101363  0  1.027177  0  0  0.104634  0  1.022473  0  0  0.132958  0.098849  0  1.030719  0
H  H7  1  0.99380212  0.94568397  0.57151293  1  0  0.099049  0  0.954426  0  0  0.102617  0  1.025835  0  0  0.105905  0  1.021114  0  0  0.132975  0.100028  0  1.029497  0
H  H8  1  0.33515251  0.82505218  0.24171783  1  0  0.069987  0  0.914629  0  0  0.080421  0  0.972392  0  0  0.082474  0  0.969985  0  0  0.129523  0.078845  0  0.974225  0
H  H9  1  0.83958737  0.75862104  0.82495113  1  0  0.069235  0  0.91379  0  0  0.079589  0  0.971866  0  0  0.081643  0  0.969472  0  0  0.129243  0.077992  0  0.973773  0
H  H10  1  0.40177560  0.17512632  0.75858241  1  0  0.070469  0  0.914783  0  0  0.080727  0  0.972743  0  0  0.082774  0  0.970338  0  0  0.129983  0.079156  0  0.974627  0
H  H11  1  0.42320500  0.24140081  0.17501095  1  0  0.070775  0  0.913567  0  0  0.080456  0  0.972226  0  0  0.082514  0  0.9698  0  0  0.129821  0.078877  0  0.974064  0
H  H12  1  0.73041932  0.65867208  0.36051024  1  0  0.127288  0  0.958014  0  0  0.13233  0  1.021328  0  0  0.135937  0  1.017435  0  0  0.131103  0.129611  0  1.024273  0
H  H13  1  0.61081507  0.63972870  0.65867888  1  0  0.128028  0  0.957822  0  0  0.132976  0  1.021038  0  0  0.136592  0  1.017131  0  0  0.131519  0.130238  0  1.023993  0
H  H14  1  0.74953418  0.34138451  0.63971609  1  0  0.126076  0  0.958521  0  0  0.131148  0  1.021856  0  0  0.13476  0  1.017961  0  0  0.13082  0.128498  0  1.024679  0
H  H15  1  0.90909554  0.36062426  0.34154267  1  0  0.127185  0  0.957365  0  0  0.132313  0  1.020809  0  0  0.135939  0  1.01687  0  0  0.131253  0.12966  0  1.023634  0
H  H16  1  0.99891750  0.68962013  0.52670277  1  0  0.131658  0  0.959982  0  0  0.149707  0  1.020784  0  0  0.151041  0  1.022426  0  0  0.093646  0.148738  0  1.019727  0
H  H17  1  0.31181677  0.47284243  0.68937838  1  0  0.131813  0  0.95959  0  0  0.149676  0  1.020609  0  0  0.151017  0  1.022248  0  0  0.093698  0.148705  0  1.019534  0
H  H18  1  0.21524615  0.31019447  0.47313171  1  0  0.132038  0  0.961263  0  0  0.150091  0  1.021948  0  0  0.151411  0  1.023606  0  0  0.093731  0.149113  0  1.020898  0
H  H19  1  0.47450323  0.52674014  0.31009842  1  0  0.131504  0  0.959805  0  0  0.149184  0  1.02102  0  0  0.150502  0  1.022666  0  0  0.093548  0.14823  0  1.019938  0
H  H20  1  0.98571553  0.80831301  0.41143954  1  0  0.127815  0  0.937325  0  0  0.14815  0  0.995365  0  0  0.149964  0  0.995598  0  0  0.095303  0.146925  0  0.995193  0
H  H21  1  0.20635644  0.58806268  0.80804545  1  0  0.127565  0  0.93713  0  0  0.147727  0  0.995469  0  0  0.149539  0  0.9957  0  0  0.095269  0.146524  0  0.995226  0
H  H22  1  0.20524686  0.19161840  0.58848472  1  0  0.127338  0  0.938399  0  0  0.148121  0  0.995898  0  0  0.149928  0  0.996131  0  0  0.095118  0.146923  0  0.995654  0
H  H23  1  0.60303286  0.41140824  0.19149900  1  0  0.127471  0  0.938072  0  0  0.147816  0  0.995995  0  0  0.149639  0  0.996225  0  0  0.095351  0.146584  0  0.99583  0
H  H24  1  0.18184123  0.70427613  0.41054951  1  0  0.125736  0  0.964678  0  0  0.143351  0  1.029267  0  0  0.145366  0  1.028926  0  0  0.091139  0.141861  0  1.029647  0
H  H25  1  0.11410094  0.58892695  0.70417804  1  0  0.12433  0  0.96592  0  0  0.142443  0  1.030036  0  0  0.144441  0  1.029717  0  0  0.091271  0.141011  0  1.030302  0
H  H26  1  0.29682596  0.29540783  0.58917377  1  0  0.126042  0  0.964746  0  0  0.143655  0  1.029371  0  0  0.14565  0  1.029044  0  0  0.091423  0.142193  0  1.029702  0
H  H27  1  0.40754235  0.41081422  0.29521417  1  0  0.125037  0  0.964299  0  0  0.142897  0  1.028753  0  0  0.144902  0  1.02842  0  0  0.091444  0.141382  0  1.029184  0
C  C28  1  0.94962593  0.49639171  0.00970883  1  0  0.283617  0  3.651025  0  0  0.228587  0  3.915421  0  0  0.24595  0  3.926656  0  0  0.161626  0.217301  0  3.907428  0
C  C29  1  0.55421017  0.99040932  0.49608246  1  0  0.28281  0  3.64836  0  0  0.228006  0  3.91323  0  0  0.245394  0  3.924436  0  0  0.161269  0.216705  0  3.905281  0
C  C30  1  0.45567750  0.50365280  0.99049111  1  0  0.283269  0  3.647899  0  0  0.228119  0  3.912667  0  0  0.245479  0  3.923916  0  0  0.161417  0.216783  0  3.904819  0
C  C31  1  0.04054121  0.00981876  0.50399386  1  0  0.281323  0  3.649843  0  0  0.226397  0  3.914664  0  0  0.243758  0  3.925888  0  0  0.161145  0.215051  0  3.906761  0
C  C32  1  0.69961617  0.62876857  0.08824276  1  0  0.323559  0  3.849826  0  0  0.297636  0  4.111842  0  0  0.310988  0  4.13089  0  0  0.220619  0.288939  0  4.098898  0
C  C33  1  0.67167112  0.91201377  0.62855269  1  0  0.319763  0  3.854309  0  0  0.293973  0  4.117102  0  0  0.307297  0  4.136211  0  0  0.219045  0.285352  0  4.104022  0
C  C34  1  0.41660005  0.37127441  0.91203329  1  0  0.322734  0  3.855954  0  0  0.297753  0  4.117294  0  0  0.311137  0  4.136311  0  0  0.220499  0.289101  0  4.104128  0
C  C35  1  0.21205590  0.08816266  0.37145965  1  0  0.322532  0  3.854042  0  0  0.296866  0  4.115501  0  0  0.310221  0  4.13456  0  0  0.220381  0.288158  0  4.102414  0
C  C36  1  0.46337362  0.76154956  0.21893046  1  0  0.281532  0  3.729682  0  0  0.228064  0  4.012389  0  0  0.243367  0  4.023623  0  0  0.169714  0.218042  0  4.004685  0
C  C37  1  0.77493002  0.78138711  0.76142895  1  0  0.283876  0  3.730046  0  0  0.229797  0  4.012701  0  0  0.245097  0  4.023984  0  0  0.17039  0.219728  0  4.00513  0
C  C38  1  0.44376954  0.23855107  0.78136467  1  0  0.281994  0  3.729034  0  0  0.228008  0  4.011553  0  0  0.243381  0  4.022821  0  0  0.169316  0.218051  0  4.003925  0
C  C39  1  0.31773555  0.21870121  0.23856525  1  0  0.282328  0  3.730293  0  0  0.228713  0  4.01291  0  0  0.24405  0  4.024136  0  0  0.169668  0.218764  0  4.005085  0
C  C40  1  0.68425476  0.67182842  0.28660949  1  0  0.120654  0  3.607745  0  0  0.080985  0  3.854033  0  0  0.09164  0  3.867436  0  0  0.073219  0.073957  0  3.845308  0
C  C41  1  0.64381945  0.71364656  0.67182133  1  0  0.12066  0  3.606579  0  0  0.081129  0  3.852403  0  0  0.091783  0  3.86577  0  0  0.072828  0.074132  0  3.84362  0
C  C42  1  0.64268749  0.32814786  0.71366130  1  0  0.123249  0  3.611841  0  0  0.083027  0  3.857853  0  0  0.09373  0  3.871273  0  0  0.073504  0.075965  0  3.849036  0
C  C43  1  0.02913674  0.28659988  0.32832947  1  0  0.121289  0  3.6081  0  0  0.080268  0  3.854445  0  0  0.090929  0  3.867835  0  0  0.072922  0.073153  0  3.845658  0
C  C44  1  0.77938154  0.61231883  0.17206634  1  0  0.0687  0  3.799655  0  0  0.073542  0  4.037309  0  0  0.069732  0  4.062714  0  0  0.09511  0.075505  0  4.020613  0
C  C45  1  0.60834612  0.82816358  0.61220685  1  0  0.069125  0  3.80268  0  0  0.073129  0  4.041532  0  0  0.069307  0  4.066982  0  0  0.094904  0.075065  0  4.024808  0
C  C46  1  0.56386028  0.38755472  0.82824667  1  0  0.066808  0  3.80361  0  0  0.07133  0  4.041327  0  0  0.067499  0  4.066758  0  0  0.094107  0.073216  0  4.024739  0
C  C47  1  0.04850675  0.17204432  0.38780671  1  0  0.067325  0  3.803309  0  0  0.073302  0  4.039174  0  0  0.069428  0  4.06466  0  0  0.094405  0.075248  0  4.022566  0
C  C48  1  0.05915466  0.62596948  0.34532699  1  0  0.71652  0  3.874266  0  0  0.681292  0  4.156431  0  0  0.714325  0  4.150099  0  0  0.191192  0.658872  0  4.159731  0
C  C49  1  0.31505138  0.65431923  0.62582591  1  0  0.719368  0  3.87152  0  0  0.684126  0  4.15376  0  0  0.717181  0  4.14737  0  0  0.192199  0.66166  0  4.157206  0
C  C50  1  0.03047811  0.37409671  0.65448379  1  0  0.718123  0  3.871472  0  0  0.683456  0  4.152684  0  0  0.716464  0  4.146324  0  0  0.191861  0.661013  0  4.156105  0
C  C51  1  0.59518176  0.34526074  0.37391474  1  0  0.715845  0  3.87519  0  0  0.681615  0  4.155739  0  0  0.714628  0  4.149418  0  0  0.190985  0.659188  0  4.159078  0
C  C52  1  0.05727672  0.71136173  0.42882429  1  0  -0.437097  0  3.666153  0  0  -0.509693  0  3.895686  0  0  -0.517032  0  3.90056  0  0  -0.248209  -0.504513  0  3.89218  0
C  C53  1  0.23162054  0.57071556  0.71114498  1  0  -0.436143  0  3.665715  0  0  -0.508696  0  3.895356  0  0  -0.516024  0  3.900245  0  0  -0.248503  -0.503513  0  3.891769  0
C  C54  1  0.19746315  0.28849637  0.57098933  1  0  -0.438053  0  3.668951  0  0  -0.511174  0  3.898128  0  0  -0.518475  0  3.903042  0  0  -0.248525  -0.506003  0  3.894541  0
C  C55  1  0.51388436  0.42887416  0.28834783  1  0  -0.435376  0  3.666477  0  0  -0.507997  0  3.89557  0  0  -0.515302  0  3.900493  0  0  -0.248299  -0.502822  0  3.892089  0
N  N56  1  0.94031219  0.52850801  0.11818017  1  0  -0.429647  0  3.218255  0  0  -0.350835  0  3.510645  0  0  -0.373243  0  3.522798  0  0  -0.35416  -0.335567  0  3.502186  0
N  N57  1  0.53130949  0.88195260  0.52835768  1  0  -0.429247  0  3.218284  0  0  -0.350319  0  3.511064  0  0  -0.372735  0  3.523207  0  0  -0.353908  -0.335128  0  3.502789  0
N  N58  1  0.58708640  0.47139974  0.88206211  1  0  -0.428908  0  3.218635  0  0  -0.349858  0  3.510919  0  0  -0.372305  0  3.523134  0  0  -0.353969  -0.334668  0  3.502607  0
N  N59  1  0.94141216  0.11827623  0.47171469  1  0  -0.42825  0  3.218342  0  0  -0.349516  0  3.510124  0  0  -0.371922  0  3.52228  0  0  -0.353742  -0.33427  0  3.501676  0
N  N60  1  0.80892622  0.55347734  0.98695285  1  0  -0.479396  0  3.185102  0  0  -0.399464  0  3.478832  0  0  -0.424045  0  3.488027  0  0  -0.358607  -0.382809  0  3.472048  0
N  N61  1  0.63775289  0.01324407  0.55317043  1  0  -0.476782  0  3.182214  0  0  -0.397554  0  3.476591  0  0  -0.422087  0  3.485771  0  0  -0.358341  -0.380912  0  3.46979  0
N  N62  1  0.34924407  0.44662998  0.01325211  1  0  -0.477993  0  3.181949  0  0  -0.399339  0  3.476585  0  0  -0.423848  0  3.485711  0  0  -0.359258  -0.382672  0  3.469909  0
N  N63  1  0.20403219  0.98697259  0.44688224  1  0  -0.477144  0  3.181362  0  0  -0.398339  0  3.47591  0  0  -0.422846  0  3.485081  0  0  -0.358753  -0.381689  0  3.46921  0
N  N64  1  0.54231820  0.70398497  0.10933763  1  0  -0.394125  0  3.017769  0  0  -0.35931  0  3.28918  0  0  -0.374235  0  3.299116  0  0  -0.317392  -0.349572  0  3.282604  0
N  N65  1  0.75363782  0.89096061  0.70381338  1  0  -0.392699  0  3.01733  0  0  -0.357609  0  3.28866  0  0  -0.372548  0  3.298657  0  0  -0.316671  -0.347804  0  3.282003  0
N  N66  1  0.35555644  0.29611508  0.89095745  1  0  -0.393645  0  3.019336  0  0  -0.358973  0  3.290483  0  0  -0.373912  0  3.300418  0  0  -0.316963  -0.348929  0  3.283531  0
N  N67  1  0.34834252  0.10913127  0.29619670  1  0  -0.39444  0  3.019356  0  0  -0.359578  0  3.290564  0  0  -0.374496  0  3.300499  0  0  -0.317205  -0.349599  0  3.283663  0
N  N68  1  0.52570122  0.74740593  0.30771377  1  0  -0.380906  0  3.29663  0  0  -0.298618  0  3.590719  0  0  -0.321449  0  3.603596  0  0  -0.335058  -0.283475  0  3.582061  0
N  N69  1  0.72675549  0.69255636  0.74738746  1  0  -0.384162  0  3.297984  0  0  -0.30021  0  3.590601  0  0  -0.323067  0  3.603436  0  0  -0.335485  -0.285068  0  3.581956  0
N  N70  1  0.58072610  0.25268294  0.69253341  1  0  -0.383642  0  3.301798  0  0  -0.299516  0  3.594288  0  0  -0.322513  0  3.607284  0  0  -0.334796  -0.284449  0  3.585764  0
N  N71  1  0.16663124  0.30760088  0.25272362  1  0  -0.382737  0  3.297595  0  0  -0.298614  0  3.590185  0  0  -0.321454  0  3.603083  0  0  -0.335002  -0.283404  0  3.581507  0
O  O72  1  0.17634560  0.60338400  0.23526665  1  0  -0.669439  0  1.982996  0  0  -0.59439  0  2.23736  0  0  -0.623663  0  2.224039  0  0  -0.351433  -0.573851  0  2.245777  0
O  O73  1  0.22036095  0.76428029  0.60298742  1  0  -0.671843  0  1.982246  0  0  -0.596542  0  2.236719  0  0  -0.625833  0  2.223283  0  0  -0.352053  -0.576019  0  2.245135  0
O  O74  1  0.01520643  0.39686871  0.76443004  1  0  -0.670882  0  1.982903  0  0  -0.595745  0  2.237144  0  0  -0.625013  0  2.223699  0  0  -0.352159  -0.575235  0  2.245557  0
O  O75  1  0.58802092  0.23520207  0.39650031  1  0  -0.669416  0  1.982352  0  0  -0.594485  0  2.235791  0  0  -0.623735  0  2.222467  0  0  -0.351188  -0.57392  0  2.24412  0
O  O76  1  0.95189433  0.57907214  0.38097941  1  0  -0.617824  0  1.924523  0  0  -0.563746  0  2.143395  0  0  -0.587936  0  2.134663  0  0  -0.318064  -0.546569  0  2.148689  0
O  O77  1  0.46916918  0.61893102  0.57933432  1  0  -0.617954  0  1.923461  0  0  -0.564378  0  2.14296  0  0  -0.588576  0  2.134193  0  0  -0.318179  -0.547353  0  2.148354  0
O  O78  1  0.91187376  0.42089497  0.61896240  1  0  -0.616782  0  1.921297  0  0  -0.563428  0  2.140485  0  0  -0.587619  0  2.131744  0  0  -0.317541  -0.546429  0  2.145865  0
O  O79  1  0.66678502  0.38080850  0.42090540  1  0  -0.617382  0  1.923034  0  0  -0.564083  0  2.142161  0  0  -0.588365  0  2.133527  0  0  -0.31782  -0.546882  0  2.147387  0
