# generated using pymatgen
data_ZnH7C8N5Cl2
_symmetry_space_group_name_H-M   'P 1'
_cell_length_a   9.01650079
_cell_length_b   10.21728760
_cell_length_c   12.88267985
_cell_angle_alpha   90.00000407
_cell_angle_beta   106.28252710
_cell_angle_gamma   89.99999984
_symmetry_Int_Tables_number   1
_chemical_formula_structural   ZnH7C8N5Cl2
_chemical_formula_sum   'Zn4 H28 C32 N20 Cl8'
_cell_volume   1139.20453298
_cell_formula_units_Z   4
loop_
 _symmetry_equiv_pos_site_id
 _symmetry_equiv_pos_as_xyz
  1  'x, y, z'
loop_
 _atom_site_type_symbol
 _atom_site_label
 _atom_site_symmetry_multiplicity
 _atom_site_fract_x
 _atom_site_fract_y
 _atom_site_fract_z
 _atom_site_occupancy
 _atom_site_hle17_bader_spin_density
 _atom_site_hle17_ddec_charge
 _atom_site_hle17_ddec_spin_density
 _atom_site_hle17_ddec_sum_bond_order
 _atom_site_hle17_magmom
 _atom_site_hse06_10hf_bader_spin_density
 _atom_site_hse06_10hf_ddec_charge
 _atom_site_hse06_10hf_ddec_spin_density
 _atom_site_hse06_10hf_ddec_sum_bond_order
 _atom_site_hse06_10hf_magmom
 _atom_site_hse06_bader_spin_density
 _atom_site_hse06_ddec_charge
 _atom_site_hse06_ddec_spin_density
 _atom_site_hse06_ddec_sum_bond_order
 _atom_site_hse06_magmom
 _atom_site_pbe_bader_spin_density
 _atom_site_pbe_cm5_charge
 _atom_site_pbe_ddec_charge
 _atom_site_pbe_ddec_spin_density
 _atom_site_pbe_ddec_sum_bond_order
 _atom_site_pbe_magmom
Zn  Zn0  1  0.07909980  0.05589939  0.31437009  1  0  0.835519  0  2.1511  0  0  0.658933  0  2.645566  0  0  0.697866  0  2.599965  0  0  0.562339  0.631859  0  2.676851  0
Zn  Zn1  1  0.42089962  0.55589999  0.18562949  1  0  0.835529  0  2.151089  0  0  0.65895  0  2.64554  0  0  0.697881  0  2.599941  0  0  0.56234  0.631874  0  2.676826  0
Zn  Zn2  1  0.92090136  0.94409991  0.68563028  1  0  0.835568  0  2.151035  0  0  0.658992  0  2.645505  0  0  0.697925  0  2.599904  0  0  0.562357  0.631922  0  2.676796  0
Zn  Zn3  1  0.57910038  0.44410029  0.81437066  1  0  0.835555  0  2.151082  0  0  0.658981  0  2.645534  0  0  0.697909  0  2.599931  0  0  0.562348  0.631908  0  2.676822  0
H  H4  1  0.87276154  0.86493897  0.43827260  1  0  0.111286  0  0.977271  0  0  0.117499  0  1.047085  0  0  0.120559  0  1.043025  0  0  0.129359  0.114932  0  1.050438  0
H  H5  1  0.62724027  0.36493932  0.06172778  1  0  0.111305  0  0.977234  0  0  0.11751  0  1.047046  0  0  0.12057  0  1.042986  0  0  0.129358  0.114943  0  1.0504  0
H  H6  1  0.12723962  0.13506033  0.56172777  1  0  0.111309  0  0.97727  0  0  0.117526  0  1.047079  0  0  0.120585  0  1.043022  0  0  0.129363  0.114957  0  1.050433  0
H  H7  1  0.37275973  0.63506095  0.93827237  1  0  0.111281  0  0.977259  0  0  0.117514  0  1.047061  0  0  0.120573  0  1.043003  0  0  0.129358  0.114945  0  1.050414  0
H  H8  1  0.98948247  0.57165075  0.24102898  1  0  0.124945  0  0.899796  0  0  0.135122  0  0.958823  0  0  0.137772  0  0.955867  0  0  0.150834  0.132368  0  0.962386  0
H  H9  1  0.51051702  0.07165112  0.25897171  1  0  0.124962  0  0.899799  0  0  0.135137  0  0.958824  0  0  0.137788  0  0.955868  0  0  0.150835  0.132383  0  0.962385  0
H  H10  1  0.01051753  0.42834953  0.75897117  1  0  0.124954  0  0.89979  0  0  0.135125  0  0.958824  0  0  0.137775  0  0.955871  0  0  0.150835  0.132373  0  0.962385  0
H  H11  1  0.48948299  0.92834916  0.74102922  1  0  0.124951  0  0.899804  0  0  0.135128  0  0.958826  0  0  0.137778  0  0.955873  0  0  0.150831  0.132376  0  0.962389  0
H  H12  1  0.69296872  0.61500376  0.65744085  1  0  0.090223  0  0.964379  0  0  0.090818  0  1.043738  0  0  0.094411  0  1.040093  0  0  0.116364  0.088609  0  1.04567  0
H  H13  1  0.80703301  0.11500414  0.84255930  1  0  0.090224  0  0.964376  0  0  0.09082  0  1.043743  0  0  0.094413  0  1.040095  0  0  0.11637  0.088613  0  1.045675  0
H  H14  1  0.30703359  0.38499554  0.34255897  1  0  0.090227  0  0.964378  0  0  0.090837  0  1.043733  0  0  0.09443  0  1.040087  0  0  0.116365  0.088629  0  1.045665  0
H  H15  1  0.19296700  0.88499614  0.15744007  1  0  0.090232  0  0.964374  0  0  0.090844  0  1.043711  0  0  0.094439  0  1.040063  0  0  0.116366  0.088633  0  1.045641  0
H  H16  1  0.54938425  0.23002389  0.66195019  1  0  0.080535  0  0.947464  0  0  0.087987  0  1.013447  0  0  0.090625  0  1.010845  0  0  0.108056  0.085687  0  1.01597  0
H  H17  1  0.95061518  0.73002255  0.83805107  1  0  0.08055  0  0.947461  0  0  0.087996  0  1.013447  0  0  0.090637  0  1.010846  0  0  0.108062  0.085697  0  1.015969  0
H  H18  1  0.45061576  0.76997638  0.33804996  1  0  0.080508  0  0.947475  0  0  0.087962  0  1.013459  0  0  0.090601  0  1.010857  0  0  0.108053  0.08566  0  1.015979  0
H  H19  1  0.04938367  0.26997675  0.16194963  1  0  0.080535  0  0.947466  0  0  0.087988  0  1.013445  0  0  0.090626  0  1.010844  0  0  0.108066  0.085688  0  1.015965  0
H  H20  1  0.62402485  0.17508661  0.49447736  1  0  0.119372  0  0.968443  0  0  0.125253  0  1.031914  0  0  0.128487  0  1.031213  0  0  0.097026  0.123601  0  1.031432  0
H  H21  1  0.87597349  0.67508719  0.00552388  1  0  0.11932  0  0.968439  0  0  0.125193  0  1.031944  0  0  0.128428  0  1.031241  0  0  0.096987  0.123541  0  1.031461  0
H  H22  1  0.37597400  0.82491269  0.50552256  1  0  0.119332  0  0.968423  0  0  0.125205  0  1.031912  0  0  0.12844  0  1.03121  0  0  0.097004  0.123553  0  1.03143  0
H  H23  1  0.12402536  0.32491406  0.99447682  1  0  0.119369  0  0.968436  0  0  0.125251  0  1.031918  0  0  0.128485  0  1.031216  0  0  0.097018  0.1236  0  1.031437  0
H  H24  1  0.74160296  0.35214142  0.40602685  1  0  0.114886  0  0.968787  0  0  0.121489  0  1.035201  0  0  0.12474  0  1.032052  0  0  0.099903  0.119319  0  1.036846  0
H  H25  1  0.75839654  0.85214201  0.09397385  1  0  0.114932  0  0.968794  0  0  0.121529  0  1.035206  0  0  0.12478  0  1.032057  0  0  0.099903  0.119357  0  1.036853  0
H  H26  1  0.25839589  0.64785788  0.59397307  1  0  0.114914  0  0.968762  0  0  0.121501  0  1.035193  0  0  0.124752  0  1.032044  0  0  0.099903  0.119334  0  1.036833  0
H  H27  1  0.24160231  0.14785924  0.90602607  1  0  0.114917  0  0.968798  0  0  0.121509  0  1.035228  0  0  0.124759  0  1.03208  0  0  0.099912  0.119344  0  1.036864  0
H  H28  1  0.79586243  0.70146701  0.51716455  1  0  0.076291  0  0.993317  0  0  0.082945  0  1.065037  0  0  0.085542  0  1.061937  0  0  0.104058  0.081711  0  1.065994  0
H  H29  1  0.70413699  0.20146838  0.98283593  1  0  0.076291  0  0.993326  0  0  0.082951  0  1.065035  0  0  0.085539  0  1.061943  0  0  0.104061  0.081718  0  1.065993  0
H  H30  1  0.20413758  0.29853228  0.48283638  1  0  0.07633  0  0.993317  0  0  0.082998  0  1.065018  0  0  0.085584  0  1.06193  0  0  0.104088  0.081765  0  1.065978  0
H  H31  1  0.29586301  0.79853287  0.01716422  1  0  0.076307  0  0.993297  0  0  0.082978  0  1.064999  0  0  0.08556  0  1.061914  0  0  0.104072  0.081745  0  1.065956  0
C  C32  1  0.92157203  0.81610115  0.38032196  1  0  0.161738  0  3.58912  0  0  0.086986  0  3.841991  0  0  0.100189  0  3.854126  0  0  0.168604  0.078697  0  3.83389  0
C  C33  1  0.57842863  0.31610151  0.11967897  1  0  0.161688  0  3.58927  0  0  0.086951  0  3.842107  0  0  0.100154  0  3.85424  0  0  0.168586  0.078664  0  3.834006  0
C  C34  1  0.07842913  0.18389913  0.61967841  1  0  0.16168  0  3.589138  0  0  0.08696  0  3.841979  0  0  0.100156  0  3.854122  0  0  0.168602  0.078679  0  3.833878  0
C  C35  1  0.42157022  0.68389877  0.88032096  1  0  0.161724  0  3.589175  0  0  0.086964  0  3.842069  0  0  0.10016  0  3.854211  0  0  0.168634  0.078682  0  3.833966  0
C  C36  1  0.98208326  0.66644009  0.27711544  1  0  0.153559  0  3.626217  0  0  0.078817  0  3.906435  0  0  0.089719  0  3.917758  0  0  0.169038  0.071995  0  3.899238  0
C  C37  1  0.51791624  0.16644046  0.22288526  1  0  0.15355  0  3.626243  0  0  0.078801  0  3.906447  0  0  0.0897  0  3.917773  0  0  0.169021  0.07198  0  3.899252  0
C  C38  1  0.01791675  0.33355920  0.72288471  1  0  0.153533  0  3.626267  0  0  0.078814  0  3.906473  0  0  0.089707  0  3.917806  0  0  0.16907  0.071994  0  3.899278  0
C  C39  1  0.48208261  0.83355981  0.77711466  1  0  0.153522  0  3.626272  0  0  0.078802  0  3.906483  0  0  0.089695  0  3.917817  0  0  0.169057  0.071981  0  3.899286  0
C  C40  1  0.72718912  0.49693621  0.52519756  1  0  -0.008103  0  3.787551  0  0  0.018299  0  4.020718  0  0  0.010454  0  4.045335  0  0  -0.006263  0.023337  0  4.003879  0
C  C41  1  0.77281146  0.99693684  0.97480316  1  0  -0.008095  0  3.787574  0  0  0.01828  0  4.020765  0  0  0.010438  0  4.045374  0  0  -0.006267  0.023316  0  4.003924  0
C  C42  1  0.27281088  0.50306308  0.47480258  1  0  -0.0081  0  3.787595  0  0  0.018302  0  4.020752  0  0  0.01046  0  4.045362  0  0  -0.006261  0.023335  0  4.003916  0
C  C43  1  0.22718854  0.00306344  0.02519621  1  0  -0.008169  0  3.787565  0  0  0.018252  0  4.020706  0  0  0.010413  0  4.045311  0  0  -0.006318  0.023287  0  4.003868  0
C  C44  1  0.68250429  0.51869542  0.61941099  1  0  0.092793  0  3.642463  0  0  0.051806  0  3.890185  0  0  0.058169  0  3.909182  0  0  0.052966  0.04734  0  3.877761  0
C  C45  1  0.81749512  0.01869580  0.88058948  1  0  0.092772  0  3.642417  0  0  0.051786  0  3.890162  0  0  0.058149  0  3.909159  0  0  0.052949  0.047319  0  3.877739  0
C  C46  1  0.31749571  0.48130388  0.38058916  1  0  0.092745  0  3.642465  0  0  0.05173  0  3.890208  0  0  0.058099  0  3.909194  0  0  0.052931  0.047269  0  3.877775  0
C  C47  1  0.18250488  0.98130545  0.11941067  1  0  0.092789  0  3.642432  0  0  0.051791  0  3.890151  0  0  0.05815  0  3.909156  0  0  0.052971  0.047331  0  3.877717  0
C  C48  1  0.60128971  0.30292093  0.62105350  1  0  0.139979  0  3.668701  0  0  0.10359  0  3.921515  0  0  0.111482  0  3.939691  0  0  0.050903  0.098646  0  3.909246  0
C  C49  1  0.89871087  0.80291959  0.87894643  1  0  0.140064  0  3.668643  0  0  0.103691  0  3.921452  0  0  0.111577  0  3.939633  0  0  0.050946  0.098746  0  3.909182  0
C  C50  1  0.39871145  0.69707935  0.37894687  1  0  0.14011  0  3.668656  0  0  0.103711  0  3.921479  0  0  0.111603  0  3.939655  0  0  0.050966  0.09877  0  3.909201  0
C  C51  1  0.10128913  0.19707971  0.12105216  1  0  0.140042  0  3.66869  0  0  0.103667  0  3.921512  0  0  0.111559  0  3.939688  0  0  0.050921  0.098724  0  3.909239  0
C  C52  1  0.64214461  0.27386429  0.52716083  1  0  -0.102075  0  3.711008  0  0  -0.114395  0  3.968299  0  0  -0.123066  0  3.990632  0  0  -0.080041  -0.109124  0  3.952422  0
C  C53  1  0.85785482  0.77386492  0.97284043  1  0  -0.102093  0  3.710992  0  0  -0.11441  0  3.968261  0  0  -0.123081  0  3.990595  0  0  -0.080048  -0.109141  0  3.95238  0
C  C54  1  0.35785424  0.72613501  0.47283987  1  0  -0.102091  0  3.711019  0  0  -0.114394  0  3.968278  0  0  -0.123064  0  3.99061  0  0  -0.080042  -0.109126  0  3.952398  0
C  C55  1  0.14214519  0.22613634  0.02716050  1  0  -0.102128  0  3.711021  0  0  -0.114468  0  3.968333  0  0  -0.123139  0  3.990664  0  0  -0.080056  -0.109201  0  3.952458  0
C  C56  1  0.70631832  0.37148609  0.47869353  1  0  -0.00998  0  3.632666  0  0  -0.043236  0  3.883206  0  0  -0.037553  0  3.899319  0  0  -0.055342  -0.046216  0  3.871631  0
C  C57  1  0.79368003  0.87148668  0.02130695  1  0  -0.010019  0  3.632802  0  0  -0.043257  0  3.88333  0  0  -0.037574  0  3.899442  0  0  -0.055327  -0.046235  0  3.871749  0
C  C58  1  0.29368053  0.62851321  0.52130639  1  0  -0.009991  0  3.632754  0  0  -0.043232  0  3.883264  0  0  -0.037548  0  3.899374  0  0  -0.055339  -0.046213  0  3.871691  0
C  C59  1  0.20631998  0.12851458  0.97869320  1  0  -0.009939  0  3.632654  0  0  -0.043175  0  3.883149  0  0  -0.037489  0  3.899256  0  0  -0.055307  -0.046156  0  3.871579  0
C  C60  1  0.79400375  0.60491301  0.47946718  1  0  0.106846  0  3.655146  0  0  0.06752  0  3.926037  0  0  0.077099  0  3.938533  0  0  0.079732  0.061176  0  3.91685  0
C  C61  1  0.70599690  0.10491434  0.02053451  1  0  0.106792  0  3.65524  0  0  0.067488  0  3.926109  0  0  0.077073  0  3.938611  0  0  0.079718  0.061144  0  3.916921  0
C  C62  1  0.20599625  0.39508531  0.52053296  1  0  0.106738  0  3.655019  0  0  0.067406  0  3.925908  0  0  0.076988  0  3.938418  0  0  0.079659  0.061066  0  3.916725  0
C  C63  1  0.29400310  0.89508691  0.97946564  1  0  0.106724  0  3.655255  0  0  0.067396  0  3.926118  0  0  0.076981  0  3.938631  0  0  0.07967  0.061056  0  3.916928  0
N  N64  1  0.91174581  0.68490586  0.35777681  1  0  0.018471  0  3.626811  0  0  0.13812  0  3.810956  0  0  0.126264  0  3.834567  0  0  -0.118257  0.144319  0  3.797549  0
N  N65  1  0.58825484  0.18490622  0.14222411  1  0  0.018419  0  3.626911  0  0  0.138101  0  3.811011  0  0  0.126251  0  3.834612  0  0  -0.118221  0.144301  0  3.797604  0
N  N66  1  0.08825420  0.31509344  0.64222411  1  0  0.018605  0  3.626798  0  0  0.138194  0  3.811012  0  0  0.126373  0  3.834562  0  0  -0.11823  0.144394  0  3.797608  0
N  N67  1  0.41174516  0.81509405  0.85777526  1  0  0.018595  0  3.62675  0  0  0.138182  0  3.810996  0  0  0.126365  0  3.834542  0  0  -0.118209  0.144382  0  3.797591  0
N  N68  1  0.99591292  0.87185861  0.31701756  1  0  -0.246657  0  3.249584  0  0  -0.170793  0  3.554356  0  0  -0.188042  0  3.56879  0  0  -0.241917  -0.159283  0  3.544581  0
N  N69  1  0.50408774  0.37185799  0.18298338  1  0  -0.246615  0  3.249729  0  0  -0.17077  0  3.554503  0  0  -0.188019  0  3.56894  0  0  -0.24192  -0.15926  0  3.54473  0
N  N70  1  0.00408709  0.12814167  0.68298259  1  0  -0.246736  0  3.249655  0  0  -0.170912  0  3.554468  0  0  -0.188162  0  3.568907  0  0  -0.241951  -0.1594  0  3.544697  0
N  N71  1  0.49591111  0.62814228  0.81701654  1  0  -0.246733  0  3.249722  0  0  -0.170893  0  3.554535  0  0  -0.188143  0  3.568975  0  0  -0.242022  -0.159385  0  3.544764  0
N  N72  1  0.03564835  0.77783463  0.25194127  1  0  -0.222851  0  2.935542  0  0  -0.201579  0  3.223588  0  0  -0.210775  0  3.240692  0  0  -0.218602  -0.1954  0  3.211719  0
N  N73  1  0.46435224  0.27783402  0.24805855  1  0  -0.222831  0  2.935607  0  0  -0.201563  0  3.223659  0  0  -0.210758  0  3.240764  0  0  -0.218583  -0.195384  0  3.211795  0
N  N74  1  0.96435281  0.22216565  0.74805911  1  0  -0.222792  0  2.9356  0  0  -0.201506  0  3.223636  0  0  -0.210701  0  3.240747  0  0  -0.21858  -0.195325  0  3.211772  0
N  N75  1  0.53564661  0.72216528  0.75194060  1  0  -0.222798  0  2.935614  0  0  -0.20151  0  3.223639  0  0  -0.210706  0  3.240751  0  0  -0.218556  -0.19533  0  3.211777  0
N  N76  1  0.84768823  0.58162600  0.39844153  1  0  -0.186779  0  2.967473  0  0  -0.190663  0  3.244837  0  0  -0.198893  0  3.259475  0  0  -0.194537  -0.185101  0  3.234883  0
N  N77  1  0.65231126  0.08162636  0.10155838  1  0  -0.186717  0  2.9676  0  0  -0.190628  0  3.244957  0  0  -0.198861  0  3.259596  0  0  -0.194547  -0.185069  0  3.235003  0
N  N78  1  0.15231062  0.41837427  0.60155994  1  0  -0.186779  0  2.967307  0  0  -0.190651  0  3.244683  0  0  -0.19889  0  3.259323  0  0  -0.194528  -0.185092  0  3.234734  0
N  N79  1  0.34768759  0.91837391  0.89844077  1  0  -0.186739  0  2.967484  0  0  -0.190617  0  3.24487  0  0  -0.198859  0  3.25951  0  0  -0.194522  -0.18506  0  3.234919  0
N  N80  1  0.62161180  0.42291462  0.66655003  1  0  -0.31689  0  3.330164  0  0  -0.228967  0  3.60539  0  0  -0.248621  0  3.622439  0  0  -0.333573  -0.215779  0  3.593794  0
N  N81  1  0.87838993  0.92291523  0.83345091  1  0  -0.316891  0  3.330118  0  0  -0.228982  0  3.605359  0  0  -0.248639  0  3.622413  0  0  -0.333584  -0.215798  0  3.593768  0
N  N82  1  0.37839051  0.57708468  0.33345057  1  0  -0.316891  0  3.33013  0  0  -0.228974  0  3.605368  0  0  -0.248631  0  3.622421  0  0  -0.333586  -0.215785  0  3.593765  0
N  N83  1  0.12161007  0.07708504  0.16654923  1  0  -0.316886  0  3.330155  0  0  -0.228986  0  3.605408  0  0  -0.248642  0  3.62246  0  0  -0.333585  -0.215799  0  3.593808  0
Cl  Cl84  1  0.92375006  0.22159307  0.32856985  1  0  -0.572321  0  0.948587  0  0  -0.517813  0  1.22467  0  0  -0.532714  0  1.202345  0  0  -0.327096  -0.506238  0  1.240288  0
Cl  Cl85  1  0.57625059  0.72159367  0.17142952  1  0  -0.572309  0  0.94858  0  0  -0.517808  0  1.224664  0  0  -0.532707  0  1.202335  0  0  -0.327092  -0.506237  0  1.240282  0
Cl  Cl86  1  0.07624994  0.77840623  0.67142952  1  0  -0.572336  0  0.948592  0  0  -0.517827  0  1.224679  0  0  -0.532729  0  1.202347  0  0  -0.327092  -0.506251  0  1.240297  0
Cl  Cl87  1  0.42374942  0.27840758  0.82857140  1  0  -0.57232  0  0.948593  0  0  -0.517813  0  1.224673  0  0  -0.532715  0  1.202346  0  0  -0.327084  -0.506236  0  1.240289  0
Cl  Cl88  1  0.30309354  0.07032690  0.44665277  1  0  -0.560813  0  0.940281  0  0  -0.497755  0  1.206041  0  0  -0.513733  0  1.183925  0  0  -0.313558  -0.486476  0  1.219867  0
Cl  Cl89  1  0.19690704  0.57032554  0.05334548  1  0  -0.560822  0  0.940298  0  0  -0.497765  0  1.206054  0  0  -0.513745  0  1.183941  0  0  -0.313562  -0.486492  0  1.219886  0
Cl  Cl90  1  0.69690762  0.92967239  0.55334683  1  0  -0.560825  0  0.940232  0  0  -0.497772  0  1.205992  0  0  -0.513752  0  1.183881  0  0  -0.313576  -0.486497  0  1.219823  0
Cl  Cl91  1  0.80309296  0.42967376  0.94665389  1  0  -0.560824  0  0.940293  0  0  -0.497765  0  1.206055  0  0  -0.513742  0  1.183939  0  0  -0.313559  -0.486485  0  1.21988  0
