# generated using pymatgen
data_MnH8C12(NO2)2
_symmetry_space_group_name_H-M   'P 1'
_cell_length_a   10.02485169
_cell_length_b   10.10940086
_cell_length_c   13.62589669
_cell_angle_alpha   89.99926482
_cell_angle_beta   90.00098642
_cell_angle_gamma   106.93494711
_symmetry_Int_Tables_number   1
_chemical_formula_structural   MnH8C12(NO2)2
_chemical_formula_sum   'Mn4 H32 C48 N8 O16'
_cell_volume   1321.03775167
_cell_formula_units_Z   4
loop_
 _symmetry_equiv_pos_site_id
 _symmetry_equiv_pos_as_xyz
  1  'x, y, z'
loop_
 _atom_site_type_symbol
 _atom_site_label
 _atom_site_symmetry_multiplicity
 _atom_site_fract_x
 _atom_site_fract_y
 _atom_site_fract_z
 _atom_site_occupancy
 _atom_site_pbe_bader_charge
 _atom_site_pbe_bader_spin_density
 _atom_site_pbe_cm5_charge
 _atom_site_pbe_ddec_charge
 _atom_site_pbe_ddec_spin_density
 _atom_site_pbe_ddec_sum_bond_order
 _atom_site_pbe_magmom
Mn  Mn0  1  0.88117582  0.74803243  0.88923876  1  1.548049  4.505826  0.621333  0.953429  4.640017  2.439976  4.443
Mn  Mn1  1  0.11882788  0.25197311  0.38923922  1  1.548149  4.505792  0.621355  0.953545  4.63998  2.43993  4.443
Mn  Mn2  1  0.37339642  0.75131246  0.88679976  1  1.539834  4.512917  0.613418  0.942567  4.64018  2.433172  4.449
Mn  Mn3  1  0.62659139  0.24869359  0.38680294  1  1.539745  4.513006  0.613425  0.94259  4.640259  2.432927  4.449
H  H4  1  0.59399406  0.68259031  0.17237657  1  0.086215  0.000779  0.106702  0.111479  0.000338  1.023462  0.0
H  H5  1  0.40599581  0.31741216  0.67239491  1  0.086109  0.000779  0.106723  0.111544  0.000338  1.023421  0.0
H  H6  1  0.61184881  0.54628270  0.32266103  1  0.110486  0.001418  0.121893  0.093721  0.000653  0.979397  0.0
H  H7  1  0.38815469  0.45373181  0.82267195  1  0.110437  0.001417  0.121876  0.093699  0.000652  0.979479  0.0
H  H8  1  0.63728821  0.21200069  0.15769680  1  0.108616  0.001081  0.114821  0.080414  0.000479  1.043532  0.001
H  H9  1  0.36272150  0.78800264  0.65769680  1  0.108626  0.001081  0.114785  0.080381  0.000479  1.043542  0.001
H  H10  1  0.62768839  0.33625635  0.99941101  1  0.088313  0.001013  0.113757  0.124959  0.000478  0.977065  0.0
H  H11  1  0.37231492  0.66372639  0.49941724  1  0.088386  0.001013  0.11376  0.124935  0.000478  0.977227  0.0
H  H12  1  0.89543406  0.51618360  0.13183735  1  0.108506  0.00077  0.104812  0.112043  7.8e-05  1.037807  0.0
H  H13  1  0.10456476  0.48380327  0.63184148  1  0.108692  0.00077  0.104809  0.112014  7.8e-05  1.037868  0.0
H  H14  1  0.91613246  0.38814558  0.28703230  1  0.128136  0.00115  0.117718  0.088841  0.000349  1.065421  0.001
H  H15  1  0.08387210  0.61185709  0.78702831  1  0.128313  0.00115  0.117756  0.088865  0.000349  1.065392  0.001
H  H16  1  0.30223290  0.35528911  0.20398820  1  0.091024  0.001352  0.113958  0.080618  0.000524  1.022567  0.001
H  H17  1  0.69776797  0.64472976  0.70398058  1  0.090922  0.001352  0.113955  0.080639  0.000524  1.022659  0.001
H  H18  1  0.29416313  0.47779711  0.04347408  1  0.145496  0.000537  0.105463  0.118287  -0.000341  1.054494  0.0
H  H19  1  0.70584607  0.52221061  0.54346482  1  0.145579  0.000537  0.105465  0.118337  -0.000341  1.054449  0.0
H  H20  1  0.69402251  0.83362996  0.60155262  1  0.067034  0.000734  0.10894  0.114109  0.000294  1.015338  0.0
H  H21  1  0.30598134  0.16636359  0.10156433  1  0.068037  0.000734  0.108928  0.114156  0.000294  1.015227  0.0
H  H22  1  0.66758380  0.96621785  0.45101566  1  0.115069  0.001462  0.121579  0.094217  0.000644  0.994124  0.001
H  H23  1  0.33241840  0.03377258  0.95102337  1  0.115258  0.001461  0.121525  0.094101  0.000643  0.994308  0.001
H  H24  1  0.61488727  0.28977257  0.61610134  1  0.101961  0.000982  0.113903  0.07807  0.000369  1.053644  0.001
H  H25  1  0.38511418  0.71021048  0.11610213  1  0.101789  0.000982  0.113956  0.078065  0.000369  1.05361  0.001
H  H26  1  0.62206047  0.16386635  0.77431691  1  0.081103  0.001033  0.11412  0.125461  0.000485  0.976078  0.0
H  H27  1  0.37792844  0.83611954  0.27431198  1  0.081149  0.001032  0.114145  0.125532  0.000485  0.976144  0.0
H  H28  1  0.35687628  0.99152418  0.64219293  1  0.082295  0.000769  0.102215  0.106638  0.0001  1.048888  0.0
H  H29  1  0.64313790  0.00849383  0.14221335  1  0.082308  0.000769  0.102258  0.106772  0.0001  1.048761  0.0
H  H30  1  0.32711721  0.11381529  0.48785342  1  0.15128  0.001049  0.116707  0.089148  0.000189  1.06876  0.001
H  H31  1  0.67289009  0.88622200  0.98786222  1  0.151184  0.00105  0.116583  0.088931  0.000189  1.068632  0.001
H  H32  1  0.94746521  0.15250184  0.58243879  1  0.101354  0.00128  0.115578  0.082949  0.000554  1.012965  0.001
H  H33  1  0.05252810  0.84748747  0.08246049  1  0.101518  0.001279  0.115592  0.082961  0.000554  1.012927  0.001
H  H34  1  0.95782898  0.02117196  0.73802632  1  0.156762  0.000425  0.108489  0.124226  -0.000393  1.050079  0.0
H  H35  1  0.04216818  0.97881054  0.23804808  1  0.157348  0.000425  0.108427  0.124078  -0.000393  1.050105  0.0
C  C36  1  0.58674259  0.59035857  0.97898517  1  1.614724  0.028303  0.223616  0.578648  0.026713  4.218408  0.024
C  C37  1  0.41327295  0.40964224  0.47899879  1  1.61483  0.028302  0.223664  0.578727  0.026709  4.218583  0.024
C  C38  1  0.60565987  0.51854763  0.07302251  1  0.011712  0.009545  0.011381  0.026124  0.006659  3.93455  0.005
C  C39  1  0.39435684  0.48145181  0.57302369  1  0.011143  0.009546  0.011291  0.02613  0.006658  3.934621  0.005
C  C40  1  0.60285475  0.57811302  0.16562969  1  -0.053977  0.003913  -0.080497  -0.156154  0.002681  3.94953  0.002
C  C41  1  0.39714726  0.42188688  0.66564029  1  -0.053884  0.003914  -0.080425  -0.156183  0.002682  3.949587  0.002
C  C42  1  0.61270440  0.50283020  0.24945653  1  0.486127  0.006409  0.053691  0.099923  0.004782  3.943821  0.004
C  C43  1  0.38727152  0.49716167  0.74946481  1  0.485775  0.006412  0.053521  0.099786  0.004783  3.943916  0.004
C  C44  1  0.62667845  0.31619012  0.15715241  1  0.464693  0.005851  0.048197  0.085939  0.004468  3.965763  0.003
C  C45  1  0.37332018  0.68381284  0.65715355  1  0.464184  0.005853  0.04819  0.085886  0.004469  3.965762  0.003
C  C46  1  0.62087603  0.38537029  0.06969797  1  -0.043424  0.0041  -0.079256  -0.153308  0.002892  3.951166  0.002
C  C47  1  0.37912140  0.61462443  0.56970353  1  -0.043321  0.004101  -0.079184  -0.153202  0.002893  3.951366  0.002
C  C48  1  0.08281061  0.58142442  0.98264127  1  1.599042  0.031057  0.227739  0.593602  0.029358  4.172683  0.026
C  C49  1  0.91717432  0.41857734  0.48264423  1  1.599413  0.031037  0.227806  0.594127  0.029341  4.172831  0.026
C  C50  1  0.09227475  0.50398755  0.07556746  1  -0.093724  0.008751  0.000303  0.007286  0.006278  3.954018  0.004
C  C51  1  0.90771835  0.49599773  0.57556025  1  -0.093586  0.008748  0.000303  0.007323  0.006274  3.954205  0.004
C  C52  1  0.98566438  0.47954787  0.14518107  1  0.032311  0.005968  -0.081157  -0.139868  0.004155  3.946695  0.003
C  C53  1  0.01433103  0.52044385  0.64518298  1  0.032624  0.005972  -0.081153  -0.139873  0.004159  3.946323  0.003
C  C54  1  0.99703947  0.40880232  0.23077879  1  0.438257  0.006558  0.046969  0.090097  0.004959  3.916968  0.004
C  C55  1  0.00294958  0.59119945  0.73077766  1  0.43779  0.006557  0.047032  0.090181  0.004958  3.916851  0.004
C  C56  1  0.21251450  0.38976951  0.18373266  1  0.458462  0.007442  0.04553  0.090921  0.005572  3.95026  0.004
C  C57  1  0.78748386  0.61023006  0.68371990  1  0.458594  0.007442  0.045643  0.090838  0.005572  3.950175  0.004
C  C58  1  0.20780911  0.45702041  0.09536747  1  -0.018634  0.004612  -0.086491  -0.159805  0.003313  3.961141  0.003
C  C59  1  0.79219798  0.54297844  0.59535616  1  -0.019336  0.004613  -0.08664  -0.160021  0.003314  3.961357  0.003
C  C60  1  0.66849731  0.91193628  0.79387777  1  1.613797  0.027651  0.229779  0.588775  0.025848  4.187814  0.024
C  C61  1  0.33150059  0.08805174  0.29387515  1  1.613966  0.027639  0.229761  0.58875  0.025838  4.188026  0.024
C  C62  1  0.65802307  0.98789288  0.70041926  1  -0.043131  0.009202  0.010683  0.021791  0.006398  3.950489  0.005
C  C63  1  0.34198664  0.01210278  0.20043073  1  -0.043251  0.009208  0.010781  0.021936  0.006401  3.950357  0.005
C  C64  1  0.67284488  0.93294642  0.60813432  1  0.020909  0.003934  -0.080565  -0.160478  0.002821  3.973346  0.002
C  C65  1  0.32716205  0.06704306  0.10813773  1  0.019978  0.003933  -0.080545  -0.160512  0.002819  3.973212  0.002
C  C66  1  0.65980339  0.00667845  0.52427198  1  0.465561  0.00701  0.052378  0.094575  0.005321  3.943254  0.004
C  C67  1  0.34018874  0.99331149  0.02427459  1  0.46573  0.007013  0.052399  0.094655  0.005324  3.943383  0.004
C  C68  1  0.62962267  0.18728568  0.61666924  1  0.479067  0.005795  0.046645  0.084258  0.00444  3.960197  0.003
C  C69  1  0.37037270  0.81270842  0.11667398  1  0.479262  0.0058  0.046603  0.084327  0.004444  3.959868  0.003
C  C70  1  0.63499564  0.11779878  0.70394166  1  -0.026325  0.004519  -0.078867  -0.150088  0.003195  3.95139  0.003
C  C71  1  0.36499358  0.88218692  0.20395006  1  -0.026786  0.00452  -0.078902  -0.150229  0.003195  3.951229  0.003
C  C72  1  0.17270226  0.91821707  0.79441845  1  1.590191  0.031971  0.222508  0.582213  0.030034  4.191431  0.027
C  C73  1  0.82729777  0.08179048  0.29443091  1  1.591764  0.031972  0.222458  0.582024  0.030032  4.191415  0.027
C  C74  1  0.15886014  0.99615949  0.70213415  1  -0.017996  0.008977  -0.000194  0.007542  0.006487  3.943888  0.004
C  C75  1  0.84114572  0.00384422  0.20215562  1  -0.019757  0.008973  -0.000198  0.007541  0.006484  3.943869  0.004
C  C76  1  0.26350163  0.02363068  0.63063893  1  -0.103408  0.005584  -0.086538  -0.15179  0.003761  3.967326  0.003
C  C77  1  0.73650647  0.97638418  0.13065694  1  -0.103594  0.005586  -0.08664  -0.152153  0.003763  3.967504  0.003
C  C78  1  0.24817489  0.09350410  0.54552043  1  0.468053  0.005967  0.042016  0.08129  0.004553  3.936932  0.004
C  C79  1  0.75184002  0.90652530  0.04553417  1  0.467411  0.005964  0.042244  0.08179  0.004547  3.936802  0.004
C  C80  1  0.03604344  0.11395511  0.59833167  1  0.459078  0.007198  0.04976  0.097589  0.005329  3.935439  0.004
C  C81  1  0.96395074  0.88603609  0.09835341  1  0.457407  0.007196  0.049847  0.097535  0.005325  3.93542  0.004
C  C82  1  0.04274467  0.04320645  0.68504928  1  -0.008975  0.004851  -0.079828  -0.143028  0.00343  3.928815  0.003
C  C83  1  0.95725015  0.95679093  0.18506585  1  -0.007999  0.004851  -0.079829  -0.142774  0.003431  3.928851  0.003
N  N84  1  0.62194012  0.37256514  0.24619872  1  -1.262352  0.050652  -0.310844  -0.245926  0.035727  3.46982  0.02
N  N85  1  0.37805610  0.62743977  0.74620561  1  -1.26162  0.050655  -0.31073  -0.245793  0.035729  3.469566  0.02
N  N86  1  0.10876217  0.36462574  0.25024665  1  -1.24814  0.052528  -0.316195  -0.237738  0.035809  3.490441  0.019
N  N87  1  0.89123723  0.63538332  0.75024595  1  -1.247936  0.052526  -0.316247  -0.237704  0.035815  3.490378  0.019
N  N88  1  0.63960094  0.13261492  0.52770661  1  -1.257366  0.052145  -0.312552  -0.239903  0.036622  3.471669  0.021
N  N89  1  0.36040005  0.86737427  0.02770483  1  -1.257443  0.052155  -0.312541  -0.239916  0.03662  3.471282  0.021
N  N90  1  0.13616739  0.13869265  0.52902958  1  -1.255665  0.051193  -0.314511  -0.244648  0.035118  3.481902  0.018
N  N91  1  0.86383279  0.86132005  0.02904150  1  -1.254534  0.051182  -0.31463  -0.244821  0.035124  3.481955  0.018
O  O92  1  0.47658052  0.62862978  0.97528913  1  -1.197695  0.063754  -0.297276  -0.555848  0.046988  2.362276  0.032
O  O93  1  0.52342472  0.37136253  0.47530670  1  -1.197337  0.063767  -0.297318  -0.555869  0.04699  2.36263  0.032
O  O94  1  0.67583566  0.60185883  0.91149360  1  -1.18836  0.053832  -0.306627  -0.558874  0.037189  2.320043  0.02
O  O95  1  0.32418064  0.39813562  0.41150181  1  -1.188224  0.053808  -0.306609  -0.558926  0.037188  2.319862  0.02
O  O96  1  0.97353285  0.61900346  0.97220185  1  -1.193936  0.076299  -0.302612  -0.554335  0.055657  2.358409  0.041
O  O97  1  0.02644648  0.38099311  0.47219108  1  -1.19389  0.076307  -0.302773  -0.554819  0.055669  2.358319  0.041
O  O98  1  0.18335003  0.60174509  0.92188910  1  -1.214542  0.063757  -0.313593  -0.567251  0.044619  2.377405  0.027
O  O99  1  0.81664749  0.39825679  0.42189321  1  -1.214913  0.063755  -0.313489  -0.567288  0.044619  2.37766  0.027
O  O100  1  0.77618015  0.87175429  0.80271769  1  -1.187762  0.061864  -0.289587  -0.540501  0.045778  2.346905  0.031
O  O101  1  0.22383571  0.12827112  0.30270159  1  -1.187655  0.061863  -0.289797  -0.540661  0.045779  2.346656  0.031
O  O102  1  0.57096871  0.89814086  0.85604414  1  -1.195396  0.057759  -0.309145  -0.558967  0.040331  2.3582  0.022
O  O103  1  0.42901160  0.10184686  0.35604922  1  -1.195614  0.057747  -0.309004  -0.558943  0.040321  2.358517  0.022
O  O104  1  0.28416632  0.88220602  0.80132602  1  -1.197487  0.076838  -0.308186  -0.567958  0.056341  2.37027  0.042
O  O105  1  0.71584198  0.11780583  0.30133307  1  -1.197463  0.076822  -0.308106  -0.567793  0.056335  2.370375  0.042
O  O106  1  0.07667677  0.89663740  0.85830292  1  -1.205203  0.059633  -0.312085  -0.565259  0.041368  2.335717  0.024
O  O107  1  0.92331186  0.10336286  0.35832886  1  -1.2053  0.059629  -0.312102  -0.565245  0.041361  2.335441  0.024
