# generated using pymatgen
data_AlH4C14NO5
_symmetry_space_group_name_H-M   'P 1'
_cell_length_a   6.67510203
_cell_length_b   18.78294075
_cell_length_c   22.05594264
_cell_angle_alpha   93.29996163
_cell_angle_beta   89.99927040
_cell_angle_gamma   89.99793708
_symmetry_Int_Tables_number   1
_chemical_formula_structural   AlH4C14NO5
_chemical_formula_sum   'Al4 H16 C56 N4 O20'
_cell_volume   2760.74566825
_cell_formula_units_Z   4
loop_
 _symmetry_equiv_pos_site_id
 _symmetry_equiv_pos_as_xyz
  1  'x, y, z'
loop_
 _atom_site_type_symbol
 _atom_site_label
 _atom_site_symmetry_multiplicity
 _atom_site_fract_x
 _atom_site_fract_y
 _atom_site_fract_z
 _atom_site_occupancy
 _atom_site_pbe_bader_charge
 _atom_site_pbe_bader_spin_density
 _atom_site_pbe_cm5_charge
 _atom_site_pbe_ddec_charge
 _atom_site_pbe_ddec_spin_density
 _atom_site_pbe_ddec_sum_bond_order
 _atom_site_pbe_magmom
Al  Al0  1  0.22537027  0.74958958  0.74965819  1  2.502234  0  0.404129  1.641765  0  2.577993  0
Al  Al1  1  0.77463829  0.25040964  0.25034307  1  2.50218  0  0.404133  1.641927  0  2.578094  0
Al  Al2  1  0.72537006  0.75041937  0.75034341  1  2.502378  0  0.404355  1.642113  0  2.577583  0
Al  Al3  1  0.27463850  0.24958843  0.24965882  1  2.502277  0  0.404262  1.641759  0  2.577887  0
H  H4  1  0.73423081  0.42111082  0.14486226  1  0.124361  0  0.117581  0.128516  0  0.985815  0
H  H5  1  0.26577925  0.57889370  0.85513858  1  0.124378  0  0.11753  0.128492  0  0.985771  0
H  H6  1  0.23420376  0.07889204  0.35513076  1  0.124108  0  0.117556  0.128486  0  0.98555  0
H  H7  1  0.76575985  0.92109654  0.64485226  1  0.124684  0  0.11758  0.128493  0  0.985828  0
H  H8  1  0.56275365  0.52081040  0.09645020  1  0.066266  0  0.110614  0.114  0  0.976873  0
H  H9  1  0.43725791  0.47919202  0.90355107  1  0.067061  0  0.110594  0.114019  0  0.97691  0
H  H10  1  0.06272690  0.97919538  0.40354988  1  0.066945  0  0.110582  0.113977  0  0.976841  0
H  H11  1  0.93721874  0.02079818  0.59644544  1  0.06619  0  0.110616  0.114031  0  0.977118  0
H  H12  1  0.54827174  0.60630356  0.01558420  1  0.112677  0  0.110839  0.117773  0  0.998153  0
H  H13  1  0.45176228  0.39369566  0.98441705  1  0.112531  0  0.11078  0.117644  0  0.997702  0
H  H14  1  0.04823247  0.89370078  0.48441548  1  0.112372  0  0.110803  0.117793  0  0.99808  0
H  H15  1  0.95171767  0.10629892  0.51558487  1  0.112966  0  0.110807  0.117698  0  0.997885  0
H  H16  1  0.47729058  0.66263100  0.72121493  1  0.601669  0  0.357204  0.435679  0  0.845376  0
H  H17  1  0.52272547  0.33737046  0.27878816  1  0.601626  0  0.35716  0.435622  0  0.8454  0
H  H18  1  0.97727876  0.83737301  0.77879322  1  0.601509  0  0.357062  0.43545  0  0.845567  0
H  H19  1  0.02273729  0.16263065  0.22121124  1  0.601645  0  0.35716  0.435623  0  0.845429  0
C  C20  1  0.47471009  0.83488828  0.83667141  1  1.70856  0  0.281099  0.711265  0  4.16979  0
C  C21  1  0.52529846  0.16512617  0.16333540  1  1.709001  0  0.281107  0.711239  0  4.170396  0
C  C22  1  0.97469827  0.66511926  0.66333269  1  1.708671  0  0.280983  0.711048  0  4.170476  0
C  C23  1  0.02530429  0.33488039  0.33666675  1  1.709109  0  0.281125  0.71128  0  4.169919  0
C  C24  1  0.47533833  0.83305431  0.67020262  1  1.601318  0  0.271403  0.64271  0  4.101826  0
C  C25  1  0.52466124  0.16693724  0.32979495  1  1.600807  0  0.271449  0.642723  0  4.101585  0
C  C26  1  0.97530447  0.66694344  0.82979823  1  1.601481  0  0.271399  0.642563  0  4.102559  0
C  C27  1  0.02470558  0.33305900  0.17020350  1  1.601321  0  0.271449  0.642693  0  4.10185  0
C  C28  1  0.17944277  0.38132809  0.07524698  1  0.0946  0  0.016846  -0.002713  0  4.006301  0
C  C29  1  0.82057628  0.61867417  0.92475157  1  0.094298  0  0.016717  -0.002891  0  4.006387  0
C  C30  1  0.67941146  0.11866406  0.42475120  1  0.094545  0  0.016532  -0.003088  0  4.00645  0
C  C31  1  0.32055066  0.88132692  0.57524546  1  0.094468  0  0.016772  -0.002651  0  4.006569  0
C  C32  1  0.02098744  0.38020326  0.11776167  1  -0.020589  0  0.002381  -0.051561  0  3.943814  0
C  C33  1  0.97902112  0.61980086  0.88224144  1  -0.020167  0  0.002428  -0.051237  0  3.943588  0
C  C34  1  0.52098024  0.11979162  0.38223997  1  -0.020088  0  0.002521  -0.050998  0  3.942929  0
C  C35  1  0.47901184  0.88019453  0.61775620  1  -0.019662  0  0.002488  -0.051412  0  3.943902  0
C  C36  1  0.85626837  0.42486273  0.11238480  1  0.007637  0  -0.065758  -0.123485  0  3.928074  0
C  C37  1  0.14373270  0.57514405  0.88761833  1  0.007068  0  -0.06575  -0.123626  0  3.927716  0
C  C38  1  0.35624637  0.07513115  0.38761760  1  0.008014  0  -0.065817  -0.123704  0  3.927763  0
C  C39  1  0.64371725  0.92484795  0.61237625  1  0.006768  0  -0.065913  -0.123807  0  3.928212  0
C  C40  1  0.84628042  0.47390556  0.06693489  1  -0.021253  0  -0.001211  0.078484  0  4.041736  0
C  C41  1  0.15373862  0.52609076  0.93307134  1  -0.021258  0  -0.001171  0.078523  0  4.042182  0
C  C42  1  0.34626308  0.02609524  0.43306533  1  -0.021784  0  -0.00108  0.078538  0  4.042228  0
C  C43  1  0.65371701  0.97390040  0.56692909  1  -0.021389  0  -0.001097  0.078784  0  4.041676  0
C  C44  1  0.00451582  0.47560365  0.02347095  1  -0.033631  0  0.007382  0.003866  0  3.922991  0
C  C45  1  0.99551071  0.52440216  0.97652445  1  0.029798  0  0.007331  0.003796  0  3.923306  0
C  C46  1  0.50448158  0.02439472  0.47652307  1  -0.032981  0  0.007395  0.003905  0  3.922848  0
C  C47  1  0.49548504  0.97559137  0.52347219  1  0.029357  0  0.007379  0.00387  0  3.922716  0
C  C48  1  0.17120478  0.42823165  0.02683402  1  0.030419  0  0.007669  0.04637  0  3.985013  0
C  C49  1  0.82879629  0.57177549  0.97316593  1  0.031089  0  0.00784  0.04651  0  3.984661  0
C  C50  1  0.67116880  0.07176364  0.47316150  1  0.029897  0  0.007731  0.046489  0  3.984246  0
C  C51  1  0.32877984  0.92821939  0.52683601  1  0.030337  0  0.007886  0.046627  0  3.984404  0
C  C52  1  0.68274493  0.52255487  0.06294715  1  -0.038825  0  -0.078373  -0.112715  0  3.981194  0
C  C53  1  0.31726363  0.47745112  0.93705143  1  -0.040465  0  -0.078349  -0.112814  0  3.981529  0
C  C54  1  0.18271697  0.97744582  0.43705554  1  -0.039777  0  -0.078444  -0.112853  0  3.980977  0
C  C55  1  0.81725863  0.02254403  0.56294928  1  -0.038519  0  -0.078462  -0.112955  0  3.981646  0
C  C56  1  0.67462968  0.56985773  0.01820533  1  -0.043206  0  -0.081932  -0.121293  0  3.991389  0
C  C57  1  0.32536989  0.43015223  0.98179736  1  -0.042196  0  -0.081839  -0.121083  0  3.991036  0
C  C58  1  0.17460175  0.93014075  0.48179420  1  -0.042394  0  -0.081917  -0.121304  0  3.991074  0
C  C59  1  0.82534539  0.06984236  0.51820467  1  -0.043418  0  -0.0818  -0.12114  0  3.990806  0
C  C60  1  0.02448868  0.38471818  0.38865289  1  0.075008  0  0.004115  -0.13328  0  3.824806  0
C  C61  1  0.97552886  0.61529736  0.61135438  1  0.073866  0  0.004128  -0.133223  0  3.82493  0
C  C62  1  0.52450361  0.11529450  0.11134431  1  0.075095  0  0.004098  -0.133153  0  3.824977  0
C  C63  1  0.47550495  0.88470643  0.88864969  1  0.074561  0  0.004153  -0.133233  0  3.825424  0
C  C64  1  0.01597629  0.42884429  0.43176034  1  -0.130619  0  -0.004633  0.033729  0  4.243374  0
C  C65  1  0.98406073  0.57116921  0.56823920  1  -0.129554  0  -0.004618  0.033607  0  4.242631  0
C  C66  1  0.51599304  0.07117681  0.06823333  1  -0.130395  0  -0.004679  0.033522  0  4.243629  0
C  C67  1  0.48402451  0.92883901  0.93176032  1  -0.130137  0  -0.004614  0.033617  0  4.242929  0
C  C68  1  0.00540820  0.47744810  0.47859550  1  0.06386  0  0.004006  0.000788  0  4.180833  0
C  C69  1  0.99465130  0.52256191  0.52139902  1  -0.14484  0  0.004266  0.001212  0  4.180618  0
C  C70  1  0.50539891  0.02256474  0.02140043  1  -0.144757  0  0.004064  0.000921  0  4.180708  0
C  C71  1  0.49462612  0.97744708  0.97859773  1  0.06343  0  0.004146  0.001085  0  4.180428  0
C  C72  1  0.34811819  0.33488483  0.07727976  1  0.858087  0  0.18244  0.245736  0  4.033204  0
C  C73  1  0.65190235  0.66511575  0.92271742  1  0.858088  0  0.182525  0.245876  0  4.033181  0
C  C74  1  0.84808219  0.16510745  0.42272085  1  0.857976  0  0.182487  0.245769  0  4.032231  0
C  C75  1  0.15189042  0.83488627  0.57727719  1  0.857955  0  0.182454  0.245609  0  4.032871  0
N  N76  1  0.49117112  0.29897132  0.07323936  1  -1.134385  0  -0.300884  -0.351399  0  2.716014  0
N  N77  1  0.50883295  0.70102814  0.92675691  1  -1.13409  0  -0.300934  -0.351515  0  2.715946  0
N  N78  1  0.99116271  0.20102781  0.42676384  1  -1.133556  0  -0.300802  -0.35141  0  2.715002  0
N  N79  1  0.00881139  0.79896869  0.57324557  1  -1.134216  0  -0.300853  -0.351343  0  2.715472  0
O  O80  1  0.64441176  0.81731718  0.69223152  1  -1.244703  0  -0.228212  -0.579809  0  2.355678  0
O  O81  1  0.35557882  0.18268577  0.30776976  1  -1.244717  0  -0.228269  -0.579915  0  2.355537  0
O  O82  1  0.14444491  0.68269004  0.80776860  1  -1.244706  0  -0.228318  -0.579975  0  2.354756  0
O  O83  1  0.85556365  0.31731253  0.19223540  1  -1.244443  0  -0.228263  -0.579987  0  2.354634  0
O  O84  1  0.30492236  0.81576792  0.81510848  1  -1.235186  0  -0.221919  -0.578972  0  2.287194  0
O  O85  1  0.69507272  0.18423450  0.18489279  1  -1.235523  0  -0.22184  -0.578881  0  2.28776  0
O  O86  1  0.80496012  0.68423449  0.68488953  1  -1.235266  0  -0.221755  -0.578656  0  2.288036  0
O  O87  1  0.19504694  0.31577004  0.31511131  1  -1.235446  0  -0.22169  -0.578606  0  2.288145  0
O  O88  1  0.30421790  0.81475911  0.68925310  1  -1.239099  0  -0.227038  -0.582194  0  2.3642  0
O  O89  1  0.69578017  0.18523719  0.31074359  1  -1.238994  0  -0.227025  -0.582255  0  2.364176  0
O  O90  1  0.80425186  0.68524309  0.81075036  1  -1.239301  0  -0.2269  -0.58193  0  2.36581  0
O  O91  1  0.19577168  0.31476172  0.18925547  1  -1.239305  0  -0.226988  -0.582001  0  2.365254  0
O  O92  1  0.14565786  0.68417483  0.68399813  1  -1.23199  0  -0.222059  -0.578485  0  2.296943  0
O  O93  1  0.85434321  0.31582029  0.31600582  1  -1.232049  0  -0.222097  -0.57858  0  2.296918  0
O  O94  1  0.64564821  0.81582990  0.81600515  1  -1.231866  0  -0.221957  -0.57839  0  2.297119  0
O  O95  1  0.35437982  0.18417178  0.18399249  1  -1.232  0  -0.221884  -0.578268  0  2.29785  0
O  O96  1  0.47589007  0.70648746  0.74670743  1  -1.401064  0  -0.446189  -0.985351  0  2.17919  0
O  O97  1  0.52412598  0.29351413  0.25329793  1  -1.40105  0  -0.44612  -0.985235  0  2.179303  0
O  O98  1  0.97587632  0.79351843  0.75329620  1  -1.400837  0  -0.445994  -0.985019  0  2.179319  0
O  O99  1  0.02412625  0.20648508  0.24670554  1  -1.400858  0  -0.446094  -0.985219  0  2.179296  0
