# generated using pymatgen
data_KH3C7(NO3)2
_symmetry_space_group_name_H-M   'P 1'
_cell_length_a   7.00637376
_cell_length_b   7.50345484
_cell_length_c   10.10267381
_cell_angle_alpha   110.35171316
_cell_angle_beta   108.84903117
_cell_angle_gamma   93.59617847
_symmetry_Int_Tables_number   1
_chemical_formula_structural   KH3C7(NO3)2
_chemical_formula_sum   'K2 H6 C14 N4 O12'
_cell_volume   461.99321915
_cell_formula_units_Z   2
loop_
 _symmetry_equiv_pos_site_id
 _symmetry_equiv_pos_as_xyz
  1  'x, y, z'
loop_
 _atom_site_type_symbol
 _atom_site_label
 _atom_site_symmetry_multiplicity
 _atom_site_fract_x
 _atom_site_fract_y
 _atom_site_fract_z
 _atom_site_occupancy
 _atom_site_hle17_bader_spin_density
 _atom_site_hle17_ddec_charge
 _atom_site_hle17_ddec_spin_density
 _atom_site_hle17_ddec_sum_bond_order
 _atom_site_hle17_magmom
 _atom_site_hse06_10hf_bader_spin_density
 _atom_site_hse06_10hf_ddec_charge
 _atom_site_hse06_10hf_ddec_spin_density
 _atom_site_hse06_10hf_ddec_sum_bond_order
 _atom_site_hse06_10hf_magmom
 _atom_site_hse06_bader_spin_density
 _atom_site_hse06_ddec_charge
 _atom_site_hse06_ddec_spin_density
 _atom_site_hse06_ddec_sum_bond_order
 _atom_site_hse06_magmom
 _atom_site_pbe_bader_spin_density
 _atom_site_pbe_cm5_charge
 _atom_site_pbe_ddec_charge
 _atom_site_pbe_ddec_spin_density
 _atom_site_pbe_ddec_sum_bond_order
 _atom_site_pbe_magmom
K  K0  1  0.79614498  0.54539715  0.09239944  1  0  0.914959  0  0.493514  0  0  0.85158  0  0.701025  0  0  0.870706  0  0.673716  0  0  0.803198  0.837461  0  0.7203  0
K  K1  1  0.20385015  0.45455348  0.90758749  1  0  0.915075  0  0.493464  0  0  0.851564  0  0.701074  0  0  0.870672  0  0.673791  0  0  0.803183  0.837443  0  0.720352  0
H  H2  1  0.79440411  0.15400185  0.54337641  1  0  0.138852  0  0.928955  0  0  0.143001  0  0.994692  0  0  0.148142  0  0.9893  0  0  0.126621  0.139309  0  0.99846  0
H  H3  1  0.24997950  0.38916467  0.54321357  1  0  0.137453  0  0.928202  0  0  0.142631  0  0.99319  0  0  0.147647  0  0.98796  0  0  0.126413  0.138957  0  0.996893  0
H  H4  1  0.20560056  0.84600683  0.45661294  1  0  0.138947  0  0.92888  0  0  0.143104  0  0.994588  0  0  0.148231  0  0.989237  0  0  0.126669  0.139421  0  0.99833  0
H  H5  1  0.75002796  0.61084397  0.45679324  1  0  0.137646  0  0.928164  0  0  0.142699  0  0.99324  0  0  0.14774  0  0.987996  0  0  0.126414  0.139003  0  0.996967  0
H  H6  1  0.30855479  0.05797858  0.11646965  1  0  0.152506  0  0.939929  0  0  0.150016  0  1.014072  0  0  0.155291  0  1.008053  0  0  0.13588  0.146171  0  1.018501  0
H  H7  1  0.69143894  0.94203702  0.88353186  1  0  0.152634  0  0.9399  0  0  0.150092  0  1.014093  0  0  0.155369  0  1.008066  0  0  0.135873  0.146247  0  1.018522  0
C  C8  1  0.61765626  0.36742483  0.73426729  1  0  0.638635  0  4.0071  0  0  0.593771  0  4.306587  0  0  0.625911  0  4.302781  0  0  0.169913  0.572071  0  4.308232  0
C  C9  1  0.38234755  0.63257220  0.26573368  1  0  0.638659  0  4.007247  0  0  0.593815  0  4.306745  0  0  0.625954  0  4.302936  0  0  0.169906  0.572095  0  4.30839  0
C  C10  1  0.53115583  0.28063490  0.56127645  1  0  -0.047901  0  3.700503  0  0  -0.022508  0  3.938206  0  0  -0.03404  0  3.963543  0  0  -0.008167  -0.015505  0  3.921391  0
C  C11  1  0.46884330  0.71936926  0.43872431  1  0  -0.047729  0  3.700389  0  0  -0.022555  0  3.938327  0  0  -0.034081  0  3.963668  0  0  -0.008176  -0.015485  0  3.921414  0
C  C12  1  0.64438137  0.17514901  0.48162303  1  0  -0.05778  0  3.626897  0  0  -0.099181  0  3.882792  0  0  -0.094098  0  3.898658  0  0  -0.049487  -0.101782  0  3.871857  0
C  C13  1  0.33809358  0.30619422  0.48142348  1  0  -0.056618  0  3.625684  0  0  -0.098585  0  3.883315  0  0  -0.093432  0  3.899198  0  0  -0.049688  -0.101208  0  3.872288  0
C  C14  1  0.35563059  0.82485108  0.51837764  1  0  -0.05802  0  3.627175  0  0  -0.0994  0  3.883165  0  0  -0.09434  0  3.899032  0  0  -0.049632  -0.101994  0  3.87223  0
C  C15  1  0.66192090  0.69381166  0.51858521  1  0  -0.056347  0  3.626052  0  0  -0.098581  0  3.883404  0  0  -0.093461  0  3.899265  0  0  -0.049631  -0.101211  0  3.872371  0
C  C16  1  0.56063092  0.09477419  0.32320224  1  0  0.084411  0  3.676584  0  0  0.075671  0  3.924786  0  0  0.069486  0  3.947197  0  0  0.090135  0.079188  0  3.909975  0
C  C17  1  0.26317256  0.22781855  0.32305660  1  0  0.08655  0  3.674914  0  0  0.07419  0  3.926541  0  0  0.068095  0  3.948711  0  0  0.08967  0.077688  0  3.911696  0
C  C18  1  0.43936382  0.90522266  0.67679561  1  0  0.084687  0  3.676359  0  0  0.075745  0  3.924814  0  0  0.069587  0  3.947197  0  0  0.090171  0.07919  0  3.910093  0
C  C19  1  0.73682668  0.77217837  0.67694528  1  0  0.084393  0  3.675943  0  0  0.074135  0  3.926595  0  0  0.068036  0  3.948776  0  0  0.08971  0.077639  0  3.911742  0
C  C20  1  0.37027046  0.11960743  0.23989650  1  0  -0.065592  0  3.597171  0  0  -0.105925  0  3.857242  0  0  -0.099569  0  3.869838  0  0  -0.036387  -0.109735  0  3.848831  0
C  C21  1  0.62972042  0.88039362  0.76011047  1  0  -0.065279  0  3.597205  0  0  -0.106026  0  3.857074  0  0  -0.099678  0  3.869666  0  0  -0.036427  -0.109817  0  3.84868  0
N  N22  1  0.67477207  0.97428881  0.24057588  1  0  0.474075  0  3.954688  0  0  0.52982  0  4.20735  0  0  0.551175  0  4.216974  0  0  0.045638  0.515544  0  4.200983  0
N  N23  1  0.06636671  0.26556662  0.24026071  1  0  0.463781  0  3.957626  0  0  0.525762  0  4.207403  0  0  0.547099  0  4.217  0  0  0.043376  0.511486  0  4.201018  0
N  N24  1  0.32522321  0.02571093  0.75942285  1  0  0.473981  0  3.954714  0  0  0.529836  0  4.207275  0  0  0.551189  0  4.216895  0  0  0.045623  0.515578  0  4.200916  0
N  N25  1  0.93363962  0.73445211  0.75974846  1  0  0.46873  0  3.955647  0  0  0.525749  0  4.207201  0  0  0.547086  0  4.216796  0  0  0.043326  0.511475  0  4.20082  0
O  O26  1  0.80004746  0.35204152  0.79897118  1  0  -0.723509  0  1.95333  0  0  -0.680514  0  2.193687  0  0  -0.706132  0  2.186283  0  0  -0.478299  -0.662099  0  2.198008  0
O  O27  1  0.50008687  0.44769437  0.79899342  1  0  -0.722553  0  1.952539  0  0  -0.679655  0  2.192858  0  0  -0.705244  0  2.185434  0  0  -0.477045  -0.661304  0  2.197127  0
O  O28  1  0.19995643  0.64796416  0.20103404  1  0  -0.723524  0  1.953301  0  0  -0.680555  0  2.193705  0  0  -0.706171  0  2.186304  0  0  -0.47829  -0.662144  0  2.19804  0
O  O29  1  0.49990605  0.55228507  0.20100543  1  0  -0.722574  0  1.952721  0  0  -0.679632  0  2.192931  0  0  -0.705221  0  2.185513  0  0  -0.476984  -0.661283  0  2.197206  0
O  O30  1  0.59380250  0.89494564  0.10007663  1  0  -0.348552  0  1.781606  0  0  -0.343498  0  1.981643  0  0  -0.355382  0  1.977065  0  0  -0.123504  -0.335563  0  1.984922  0
O  O31  1  0.00699706  0.20455883  0.09972885  1  0  -0.342403  0  1.780593  0  0  -0.340039  0  1.980213  0  0  -0.351931  0  1.975638  0  0  -0.122801  -0.332121  0  1.983455  0
O  O32  1  0.40616982  0.10503630  0.89991320  1  0  -0.34834  0  1.78177  0  0  -0.343375  0  1.981811  0  0  -0.355255  0  1.977234  0  0  -0.12342  -0.335442  0  1.985084  0
O  O33  1  0.99301260  0.79546141  0.90027950  1  0  -0.344841  0  1.780733  0  0  -0.339915  0  1.980235  0  0  -0.351796  0  1.975651  0  0  -0.122661  -0.332  0  1.983482  0
O  O34  1  0.84575698  0.95454888  0.31592989  1  0  -0.364471  0  1.764917  0  0  -0.358298  0  1.96311  0  0  -0.37191  0  1.959945  0  0  -0.142409  -0.349301  0  1.965419  0
O  O35  1  0.97057039  0.36044289  0.31545829  1  0  -0.361422  0  1.765578  0  0  -0.358222  0  1.963492  0  0  -0.371778  0  1.9602  0  0  -0.143065  -0.349241  0  1.965874  0
O  O36  1  0.15423649  0.04544804  0.68404987  1  0  -0.364565  0  1.764823  0  0  -0.358419  0  1.962918  0  0  -0.372034  0  1.959756  0  0  -0.142512  -0.349419  0  1.965219  0
O  O37  1  0.02943572  0.63957440  0.68454749  1  0  -0.363955  0  1.765276  0  0  -0.3583  0  1.963169  0  0  -0.371861  0  1.959878  0  0  -0.143135  -0.349311  0  1.965532  0
