# generated using pymatgen
data_NiH30C30(NO)6
_symmetry_space_group_name_H-M   'P 1'
_cell_length_a   8.40249955
_cell_length_b   9.75883043
_cell_length_c   9.65869537
_cell_angle_alpha   59.03819999
_cell_angle_beta   85.68375703
_cell_angle_gamma   85.25777054
_symmetry_Int_Tables_number   1
_chemical_formula_structural   NiH30C30(NO)6
_chemical_formula_sum   'Ni1 H30 C30 N6 O6'
_cell_volume   676.32615362
_cell_formula_units_Z   1
loop_
 _symmetry_equiv_pos_site_id
 _symmetry_equiv_pos_as_xyz
  1  'x, y, z'
loop_
 _atom_site_type_symbol
 _atom_site_label
 _atom_site_symmetry_multiplicity
 _atom_site_fract_x
 _atom_site_fract_y
 _atom_site_fract_z
 _atom_site_occupancy
 _atom_site_hle17_bader_spin_density
 _atom_site_hle17_ddec_charge
 _atom_site_hle17_ddec_spin_density
 _atom_site_hle17_ddec_sum_bond_order
 _atom_site_hle17_magmom
 _atom_site_hse06_10hf_bader_spin_density
 _atom_site_hse06_10hf_ddec_charge
 _atom_site_hse06_10hf_ddec_spin_density
 _atom_site_hse06_10hf_ddec_sum_bond_order
 _atom_site_hse06_10hf_magmom
 _atom_site_hse06_bader_spin_density
 _atom_site_hse06_ddec_charge
 _atom_site_hse06_ddec_spin_density
 _atom_site_hse06_ddec_sum_bond_order
 _atom_site_hse06_magmom
 _atom_site_pbe_bader_spin_density
 _atom_site_pbe_cm5_charge
 _atom_site_pbe_ddec_charge
 _atom_site_pbe_ddec_spin_density
 _atom_site_pbe_ddec_sum_bond_order
 _atom_site_pbe_magmom
Ni  Ni0  1  0.49999789  0.50000025  0.50000035  1  0  0.619743  0  2.279178  0  0  0.586139  0  2.734668  0  0  0.662985  0  2.65562  0  0  0.630642  0.545911  0  2.782577  0
H  H1  1  0.21022957  0.63547939  0.04785952  1  0  0.108663  0  0.945219  0  0  0.122559  0  1.009948  0  0  0.124252  0  1.010086  0  0  0.104098  0.121645  0  1.0096  0
H  H2  1  0.78977403  0.36449607  0.95214284  1  0  0.108584  0  0.945219  0  0  0.12246  0  1.01002  0  0  0.124159  0  1.010146  0  0  0.103991  0.121538  0  1.009663  0
H  H3  1  0.23701277  0.43410899  0.10591700  1  0  0.100613  0  0.931933  0  0  0.11632  0  0.992449  0  0  0.117507  0  0.992626  0  0  0.099812  0.11565  0  0.992255  0
H  H4  1  0.76298975  0.56586140  0.89410040  1  0  0.100654  0  0.931913  0  0  0.116425  0  0.992361  0  0  0.117605  0  0.99255  0  0  0.099859  0.115768  0  0.992153  0
H  H5  1  0.40660021  0.63955604  0.86180984  1  0  0.067105  0  0.951901  0  0  0.081434  0  1.020766  0  0  0.081795  0  1.021662  0  0  0.086252  0.081303  0  1.019889  0
H  H6  1  0.59340357  0.36041219  0.13819820  1  0  0.067149  0  0.951943  0  0  0.08147  0  1.020656  0  0  0.081836  0  1.021545  0  0  0.086231  0.081333  0  1.019775  0
H  H7  1  0.51908461  0.65346608  0.00228026  1  0  0.064097  0  0.940164  0  0  0.083639  0  0.999396  0  0  0.084452  0  0.999726  0  0  0.087791  0.082965  0  0.999352  0
H  H8  1  0.48092037  0.34650213  0.99772771  1  0  0.064163  0  0.940501  0  0  0.08363  0  0.999665  0  0  0.084443  0  0.999997  0  0  0.087768  0.082957  0  0.999614  0
H  H9  1  0.38663734  0.20937906  0.76573071  1  0  0.094159  0  0.959943  0  0  0.102697  0  1.023209  0  0  0.105429  0  1.018999  0  0  0.124092  0.100572  0  1.026641  0
H  H10  1  0.61336701  0.79061277  0.23427687  1  0  0.094206  0  0.959894  0  0  0.1027  0  1.023222  0  0  0.105425  0  1.019015  0  0  0.124104  0.10058  0  1.026647  0
H  H11  1  0.43749429  0.91691250  0.85828463  1  0  0.108817  0  0.942222  0  0  0.122347  0  0.995746  0  0  0.124901  0  0.995887  0  0  0.114067  0.120835  0  0.995071  0
H  H12  1  0.56251356  0.08308287  0.14171889  1  0  0.108814  0  0.94223  0  0  0.122311  0  0.995797  0  0  0.124881  0  0.995918  0  0  0.11405  0.120781  0  0.995137  0
H  H13  1  0.63159052  0.83921324  0.69872835  1  0  0.098542  0  0.941862  0  0  0.110988  0  1.003127  0  0  0.11343  0  1.001404  0  0  0.110931  0.109074  0  1.004557  0
H  H14  1  0.36842079  0.16078680  0.30127365  1  0  0.098504  0  0.941881  0  0  0.111015  0  1.003083  0  0  0.113458  0  1.001358  0  0  0.110946  0.109097  0  1.00451  0
H  H15  1  0.70281213  0.34337856  0.37321456  1  0  0.111585  0  0.96289  0  0  0.112957  0  1.036164  0  0  0.116705  0  1.030636  0  0  0.125886  0.110158  0  1.040079  0
H  H16  1  0.29718234  0.65662672  0.62678486  1  0  0.111592  0  0.962911  0  0  0.11299  0  1.036152  0  0  0.11674  0  1.030621  0  0  0.125901  0.110196  0  1.040063  0
H  H17  1  0.06906967  0.71419109  0.35677849  1  0  0.098892  0  0.978325  0  0  0.109912  0  1.039557  0  0  0.112511  0  1.038305  0  0  0.101677  0.107632  0  1.041103  0
H  H18  1  0.93093415  0.28582244  0.64321102  1  0  0.098862  0  0.978246  0  0  0.109848  0  1.03954  0  0  0.112445  0  1.038292  0  0  0.101673  0.107576  0  1.041075  0
H  H19  1  0.24019675  0.84311524  0.10503351  1  0  0.078623  0  0.962591  0  0  0.0925  0  1.021585  0  0  0.094485  0  1.021725  0  0  0.093839  0.090439  0  1.022765  0
H  H20  1  0.75980685  0.15690653  0.89495707  1  0  0.078711  0  0.96251  0  0  0.092567  0  1.021523  0  0  0.094552  0  1.021662  0  0  0.093866  0.090494  0  1.022708  0
H  H21  1  0.23365665  0.13856661  0.92729556  1  0  0.078096  0  0.996242  0  0  0.090705  0  1.05684  0  0  0.092492  0  1.056591  0  0  0.092751  0.088315  0  1.05912  0
H  H22  1  0.76633739  0.86145533  0.07269865  1  0  0.078072  0  0.996161  0  0  0.090641  0  1.056806  0  0  0.092443  0  1.056541  0  0  0.09277  0.088224  0  1.059119  0
H  H23  1  0.06672327  0.31522834  0.99728564  1  0  0.109427  0  0.939825  0  0  0.12489  0  0.991481  0  0  0.127519  0  0.990354  0  0  0.106614  0.123002  0  0.992318  0
H  H24  1  0.93326853  0.68478763  0.00271377  1  0  0.109507  0  0.939815  0  0  0.124899  0  0.991556  0  0  0.127527  0  0.99043  0  0  0.106604  0.123009  0  0.992401  0
H  H25  1  0.95269931  0.50735877  0.34504094  1  0  0.404293  0  0.870906  0  0  0.381356  0  0.936731  0  0  0.391082  0  0.922387  0  0  0.288886  0.374718  0  0.946531  0
H  H26  1  0.04729519  0.49264535  0.65495803  1  0  0.404263  0  0.870958  0  0  0.381334  0  0.936763  0  0  0.391059  0  0.92242  0  0  0.288859  0.374698  0  0.94656  0
H  H27  1  0.82738719  0.56205869  0.43883955  1  0  0.393048  0  0.919826  0  0  0.356542  0  0.997439  0  0  0.36759  0  0.980577  0  0  0.273359  0.348449  0  1.00986  0
H  H28  1  0.17260969  0.43794534  0.56116034  1  0  0.393152  0  0.91967  0  0  0.356649  0  0.997277  0  0  0.367696  0  0.980415  0  0  0.273421  0.348555  0  1.0097  0
H  H29  1  0.83069817  0.80175177  0.53148048  1  0  0.316654  0  0.903799  0  0  0.29933  0  0.964528  0  0  0.3072  0  0.95837  0  0  0.312485  0.294177  0  0.968169  0
H  H30  1  0.16930102  0.19825591  0.46851226  1  0  0.316857  0  0.903585  0  0  0.299405  0  0.964461  0  0  0.307272  0  0.958301  0  0  0.312499  0.294259  0  0.968094  0
C  C31  1  0.31805593  0.49311973  0.27161903  1  0  0.68279  0  3.801212  0  0  0.637357  0  4.112589  0  0  0.674111  0  4.106203  0  0  0.216083  0.612953  0  4.115122  0
C  C32  1  0.68194378  0.50686754  0.72838699  1  0  0.682897  0  3.801059  0  0  0.637534  0  4.112366  0  0  0.674289  0  4.105976  0  0  0.216102  0.613119  0  4.114908  0
C  C33  1  0.29824934  0.53302205  0.09910020  1  0  -0.265109  0  3.665429  0  0  -0.30506  0  3.920564  0  0  -0.311738  0  3.929682  0  0  -0.162605  -0.300324  0  3.913522  0
C  C34  1  0.70175310  0.46695211  0.90090807  1  0  -0.264991  0  3.665327  0  0  -0.30509  0  3.920412  0  0  -0.311773  0  3.929548  0  0  -0.162531  -0.300337  0  3.913325  0
C  C35  1  0.44738559  0.57329718  0.98654608  1  0  -0.083405  0  3.671291  0  0  -0.122686  0  3.928718  0  0  -0.122322  0  3.942164  0  0  -0.170484  -0.123094  0  3.919765  0
C  C36  1  0.55261578  0.42667231  0.01346148  1  0  -0.083877  0  3.67184  0  0  -0.122724  0  3.92894  0  0  -0.122359  0  3.94239  0  0  -0.170471  -0.123138  0  3.919968  0
C  C37  1  0.46845253  0.16800187  0.70068027  1  0  0.113967  0  3.651708  0  0  0.077464  0  3.911709  0  0  0.089208  0  3.92574  0  0  0.047197  0.069458  0  3.902764  0
C  C38  1  0.53154576  0.83199369  0.29932583  1  0  0.113816  0  3.651888  0  0  0.077365  0  3.911878  0  0  0.089106  0  3.925898  0  0  0.04712  0.06935  0  3.90294  0
C  C39  1  0.49861369  0.00763344  0.74984638  1  0  -0.103635  0  3.741018  0  0  -0.117806  0  3.999777  0  0  -0.124887  0  4.018969  0  0  -0.07841  -0.112693  0  3.985809  0
C  C40  1  0.50138926  0.99236685  0.25015499  1  0  -0.103565  0  3.741127  0  0  -0.117724  0  3.99989  0  0  -0.124821  0  4.019084  0  0  -0.078396  -0.112593  0  3.98591  0
C  C41  1  0.60671736  0.96493154  0.65997710  1  0  -0.034925  0  3.69243  0  0  -0.066438  0  3.947289  0  0  -0.05986  0  3.963093  0  0  -0.063896  -0.071504  0  3.936356  0
C  C42  1  0.39328918  0.03506870  0.34002200  1  0  -0.034991  0  3.692518  0  0  -0.066557  0  3.947344  0  0  -0.059978  0  3.963145  0  0  -0.063921  -0.071609  0  3.936364  0
C  C43  1  0.68229919  0.08573220  0.52099604  1  0  -0.046294  0  3.798449  0  0  -0.023028  0  4.031012  0  0  -0.030299  0  4.052141  0  0  0.003389  -0.018163  0  4.016345  0
C  C44  1  0.31770128  0.91427173  0.47900367  1  0  -0.046254  0  3.798319  0  0  -0.022941  0  4.030847  0  0  -0.030213  0  4.051979  0  0  0.003408  -0.018073  0  4.016176  0
C  C45  1  0.64448243  0.24529438  0.47779119  1  0  0.094392  0  3.622346  0  0  0.05493  0  3.87227  0  0  0.06626  0  3.88661  0  0  0.058318  0.047797  0  3.864143  0
C  C46  1  0.35551449  0.75470845  0.52220930  1  0  0.094415  0  3.622431  0  0  0.054952  0  3.872303  0  0  0.066272  0  3.886629  0  0  0.058319  0.047816  0  3.864182  0
C  C47  1  0.79933632  0.06087236  0.41599862  1  0  0.327584  0  3.804361  0  0  0.293515  0  4.083147  0  0  0.308795  0  4.0984  0  0  0.214273  0.284179  0  4.072443  0
C  C48  1  0.20066173  0.93913280  0.58400167  1  0  0.327657  0  3.804105  0  0  0.293496  0  4.082937  0  0  0.308773  0  4.098186  0  0  0.214277  0.284166  0  4.072238  0
C  C49  1  0.96853387  0.94422560  0.31563593  1  0  0.156532  0  3.782083  0  0  0.148623  0  4.024332  0  0  0.152013  0  4.048364  0  0  0.091873  0.146469  0  4.009889  0
C  C50  1  0.03146164  0.05578571  0.68435730  1  0  0.156518  0  3.782346  0  0  0.148598  0  4.024505  0  0  0.151985  0  4.048532  0  0  0.091826  0.146443  0  4.010083  0
C  C51  1  0.06731238  0.84356977  0.27961476  1  0  -0.148458  0  3.757662  0  0  -0.164234  0  4.005522  0  0  -0.168046  0  4.027903  0  0  -0.097572  -0.161801  0  3.991205  0
C  C52  1  0.93268786  0.15644384  0.72037598  1  0  -0.148394  0  3.757508  0  0  -0.164161  0  4.005379  0  0  -0.16797  0  4.027752  0  0  -0.097529  -0.161726  0  3.991058  0
C  C53  1  0.16271342  0.91730378  0.13869049  1  0  -0.06749  0  3.793987  0  0  -0.084387  0  4.048065  0  0  -0.087382  0  4.074137  0  0  -0.099262  -0.083071  0  4.031579  0
C  C54  1  0.83728669  0.08271453  0.86130102  1  0  -0.067676  0  3.793802  0  0  -0.08455  0  4.04788  0  0  -0.087545  0  4.073953  0  0  -0.099333  -0.083218  0  4.03137  0
C  C55  1  0.16121531  0.08496331  0.03869984  1  0  -0.080212  0  3.820388  0  0  -0.097464  0  4.076121  0  0  -0.100831  0  4.102086  0  0  -0.103197  -0.094786  0  4.059099  0
C  C56  1  0.83878238  0.91505617  0.96129434  1  0  -0.080059  0  3.820218  0  0  -0.097267  0  4.075915  0  0  -0.100645  0  4.101872  0  0  -0.103134  -0.094566  0  4.058903  0
C  C57  1  0.06611923  0.18567245  0.07607604  1  0  -0.150252  0  3.7588  0  0  -0.170283  0  4.011311  0  0  -0.173119  0  4.032195  0  0  -0.097721  -0.168723  0  3.996562  0
C  C58  1  0.93387615  0.81434351  0.92392005  1  0  -0.150354  0  3.758851  0  0  -0.170334  0  4.011307  0  0  -0.173169  0  4.032194  0  0  -0.097773  -0.168774  0  3.996561  0
C  C59  1  0.96743371  0.11413066  0.21659034  1  0  0.133396  0  3.86453  0  0  0.135704  0  4.117449  0  0  0.138213  0  4.140894  0  0  0.080112  0.134155  0  4.102599  0
C  C60  1  0.03256173  0.88588291  0.78340694  1  0  0.13327  0  3.864635  0  0  0.135592  0  4.117498  0  0  0.138102  0  4.140944  0  0  0.080079  0.134042  0  4.102659  0
N  N61  1  0.54056086  0.28388085  0.56577359  1  0  -0.234854  0  3.442769  0  0  -0.178334  0  3.732681  0  0  -0.206469  0  3.749231  0  0  -0.349738  -0.162543  0  3.723097  0
N  N62  1  0.45943257  0.71611846  0.43422992  1  0  -0.234853  0  3.443016  0  0  -0.178381  0  3.732942  0  0  -0.206478  0  3.749441  0  0  -0.349723  -0.162593  0  3.723366  0
N  N63  1  0.86048745  0.91452663  0.44176812  1  0  -0.382696  0  3.353273  0  0  -0.325486  0  3.587177  0  0  -0.343972  0  3.600939  0  0  -0.379  -0.313434  0  3.577826  0
N  N64  1  0.13951177  0.08547980  0.55822731  1  0  -0.382989  0  3.353172  0  0  -0.325562  0  3.586992  0  0  -0.344074  0  3.600831  0  0  -0.379006  -0.313526  0  3.577667  0
N  N65  1  0.86107028  0.18294527  0.28180841  1  0  -0.447311  0  2.952143  0  0  -0.421182  0  3.223454  0  0  -0.435518  0  3.236379  0  0  -0.341162  -0.412138  0  3.21439  0
N  N66  1  0.13892777  0.81705984  0.71819397  1  0  -0.447211  0  2.95187  0  0  -0.421073  0  3.223204  0  0  -0.435409  0  3.236132  0  0  -0.341118  -0.412027  0  3.214142  0
O  O67  1  0.44435053  0.54376894  0.29579723  1  0  -0.534282  0  2.14131  0  0  -0.495867  0  2.431177  0  0  -0.539172  0  2.42253  0  0  -0.291337  -0.466958  0  2.435077  0
O  O68  1  0.55564538  0.45622683  0.70420375  1  0  -0.534308  0  2.141301  0  0  -0.495928  0  2.431162  0  0  -0.539233  0  2.422512  0  0  -0.29136  -0.46702  0  2.435068  0
O  O69  1  0.21006406  0.41937059  0.37827979  1  0  -0.661094  0  1.970655  0  0  -0.605643  0  2.198935  0  0  -0.630806  0  2.186638  0  0  -0.317566  -0.5884  0  2.206574  0
O  O70  1  0.78993565  0.58061666  0.62172728  1  0  -0.661117  0  1.970521  0  0  -0.605738  0  2.198794  0  0  -0.630902  0  2.18649  0  0  -0.317564  -0.588497  0  2.206443  0
O  O71  1  0.84417911  0.55355025  0.34109760  1  0  -0.810983  0  1.777072  0  0  -0.770898  0  1.942759  0  0  -0.786974  0  1.911055  0  0  -0.59713  -0.75922  0  1.965466  0
O  O72  1  0.15582216  0.44646922  0.65889325  1  0  -0.811042  0  1.776999  0  0  -0.770965  0  1.942679  0  0  -0.78704  0  1.910975  0  0  -0.597163  -0.759307  0  1.965416  0
