# generated using pymatgen
data_AlH5C8O7
_symmetry_space_group_name_H-M   'P 1'
_cell_length_a   6.60413427
_cell_length_b   8.74063962
_cell_length_c   11.04889327
_cell_angle_alpha   87.15648639
_cell_angle_beta   72.32459921
_cell_angle_gamma   76.03090649
_symmetry_Int_Tables_number   1
_chemical_formula_structural   AlH5C8O7
_chemical_formula_sum   'Al2 H10 C16 O14'
_cell_volume   589.51636816
_cell_formula_units_Z   2
loop_
 _symmetry_equiv_pos_site_id
 _symmetry_equiv_pos_as_xyz
  1  'x, y, z'
loop_
 _atom_site_type_symbol
 _atom_site_label
 _atom_site_symmetry_multiplicity
 _atom_site_fract_x
 _atom_site_fract_y
 _atom_site_fract_z
 _atom_site_occupancy
 _atom_site_pbe_bader_charge
 _atom_site_pbe_bader_spin_density
 _atom_site_pbe_cm5_charge
 _atom_site_pbe_ddec_charge
 _atom_site_pbe_ddec_spin_density
 _atom_site_pbe_ddec_sum_bond_order
 _atom_site_pbe_magmom
Al  Al0  1  0.49052143  0.52053559  0.50417103  1  2.503018  0  0.396906  1.623385  0  2.604089  0
Al  Al1  1  0.98921662  0.52091742  0.50757870  1  2.500648  0  0.393192  1.63382  0  2.599271  0
H  H2  1  0.79668483  0.58938171  0.35270082  1  0.607235  0  0.355245  0.429784  0  0.853899  0
H  H3  1  0.18681926  0.45467711  0.65928789  1  0.608959  0  0.349877  0.422658  0  0.869312  0
H  H4  1  0.18216766  0.26102506  0.22454977  1  0.069468  0  0.104866  0.127788  0  1.03556  0
H  H5  1  0.44435946  0.27466438  0.75319685  1  0.079743  0  0.106834  0.12708  0  1.036921  0
H  H6  1  0.75016609  0.65397623  0.89789347  1  0.097326  0  0.113355  0.120826  0  0.983967  0
H  H7  1  0.63309699  0.63697861  0.13375303  1  0.08684  0  0.109695  0.113854  0  0.994611  0
H  H8  1  0.81384817  0.87318610  0.46753091  1  0.64312  0  0.317816  0.363379  0  0.946975  0
H  H9  1  0.15985712  0.16819156  0.54995653  1  0.649922  0  0.316332  0.358616  0  0.955609  0
H  H10  1  0.01279588  0.07387571  0.19295028  1  0.613877  0  0.33426  0.362963  0  0.883503  0
H  H11  1  0.26451391  0.07272932  0.75821269  1  0.617317  0  0.327189  0.365121  0  0.898352  0
C  C12  1  0.35802523  0.48705946  0.27784995  1  1.562785  0  0.275809  0.661855  0  4.058014  0
C  C13  1  0.15207002  0.80668045  0.51829630  1  1.524892  0  0.258138  0.596725  0  4.113124  0
C  C14  1  0.63291042  0.52028181  0.73317024  1  1.540669  0  0.2767  0.665159  0  4.063713  0
C  C15  1  0.82734075  0.23286017  0.49742833  1  1.492128  0  0.250253  0.583564  0  4.140242  0
C  C16  1  0.89543754  0.05906129  0.49417441  1  0.593868  0  0.05872  0.024458  0  4.078161  0
C  C17  1  0.08154404  0.98042406  0.52561146  1  0.6177  0  0.065246  0.045139  0  4.034545  0
C  C18  1  0.43733703  0.47286337  0.13712127  1  0.004061  0  -0.011313  -0.091954  0  3.932698  0
C  C19  1  0.36809795  0.37505995  0.06498807  1  0.027495  0  -0.000564  0.081833  0  3.966554  0
C  C20  1  0.58031732  0.56604654  0.07651345  1  -0.065696  0  -0.084072  -0.094009  0  4.014919  0
C  C21  1  0.23918253  0.26687964  0.12141692  1  0.033611  0  -0.119248  -0.29505  0  4.016361  0
C  C22  1  0.18532440  0.16728371  0.04966634  1  0.429259  0  0.078965  0.228175  0  4.08931  0
C  C23  1  0.57323415  0.48935990  0.87102130  1  -0.024143  0  -0.01017  -0.090492  0  3.936617  0
C  C24  1  0.64680467  0.57504119  0.94451650  1  0.009488  0  -0.08265  -0.093065  0  4.009875  0
C  C25  1  0.44080092  0.38150181  0.92799660  1  -0.012665  0  -0.000713  0.082502  0  3.961998  0
C  C26  1  0.38555179  0.27566437  0.85655900  1  -0.002524  0  -0.120583  -0.29906  0  4.007894  0
C  C27  1  0.26256464  0.16974874  0.91390580  1  0.584714  0  0.080368  0.232703  0  4.088189  0
O  O28  1  0.48463093  0.52234225  0.33383696  1  -1.277144  0  -0.236139  -0.609389  0  2.360748  0
O  O29  1  0.01971151  0.73425699  0.49257194  1  -1.261309  0  -0.238723  -0.612335  0  2.412655  0
O  O30  1  0.81396382  0.55915744  0.68055755  1  -1.269901  0  -0.241875  -0.60478  0  2.317039  0
O  O31  1  0.64839675  0.29889625  0.47709382  1  -1.235763  0  -0.228161  -0.541876  0  2.333334  0
O  O32  1  0.49928984  0.50838633  0.67382449  1  -1.271198  0  -0.23191  -0.601217  0  2.403517  0
O  O33  1  0.95901582  0.30575400  0.52307361  1  -1.2571  0  -0.239302  -0.609136  0  2.43521  0
O  O34  1  0.16578041  0.47046978  0.33596980  1  -1.273889  0  -0.234928  -0.594555  0  2.36427  0
O  O35  1  0.33428595  0.73994890  0.53412164  1  -1.234077  0  -0.222148  -0.533881  0  2.320233  0
O  O36  1  0.75131772  0.58542056  0.44486010  1  -1.40948  0  -0.446272  -0.978111  0  2.177469  0
O  O37  1  0.23013383  0.45435661  0.56689585  1  -1.412956  0  -0.449882  -0.982061  0  2.190401  0
O  O38  1  0.76018798  0.98895932  0.45867615  1  -1.116085  0  -0.344801  -0.392181  0  2.339063  0
O  O39  1  0.21537871  0.05280030  0.56110418  1  -1.139307  0  -0.338742  -0.39796  0  2.349962  0
O  O40  1  0.06264636  0.06167538  0.10052719  1  -1.111282  0  -0.34371  -0.414424  0  2.263976  0
O  O41  1  0.20822300  0.06423484  0.85057039  1  -1.123623  0  -0.343856  -0.41585  0  2.27834  0
