# generated using pymatgen
data_Zr3H15C25O21
_symmetry_space_group_name_H-M   'P 1'
_cell_length_a   14.79998986
_cell_length_b   14.79382822
_cell_length_c   14.80629879
_cell_angle_alpha   59.97368552
_cell_angle_beta   59.95813548
_cell_angle_gamma   60.04795100
_symmetry_Int_Tables_number   1
_chemical_formula_structural   Zr3H15C25O21
_chemical_formula_sum   'Zr6 H30 C50 O42'
_cell_volume   2291.95713351
_cell_formula_units_Z   2
loop_
 _symmetry_equiv_pos_site_id
 _symmetry_equiv_pos_as_xyz
  1  'x, y, z'
loop_
 _atom_site_type_symbol
 _atom_site_label
 _atom_site_symmetry_multiplicity
 _atom_site_fract_x
 _atom_site_fract_y
 _atom_site_fract_z
 _atom_site_occupancy
 _atom_site_pbe_bader_charge
 _atom_site_pbe_bader_spin_density
 _atom_site_pbe_cm5_charge
 _atom_site_pbe_ddec_charge
 _atom_site_pbe_ddec_spin_density
 _atom_site_pbe_ddec_sum_bond_order
 _atom_site_pbe_magmom
Zr  Zr0  1  0.88093322  0.88222894  0.61768226  1  2.630861  0  1.633891  2.366059  0  2.771693  0
Zr  Zr1  1  0.12008645  0.11871220  0.38116693  1  2.632118  0  1.633254  2.367568  0  2.770138  0
Zr  Zr2  1  0.11913056  0.87996515  0.62019202  1  2.640901  0  1.636324  2.373683  0  2.751577  0
Zr  Zr3  1  0.88159356  0.12139908  0.37878044  1  2.63784  0  1.636207  2.371632  0  2.756615  0
Zr  Zr4  1  0.11934008  0.88152923  0.38040057  1  2.633855  0  1.634511  2.369378  0  2.767272  0
Zr  Zr5  1  0.88130842  0.11963498  0.61849414  1  2.635348  0  1.634248  2.368486  0  2.767293  0
H  H6  1  0.09337500  0.71859671  0.59370764  1  0.618082  0  0.334074  0.426355  0  0.851716  0
H  H7  1  0.09542754  0.09468581  0.21743033  1  0.628289  0  0.334094  0.427037  0  0.849374  0
H  H8  1  0.09454679  0.09384288  0.59404994  1  0.593224  0  0.33336  0.426598  0  0.850579  0
H  H9  1  0.71849045  0.09514961  0.59279920  1  0.606086  0  0.333219  0.425879  0  0.85285  0
H  H10  1  0.14152838  0.58947788  0.35235004  1  0.138026  0  0.117905  0.143095  0  0.979181  0
H  H11  1  0.85418692  0.41615314  0.64268982  1  0.07405  0  0.117631  0.142852  0  0.979104  0
H  H12  1  0.58811661  0.14291818  0.91534908  1  0.101963  0  0.117899  0.143169  0  0.978959  0
H  H13  1  0.41788899  0.85252848  0.08854903  1  0.118157  0  0.117381  0.142505  0  0.979434  0
H  H14  1  0.85287357  0.14125185  0.08946849  1  0.097504  0  0.115814  0.138486  0  0.98792  0
H  H15  1  0.14163506  0.85505761  0.91510662  1  0.111093  0  0.118134  0.143046  0  0.977731  0
H  H16  1  0.58841639  0.41545039  0.35409993  1  0.098316  0  0.115946  0.13819  0  0.988743  0
H  H17  1  0.41640852  0.58989035  0.64027307  1  0.117099  0  0.117979  0.142716  0  0.978125  0
H  H18  1  0.14288050  0.42131449  0.08458902  1  0.108498  0  0.110364  0.118421  0  0.990172  0
H  H19  1  0.14096431  0.58904195  0.91692042  1  0.089552  0  0.111613  0.119865  0  0.987206  0
H  H20  1  0.74216306  0.62620293  0.96051952  1  0.080473  0  0.099715  0.117401  0  0.995556  0
H  H21  1  0.82906532  0.54119193  0.87513824  1  0.086817  0  0.098534  0.114596  0  0.994185  0
H  H22  1  0.83106672  0.37112940  0.04513082  1  0.041141  0  0.10116  0.113041  0  0.98061  0
H  H23  1  0.74422544  0.45618647  0.13030339  1  0.062914  0  0.102401  0.115687  0  0.978859  0
H  H24  1  0.58912774  0.85417142  0.64086213  1  0.112339  0  0.11745  0.142434  0  0.979335  0
H  H25  1  0.41685073  0.14237726  0.35288713  1  0.103384  0  0.117815  0.142828  0  0.978845  0
H  H26  1  0.15150040  0.35113686  0.34285113  1  0.637856  0  0.30942  0.352833  0  0.969922  0
H  H27  1  0.84379206  0.65541092  0.65118423  1  0.643939  0  0.309786  0.351562  0  0.972319  0
H  H28  1  0.35100561  0.15156977  0.15446327  1  0.63944  0  0.309393  0.352643  0  0.970001  0
H  H29  1  0.65563980  0.84385387  0.84962066  1  0.633235  0  0.309738  0.35168  0  0.97282  0
H  H30  1  0.84251044  0.15292346  0.85078783  1  0.63665  0  0.309258  0.352895  0  0.967813  0
H  H31  1  0.15176145  0.84303295  0.15401272  1  0.639308  0  0.30945  0.352655  0  0.968738  0
H  H32  1  0.35150674  0.65447855  0.34177384  1  0.637516  0  0.309302  0.353175  0  0.967876  0
H  H33  1  0.65404386  0.35164215  0.65172234  1  0.630885  0  0.309332  0.352842  0  0.968616  0
H  H34  1  0.35135995  0.84304610  0.65166403  1  0.641383  0  0.309821  0.352794  0  0.969035  0
H  H35  1  0.65510858  0.15292547  0.34182301  1  0.627692  0  0.309418  0.353035  0  0.969622  0
C  C36  1  0.99779902  0.69844759  0.49564010  1  1.495146  0  0.237004  0.654011  0  4.070914  0
C  C37  1  0.30909949  0.99609863  0.19752050  1  1.487989  0  0.236888  0.654381  0  4.070782  0
C  C38  1  0.99704788  0.30825869  0.49799039  1  1.500332  0  0.236656  0.653176  0  4.07237  0
C  C39  1  0.69761302  0.99871167  0.80718530  1  1.485368  0  0.236722  0.653287  0  4.071708  0
C  C40  1  0.99578475  0.70056853  0.80538266  1  1.535218  0  0.239859  0.653835  0  4.090328  0
C  C41  1  0.69802601  0.99800220  0.49633021  1  1.500109  0  0.238146  0.657698  0  4.067439  0
C  C42  1  0.99915147  0.30641050  0.19950511  1  1.507453  0  0.239382  0.654123  0  4.092038  0
C  C43  1  0.30864243  0.99764929  0.49674504  1  1.494577  0  0.237195  0.65383  0  4.069551  0
C  C44  1  0.30840103  0.69800636  0.49647619  1  1.48164  0  0.237507  0.656031  0  4.067988  0
C  C45  1  0.99712255  0.99780740  0.80789065  1  1.505923  0  0.237734  0.655809  0  4.066553  0
C  C46  1  0.69776478  0.30879878  0.49657400  1  1.485123  0  0.237303  0.653778  0  4.071302  0
C  C47  1  0.99714091  0.99784966  0.19713851  1  1.507536  0  0.237714  0.654516  0  4.070131  0
C  C48  1  0.99878271  0.40798176  0.49637838  1  0.019419  0  -0.030071  -0.164977  0  3.992918  0
C  C49  1  0.99646702  0.59812005  0.49811100  1  0.008536  0  -0.030611  -0.164553  0  3.994864  0
C  C50  1  0.08178940  0.45709765  0.41297985  1  0.498337  0  0.085769  0.29419  0  4.070132  0
C  C51  1  0.91415173  0.54835677  0.58216294  1  0.493926  0  0.084584  0.292341  0  4.069197  0
C  C52  1  0.07862458  0.55141496  0.41580177  1  0.018265  0  -0.091142  -0.186114  0  3.939179  0
C  C53  1  0.91707514  0.45424370  0.57924176  1  0.092383  0  -0.092426  -0.187515  0  3.940733  0
C  C54  1  0.40856813  0.99820050  0.09744125  1  0.0016  0  -0.030024  -0.166247  0  3.994656  0
C  C55  1  0.59803866  0.99664581  0.90717130  1  -0.018528  0  -0.030365  -0.164197  0  3.994398  0
C  C56  1  0.45680180  0.08206881  0.04789315  1  0.554984  0  0.085703  0.294474  0  4.069428  0
C  C57  1  0.54945975  0.91313422  0.95637965  1  0.541083  0  0.084606  0.291901  0  4.070757  0
C  C58  1  0.55077028  0.07931573  0.95353506  1  0.032836  0  -0.090794  -0.185978  0  3.937972  0
C  C59  1  0.45549650  0.91588438  0.05061136  1  0.023669  0  -0.092045  -0.186541  0  3.942532  0
C  C60  1  0.99577534  0.99968394  0.90738793  1  -0.088251  0  -0.03028  -0.166168  0  3.994866  0
C  C61  1  0.99851084  0.99632819  0.09748210  1  0.003934  0  -0.030429  -0.164447  0  3.993346  0
C  C62  1  0.91299312  0.08257707  0.95657857  1  0.585199  0  0.084469  0.293643  0  4.072999  0
C  C63  1  0.08172268  0.91390453  0.04782178  1  0.495832  0  0.084274  0.292678  0  4.070727  0
C  C64  1  0.91616736  0.07881402  0.05091140  1  0.055223  0  -0.093059  -0.190873  0  3.946936  0
C  C65  1  0.07843979  0.91757643  0.95356952  1  0.056205  0  -0.091171  -0.185492  0  3.939531  0
C  C66  1  0.40804972  0.59813696  0.49506120  1  -0.009682  0  -0.030249  -0.165736  0  3.995407  0
C  C67  1  0.59759164  0.40809621  0.49846844  1  0.016952  0  -0.030356  -0.164675  0  3.993983  0
C  C68  1  0.45696269  0.54842068  0.41264316  1  0.548543  0  0.084172  0.292584  0  4.073883  0
C  C69  1  0.54816092  0.45728506  0.58137512  1  0.510405  0  0.084783  0.293069  0  4.071671  0
C  C70  1  0.55080261  0.45421043  0.41636275  1  0.008849  0  -0.093055  -0.190006  0  3.94755  0
C  C71  1  0.45432601  0.55155571  0.57761911  1  0.059889  0  -0.091152  -0.185596  0  3.940337  0
C  C72  1  0.99574374  0.60030207  0.90536591  1  -0.06939  0  -0.013604  -0.092076  0  3.979113  0
C  C73  1  0.99786770  0.40633735  0.09928290  1  -0.029522  0  -0.013586  -0.091025  0  3.977815  0
C  C74  1  0.91681649  0.54894608  0.95525622  1  -0.006094  0  0.000686  0.069468  0  3.871924  0
C  C75  1  0.07876917  0.45727656  0.04852602  1  -0.031153  0  -0.079223  -0.091477  0  3.96602  0
C  C76  1  0.91792076  0.45439865  0.04976112  1  0.034712  0  0.000793  0.066469  0  3.870441  0
C  C77  1  0.07767467  0.55138536  0.95446368  1  -0.011742  0  -0.078887  -0.091687  0  3.96576  0
C  C78  1  0.81547591  0.55284857  0.94924693  1  -0.034696  0  -0.150148  -0.199763  0  3.849637  0
C  C79  1  0.81670815  0.44598049  0.05603398  1  -0.010705  0  -0.146428  -0.193879  0  3.862772  0
C  C80  1  0.40830483  0.99647961  0.49813554  1  0.063591  0  -0.029652  -0.164418  0  3.992459  0
C  C81  1  0.59813289  0.99953425  0.49513992  1  -0.087106  0  -0.030305  -0.16708  0  3.997051  0
C  C82  1  0.45719081  0.91378597  0.58130080  1  0.482364  0  0.085354  0.292595  0  4.07034  0
C  C83  1  0.54883285  0.08269577  0.41241890  1  0.568256  0  0.085495  0.294158  0  4.07075  0
C  C84  1  0.55128721  0.91722898  0.57785422  1  0.064412  0  -0.091783  -0.185414  0  3.938915  0
C  C85  1  0.45475364  0.07923618  0.41584003  1  0.029273  0  -0.092265  -0.187012  0  3.938752  0
O  O86  1  0.92024473  0.73983494  0.57289142  1  -1.190503  0  -0.353306  -0.631967  0  2.325383  0
O  O87  1  0.26800004  0.07338072  0.23886797  1  -1.182861  0  -0.353216  -0.631848  0  2.32419  0
O  O88  1  0.07509927  0.26648476  0.42120451  1  -1.182436  0  -0.352282  -0.630973  0  2.324579  0
O  O89  1  0.73798785  0.92213070  0.76516592  1  -1.189091  0  -0.353001  -0.631446  0  2.325866  0
O  O90  1  0.07277151  0.74058421  0.76492904  1  -1.187659  0  -0.361732  -0.624601  0  2.283449  0
O  O91  1  0.73894680  0.07587702  0.41921577  1  -1.190155  0  -0.353222  -0.633478  0  2.319108  0
O  O92  1  0.92249004  0.26610611  0.23940216  1  -1.171198  0  -0.357027  -0.617542  0  2.281527  0
O  O93  1  0.26700165  0.92048221  0.57465105  1  -1.184274  0  -0.351991  -0.632017  0  2.316308  0
O  O94  1  0.26683190  0.73852250  0.41950664  1  -1.188603  0  -0.354148  -0.633879  0  2.317813  0
O  O95  1  0.91993317  0.07552921  0.76645771  1  -1.188832  0  -0.354474  -0.634651  0  2.317309  0
O  O96  1  0.73867303  0.26748099  0.57425817  1  -1.184546  0  -0.354237  -0.633836  0  2.318362  0
O  O97  1  0.07508111  0.92078080  0.23772976  1  -1.183444  0  -0.354339  -0.633218  0  2.319376  0
O  O98  1  0.07305536  0.92230235  0.76673718  1  -1.18177  0  -0.350517  -0.610044  0  2.27555  0
O  O99  1  0.73867757  0.26773782  0.42093208  1  -1.182029  0  -0.350863  -0.609848  0  2.279423  0
O  O100  1  0.92201158  0.07406992  0.23767374  1  -1.184362  0  -0.351413  -0.610898  0  2.277426  0
O  O101  1  0.26708137  0.73881293  0.57241087  1  -1.177826  0  -0.351273  -0.61122  0  2.274713  0
O  O102  1  0.91949981  0.74012438  0.76483031  1  -1.176907  0  -0.356725  -0.620039  0  2.262026  0
O  O103  1  0.26725208  0.07379127  0.42130300  1  -1.184599  0  -0.355007  -0.614279  0  2.275631  0
O  O104  1  0.07635246  0.26575714  0.23914292  1  -1.180234  0  -0.360577  -0.628165  0  2.270457  0
O  O105  1  0.73869499  0.92246250  0.57243567  1  -1.183873  0  -0.355132  -0.615741  0  2.27654  0
O  O106  1  0.73847140  0.07474824  0.76598174  1  -1.186783  0  -0.35293  -0.612029  0  2.276006  0
O  O107  1  0.07407257  0.73905138  0.42014934  1  -1.190788  0  -0.352961  -0.612385  0  2.27531  0
O  O108  1  0.26740767  0.92084205  0.23797872  1  -1.185168  0  -0.353857  -0.613534  0  2.27503  0
O  O109  1  0.92131828  0.26698551  0.57396233  1  -1.185113  0  -0.354044  -0.613184  0  2.275681  0
O  O110  1  0.79871420  0.06852538  0.56603582  1  -1.231342  0  -0.696245  -1.068456  0  2.362083  0
O  O111  1  0.06761433  0.06715052  0.56744083  1  -1.221111  0  -0.695873  -1.068968  0  2.358042  0
O  O112  1  0.06851054  0.06734014  0.29769159  1  -1.254853  0  -0.696044  -1.069803  0  2.363984  0
O  O113  1  0.06716435  0.79884959  0.56627862  1  -1.245914  0  -0.696461  -1.069102  0  2.366454  0
O  O114  1  0.14894627  0.95023865  0.45066087  1  -1.19259  0  -0.793374  -1.147186  0  2.133169  0
O  O115  1  0.95088048  0.95181920  0.44917909  1  -1.200013  0  -0.793668  -1.146535  0  2.133123  0
O  O116  1  0.95132091  0.14903647  0.45009129  1  -1.194611  0  -0.793544  -1.146289  0  2.139784  0
O  O117  1  0.95041956  0.95112712  0.64801389  1  -1.197532  0  -0.793723  -1.146546  0  2.139668  0
O  O118  1  0.16379270  0.41713811  0.33070233  1  -1.1482  0  -0.358056  -0.439549  0  2.244942  0
O  O119  1  0.83290044  0.58781672  0.66524257  1  -1.155578  0  -0.356104  -0.443447  0  2.262225  0
O  O120  1  0.41607167  0.16478434  0.08743766  1  -1.147257  0  -0.357747  -0.438972  0  2.244346  0
O  O121  1  0.59018947  0.83068017  0.91626330  1  -1.144082  0  -0.355731  -0.44368  0  2.265292  0
O  O122  1  0.83109659  0.16527005  0.91635064  1  -1.147961  0  -0.359111  -0.440313  0  2.243715  0
O  O123  1  0.16412461  0.83171439  0.08745491  1  -1.148551  0  -0.35813  -0.438999  0  2.243289  0
O  O124  1  0.41713628  0.58803838  0.33039294  1  -1.147563  0  -0.359016  -0.440366  0  2.244365  0
O  O125  1  0.58754990  0.41720137  0.66403020  1  -1.136866  0  -0.358187  -0.43906  0  2.243127  0
O  O126  1  0.41699887  0.83166083  0.66386303  1  -1.147269  0  -0.358051  -0.43855  0  2.243337  0
O  O127  1  0.58863654  0.16528112  0.33036056  1  -1.139708  0  -0.358189  -0.439579  0  2.243556  0
