# generated using pymatgen
data_CdNiH12(C4N3)2
_symmetry_space_group_name_H-M   'P 1'
_cell_length_a   7.63556844
_cell_length_b   9.96528505
_cell_length_c   13.52897618
_cell_angle_alpha   94.00716541
_cell_angle_beta   89.42612270
_cell_angle_gamma   89.04361640
_symmetry_Int_Tables_number   1
_chemical_formula_structural   CdNiH12(C4N3)2
_chemical_formula_sum   'Cd2 Ni2 H24 C16 N12'
_cell_volume   1026.70391940
_cell_formula_units_Z   2
loop_
 _symmetry_equiv_pos_site_id
 _symmetry_equiv_pos_as_xyz
  1  'x, y, z'
loop_
 _atom_site_type_symbol
 _atom_site_label
 _atom_site_symmetry_multiplicity
 _atom_site_fract_x
 _atom_site_fract_y
 _atom_site_fract_z
 _atom_site_occupancy
 _atom_site_pbe_bader_charge
 _atom_site_pbe_bader_spin_density
 _atom_site_pbe_cm5_charge
 _atom_site_pbe_ddec_charge
 _atom_site_pbe_ddec_spin_density
 _atom_site_pbe_ddec_sum_bond_order
 _atom_site_pbe_magmom
Cd  Cd0  1  0.50697198  0.89834595  0.73046789  1  1.275288  0  0.817  0.890185  0  2.395083  0
Cd  Cd1  1  0.49302782  0.10165848  0.26953635  1  1.275324  0  0.817078  0.890285  0  2.394812  0
Ni  Ni2  1  0.99999303  0.99998520  0.00000124  1  0.646017  0  0.388725  0.120878  0  3.88174  0
Ni  Ni3  1  0.00001180  0.99999623  0.50000227  1  0.636228  0  0.394358  0.116078  0  3.873742  0
H  H4  1  0.34968652  0.66548943  0.79411849  1  0.425357  0  0.304173  0.286538  0  0.927805  0
H  H5  1  0.55901878  0.65624911  0.82184212  1  0.419612  0  0.301986  0.28501  0  0.931662  0
H  H6  1  0.63798969  0.58970747  0.65306466  1  0.045816  0  0.105108  0.082435  0  0.971091  0
H  H7  1  0.41572752  0.60447393  0.62126628  1  0.05438  0  0.105371  0.080936  0  0.980791  0
H  H8  1  0.33896174  0.41567801  0.72478968  1  -0.013779  0  0.089153  0.082624  0  0.977245  0
H  H9  1  0.55861168  0.40447051  0.76440831  1  -0.001381  0  0.084025  0.068657  0  1.000526  0
H  H10  1  0.65869243  0.33788368  0.59097527  1  0.004893  0  0.089571  0.08349  0  0.983363  0
H  H11  1  0.44510046  0.36228562  0.54656411  1  0.047133  0  0.096373  0.097178  0  0.984027  0
H  H12  1  0.50334148  0.12344796  0.55730942  1  0.084611  0  0.103931  0.085934  0  0.99713  0
H  H13  1  0.33229903  0.17738565  0.63987459  1  0.063931  0  0.102217  0.074891  0  0.975662  0
H  H14  1  0.53880556  0.17654929  0.77393406  1  0.409667  0  0.300092  0.281528  0  0.937261  0
H  H15  1  0.69869299  0.12670640  0.69665211  1  0.391453  0  0.300367  0.281824  0  0.939471  0
H  H16  1  0.65031069  0.33451394  0.20587906  1  0.425504  0  0.304196  0.286527  0  0.927942  0
H  H17  1  0.44098364  0.34375622  0.17815402  1  0.419586  0  0.302002  0.285038  0  0.931673  0
H  H18  1  0.36200612  0.41030189  0.34692947  1  0.045994  0  0.105058  0.082398  0  0.971006  0
H  H19  1  0.58426833  0.39553245  0.37873141  1  0.054473  0  0.105391  0.080914  0  0.980743  0
H  H20  1  0.66104066  0.58432837  0.27520946  1  -0.01389  0  0.089162  0.082665  0  0.977267  0
H  H21  1  0.44139593  0.59553781  0.23558646  1  -0.001402  0  0.084014  0.068655  0  1.000529  0
H  H22  1  0.34130743  0.66211766  0.40902218  1  0.004916  0  0.089576  0.083508  0  0.983391  0
H  H23  1  0.55490063  0.63772073  0.45343282  1  0.047209  0  0.096397  0.097195  0  0.984107  0
H  H24  1  0.49664655  0.87655645  0.44268822  1  0.08451  0  0.103939  0.085962  0  0.997197  0
H  H25  1  0.66769671  0.82262684  0.36012929  1  0.063959  0  0.102212  0.074978  0  0.975552  0
H  H26  1  0.46119682  0.82345810  0.22606586  1  0.4097  0  0.300131  0.28156  0  0.937209  0
H  H27  1  0.30130158  0.87329898  0.30334480  1  0.391404  0  0.30034  0.281807  0  0.939446  0
C  C28  1  0.17347635  0.97679496  0.90503293  1  0.803195  0  0.009455  0.050827  0  3.870535  0
C  C29  1  0.17650461  0.91777994  0.56593543  1  0.802475  0  0.016267  0.046524  0  3.847902  0
C  C30  1  0.83658270  0.90417350  0.56519647  1  0.803861  0  0.01218  0.03879  0  3.847758  0
C  C31  1  0.83445627  0.94576078  0.90876915  1  0.81053  0  0.007926  0.049101  0  3.8697  0
C  C32  1  0.50383605  0.57517014  0.68015870  1  0.303861  0  -0.073457  0.019084  0  3.938131  0
C  C33  1  0.47619366  0.42857306  0.70121449  1  0.010284  0  -0.170588  -0.178138  0  3.9902  0
C  C34  1  0.51876842  0.33179332  0.61118972  1  -0.019289  0  -0.166855  -0.178834  0  3.956312  0
C  C35  1  0.47355768  0.18575767  0.62560439  1  0.248384  0  -0.076234  0.018331  0  3.923539  0
C  C36  1  0.82651341  0.02318237  0.09497162  1  0.803278  0  0.009311  0.050674  0  3.87074  0
C  C37  1  0.82352158  0.08221135  0.43407104  1  0.802278  0  0.016361  0.046657  0  3.847658  0
C  C38  1  0.16345117  0.09583073  0.43480094  1  0.803648  0  0.012334  0.0388  0  3.848645  0
C  C39  1  0.16552830  0.05421353  0.09123380  1  0.810988  0  0.007969  0.049002  0  3.869469  0
C  C40  1  0.49616508  0.42483418  0.31983666  1  0.30371  0  -0.073446  0.019127  0  3.938072  0
C  C41  1  0.52381264  0.57143528  0.29878177  1  0.010189  0  -0.170584  -0.178154  0  3.990133  0
C  C42  1  0.48123269  0.66821205  0.38880864  1  -0.019153  0  -0.166872  -0.178857  0  3.956543  0
C  C43  1  0.52643429  0.81424574  0.37439540  1  0.248394  0  -0.076311  0.018071  0  3.923699  0
N  N44  1  0.28544621  0.96210097  0.84517132  1  -1.347395  0  -0.381101  -0.38743  0  3.250812  0
N  N45  1  0.29103612  0.86807921  0.60850696  1  -1.342355  0  -0.371891  -0.377376  0  3.217899  0
N  N46  1  0.72976316  0.84681947  0.60802365  1  -1.348788  0  -0.373138  -0.381227  0  3.189643  0
N  N47  1  0.72729770  0.91174963  0.85127411  1  -1.360076  0  -0.381812  -0.392059  0  3.239689  0
N  N48  1  0.47370521  0.67252733  0.76598685  1  -1.139695  0  -0.620481  -0.563812  0  3.364351  0
N  N49  1  0.56595531  0.12513664  0.70737920  1  -1.073303  0  -0.621249  -0.563547  0  3.355341  0
N  N50  1  0.71454863  0.03788638  0.15483217  1  -1.347569  0  -0.380964  -0.387267  0  3.251  0
N  N51  1  0.70898098  0.13190808  0.39149790  1  -1.341877  0  -0.371954  -0.377515  0  3.217493  0
N  N52  1  0.27021839  0.15317902  0.39198263  1  -1.348588  0  -0.373264  -0.381126  0  3.190814  0
N  N53  1  0.27269059  0.08823775  0.14872941  1  -1.360354  0  -0.381837  -0.392014  0  3.239424  0
N  N54  1  0.52629589  0.32747904  0.23401082  1  -1.139824  0  -0.62047  -0.56381  0  3.364646  0
N  N55  1  0.43404446  0.87487072  0.29261704  1  -1.073328  0  -0.621246  -0.5635  0  3.355293  0
