# generated using pymatgen
data_AgH17C10S(NO2)2
_symmetry_space_group_name_H-M   'P 1'
_cell_length_a   9.92877569
_cell_length_b   17.51139918
_cell_length_c   17.50672620
_cell_angle_alpha   116.52737279
_cell_angle_beta   100.90692388
_cell_angle_gamma   100.89589098
_symmetry_Int_Tables_number   1
_chemical_formula_structural   AgH17C10S(NO2)2
_chemical_formula_sum   'Ag6 H102 C60 S6 N12 O24'
_cell_volume   2541.27674006
_cell_formula_units_Z   6
loop_
 _symmetry_equiv_pos_site_id
 _symmetry_equiv_pos_as_xyz
  1  'x, y, z'
loop_
 _atom_site_type_symbol
 _atom_site_label
 _atom_site_symmetry_multiplicity
 _atom_site_fract_x
 _atom_site_fract_y
 _atom_site_fract_z
 _atom_site_occupancy
 _atom_site_pbe_bader_charge
 _atom_site_pbe_bader_spin_density
 _atom_site_pbe_cm5_charge
 _atom_site_pbe_ddec_charge
 _atom_site_pbe_ddec_spin_density
 _atom_site_pbe_ddec_sum_bond_order
 _atom_site_pbe_magmom
Ag  Ag0  1  0.62849021  0.67008556  0.42455714  1  0.549925  0  0.410081  0.340065  0  2.098993  0
Ag  Ag1  1  0.95851878  0.75454728  0.32980958  1  0.550353  0  0.409841  0.339777  0  2.099673  0
Ag  Ag2  1  0.20350107  0.57518274  0.24536579  1  0.549248  0  0.410322  0.340532  0  2.100766  0
Ag  Ag3  1  0.37150770  0.32991601  0.57544436  1  0.5499  0  0.410104  0.340114  0  2.099038  0
Ag  Ag4  1  0.04148319  0.24545831  0.67019300  1  0.550306  0  0.409854  0.33982  0  2.099768  0
Ag  Ag5  1  0.79649484  0.42481480  0.75463598  1  0.549194  0  0.410343  0.340583  0  2.100719  0
H  H6  1  0.29565386  0.34839948  0.17416917  1  0.022739  0  0.088817  0.088377  0  0.983378  0
H  H7  1  0.94717978  0.82571391  0.65137478  1  -0.007489  0  0.088746  0.088301  0  0.984075  0
H  H8  1  0.12194686  0.82568985  0.17416580  1  -0.002642  0  0.088982  0.088218  0  0.984128  0
H  H9  1  0.70434271  0.65159940  0.82583212  1  0.022762  0  0.088811  0.088364  0  0.983396  0
H  H10  1  0.05282294  0.17428295  0.34862398  1  -0.007444  0  0.088753  0.088325  0  0.984129  0
H  H11  1  0.87805480  0.17431105  0.82583408  1  -0.002618  0  0.088982  0.088242  0  0.984096  0
H  H12  1  0.16666211  0.39543964  0.21904815  1  0.051889  0  0.088951  0.093143  0  1.026342  0
H  H13  1  0.77116166  0.82360297  0.60430522  1  0.057731  0  0.08921  0.09372  0  1.026217  0
H  H14  1  0.94806205  0.78091781  0.17636530  1  0.052491  0  0.089002  0.093614  0  1.024848  0
H  H15  1  0.83333583  0.60455992  0.78095473  1  0.051893  0  0.088961  0.093183  0  1.026312  0
H  H16  1  0.22884073  0.17639323  0.39569320  1  0.057365  0  0.089209  0.093694  0  1.026208  0
H  H17  1  0.05194064  0.21908308  0.82363582  1  0.052478  0  0.089011  0.093603  0  1.024894  0
H  H18  1  0.16743990  0.31870499  0.30882755  1  0.039243  0  0.08832  0.08839  0  0.998659  0
H  H19  1  0.84873542  0.99011488  0.68131486  1  0.039377  0  0.088514  0.088897  0  0.999459  0
H  H20  1  0.85886386  0.69119791  0.00976017  1  0.025745  0  0.088305  0.088406  0  0.998911  0
H  H21  1  0.83255803  0.68129456  0.69117419  1  0.039312  0  0.088345  0.088451  0  0.998646  0
H  H22  1  0.15126288  0.00988131  0.31868484  1  0.039045  0  0.0885  0.088881  0  0.999391  0
H  H23  1  0.14113645  0.30880231  0.99024212  1  0.025733  0  0.088305  0.08842  0  0.998865  0
H  H24  1  0.12963031  0.23925678  0.19408643  1  0.027987  0  0.087326  0.077618  0  0.983479  0
H  H25  1  0.89032316  0.95470890  0.76065344  1  0.000865  0  0.08749  0.078145  0  0.983823  0
H  H26  1  0.93583558  0.80591833  0.04514365  1  0.012933  0  0.087401  0.077798  0  0.983612  0
H  H27  1  0.87037035  0.76074411  0.80591677  1  0.027959  0  0.087362  0.077689  0  0.983455  0
H  H28  1  0.10967377  0.04528662  0.23934581  1  0.001044  0  0.087492  0.078141  0  0.983834  0
H  H29  1  0.06416335  0.19408122  0.95485591  1  0.01292  0  0.087422  0.077837  0  0.983595  0
H  H30  1  0.38539052  0.23857093  0.22238899  1  0.010336  0  0.08205  0.069081  0  0.984923  0
H  H31  1  0.14684983  0.98385123  0.76150909  1  -0.002067  0  0.081851  0.06901  0  0.985359  0
H  H32  1  0.16333706  0.77764987  0.01619460  1  -0.003467  0  0.081804  0.06892  0  0.985369  0
H  H33  1  0.61460707  0.76142795  0.77761184  1  0.010143  0  0.082022  0.069054  0  0.9849  0
H  H34  1  0.85314845  0.01614698  0.23849151  1  -0.00207  0  0.081851  0.069026  0  0.985379  0
H  H35  1  0.83666291  0.22234969  0.98380564  1  -0.003478  0  0.081794  0.068913  0  0.985371  0
H  H36  1  0.31040436  0.21411807  0.29598041  1  0.017949  0  0.088914  0.083886  0  1.003383  0
H  H37  1  0.09628133  0.08188148  0.78605255  1  0.02162  0  0.089064  0.084418  0  1.002851  0
H  H38  1  0.01476381  0.70415596  0.91803923  1  0.011024  0  0.088839  0.083865  0  1.003691  0
H  H39  1  0.68959494  0.78588216  0.70402235  1  0.01789  0  0.088933  0.083909  0  1.003349  0
H  H40  1  0.90371629  0.91811539  0.21394910  1  0.021858  0  0.089075  0.084425  0  1.002781  0
H  H41  1  0.98523581  0.29584493  0.08196215  1  0.011132  0  0.088849  0.083863  0  1.003717  0
H  H42  1  0.55812594  0.32655531  0.37807862  1  0.02281  0  0.086713  0.084639  0  0.995187  0
H  H43  1  0.23158171  0.05167930  0.67366462  1  0.023827  0  0.086828  0.084778  0  0.99528  0
H  H44  1  0.18014643  0.62193342  0.94825012  1  0.012774  0  0.086937  0.084797  0  0.994984  0
H  H45  1  0.44187438  0.67344290  0.62192106  1  0.022886  0  0.086718  0.084659  0  0.995205  0
H  H46  1  0.76841689  0.94832160  0.32633779  1  0.023791  0  0.086834  0.084803  0  0.995274  0
H  H47  1  0.81984841  0.37806613  0.05174901  1  0.012698  0  0.086947  0.084846  0  0.994945  0
H  H48  1  0.42550614  0.37125071  0.41932635  1  0.050467  0  0.087707  0.092017  0  1.007171  0
H  H49  1  0.05424065  0.04817753  0.62894868  1  0.048454  0  0.087747  0.092143  0  1.008068  0
H  H50  1  0.00620846  0.58073383  0.95163627  1  0.048624  0  0.08773  0.091795  0  1.008103  0
H  H51  1  0.57449588  0.62874884  0.58067467  1  0.05049  0  0.087713  0.092034  0  1.007166  0
H  H52  1  0.94575695  0.95182135  0.37105444  1  0.048406  0  0.087745  0.09215  0  1.008056  0
H  H53  1  0.99378809  0.41926505  0.04836216  1  0.048654  0  0.087731  0.091778  0  1.008169  0
H  H54  1  0.59431308  0.48267448  0.40108814  1  0.067354  0  0.088108  0.09462  0  1.023291  0
H  H55  1  0.11175264  0.91861050  0.51739665  1  0.055056  0  0.087984  0.094664  0  1.022955  0
H  H56  1  0.19313663  0.59868967  0.08126235  1  0.056606  0  0.088127  0.094906  0  1.023278  0
H  H57  1  0.40568554  0.51732440  0.59891337  1  0.067262  0  0.088117  0.094611  0  1.023292  0
H  H58  1  0.88824629  0.08139106  0.48260438  1  0.055062  0  0.087988  0.094722  0  1.022929  0
H  H59  1  0.80685891  0.40130719  0.91873508  1  0.056571  0  0.088111  0.094897  0  1.023251  0
H  H60  1  0.56181410  0.40244994  0.28786586  1  0.006141  0  0.087065  0.089652  0  1.004487  0
H  H61  1  0.15945886  0.88553988  0.59752061  1  0.026451  0  0.087113  0.089772  0  1.004198  0
H  H62  1  0.27411318  0.71189804  0.11444367  1  0.021189  0  0.086752  0.089427  0  1.003551  0
H  H63  1  0.43818723  0.59755028  0.71213482  1  0.006105  0  0.087062  0.089632  0  1.004491  0
H  H64  1  0.84054213  0.11445967  0.40247917  1  0.026444  0  0.087106  0.08974  0  1.004217  0
H  H65  1  0.72588954  0.28809882  0.88555451  1  0.021187  0  0.086757  0.089422  0  1.003579  0
H  H66  1  0.34090367  0.48157660  0.37187445  1  0.070419  0  0.109714  0.096208  0  0.968642  0
H  H67  1  0.85934654  0.89029547  0.51829175  1  0.08135  0  0.109609  0.096085  0  0.968505  0
H  H68  1  0.96904645  0.62806073  0.10948703  1  0.072852  0  0.110085  0.096252  0  0.968183  0
H  H69  1  0.65909833  0.51842497  0.62812691  1  0.070429  0  0.109709  0.096214  0  0.96864  0
H  H70  1  0.14065581  0.10970677  0.48171109  1  0.081331  0  0.109578  0.096074  0  0.96845  0
H  H71  1  0.03095179  0.37193950  0.89051162  1  0.072838  0  0.11009  0.096259  0  0.968187  0
H  H72  1  0.59445852  0.55466560  0.21511237  1  0.135387  0  0.114085  0.146931  0  1.003321  0
H  H73  1  0.03991410  0.66042981  0.44515185  1  0.144687  0  0.114229  0.147088  0  1.002819  0
H  H74  1  0.37954395  0.78471464  0.33958639  1  0.128176  0  0.114074  0.147311  0  1.003584  0
H  H75  1  0.40553633  0.44533193  0.78488471  1  0.135333  0  0.114064  0.146886  0  1.003352  0
H  H76  1  0.96008752  0.33957108  0.55484231  1  0.144835  0  0.114227  0.147131  0  1.002851  0
H  H77  1  0.62045328  0.21528559  0.66041500  1  0.128199  0  0.114072  0.147327  0  1.003515  0
H  H78  1  0.52719711  0.44545016  0.19483895  1  0.109692  0  0.116736  0.147783  0  0.990014  0
H  H79  1  0.08202547  0.74947283  0.55439772  1  0.120886  0  0.11657  0.147825  0  0.990382  0
H  H80  1  0.33278729  0.80487878  0.25052293  1  0.102262  0  0.116542  0.147727  0  0.990571  0
H  H81  1  0.47279603  0.55454805  0.80515883  1  0.109696  0  0.116739  0.1478  0  0.989988  0
H  H82  1  0.91798196  0.25052739  0.44559618  1  0.120769  0  0.116577  0.147834  0  0.990338  0
H  H83  1  0.66720719  0.19512211  0.74947676  1  0.102302  0  0.116562  0.147742  0  0.990598  0
H  H84  1  0.57312436  0.39901610  0.98108619  1  0.082245  0  0.113359  0.101937  0  0.978139  0
H  H85  1  0.17428826  0.58214703  0.60094564  1  0.066097  0  0.113199  0.102094  0  0.977785  0
H  H86  1  0.59253911  0.01867055  0.41803365  1  0.089852  0  0.113125  0.101618  0  0.978283  0
H  H87  1  0.42687491  0.60098614  0.01891632  1  0.082212  0  0.113333  0.101885  0  0.978125  0
H  H88  1  0.82571305  0.41785319  0.39905104  1  0.066011  0  0.113212  0.102127  0  0.97784  0
H  H89  1  0.40746052  0.98133035  0.58196830  1  0.089831  0  0.11312  0.101598  0  0.978269  0
H  H90  1  0.63964846  0.46167956  0.10113409  1  0.092344  0  0.112753  0.102832  0  1.023836  0
H  H91  1  0.17812504  0.63927987  0.53810520  1  0.095232  0  0.112614  0.102292  0  1.024361  0
H  H92  1  0.53899224  0.89868240  0.36079302  1  0.09711  0  0.112496  0.102055  0  1.024607  0
H  H93  1  0.36035146  0.53832402  0.89886738  1  0.092321  0  0.11274  0.102799  0  1.023842  0
H  H94  1  0.82187933  0.36072236  0.46189442  1  0.095168  0  0.112598  0.102296  0  1.024392  0
H  H95  1  0.46101114  0.10131782  0.63920673  1  0.097137  0  0.112503  0.102065  0  1.024626  0
H  H96  1  0.23826262  0.45957663  0.96901972  1  0.078549  0  0.116037  0.10561  0  1.002611  0
H  H97  1  0.77889066  0.50973323  0.54053119  1  0.09279  0  0.115864  0.105131  0  1.003045  0
H  H98  1  0.26925470  0.03095400  0.49000911  1  0.080356  0  0.116035  0.105628  0  1.002721  0
H  H99  1  0.76173427  0.54042292  0.03097962  1  0.078554  0  0.11606  0.105651  0  1.002638  0
H  H100  1  0.22111473  0.49026901  0.45946568  1  0.092761  0  0.115885  0.105133  0  1.003045  0
H  H101  1  0.73074528  0.96904354  0.50998966  1  0.080353  0  0.116029  0.105647  0  1.002711  0
H  H102  1  0.33224326  0.39456068  0.90085720  1  0.126336  0  0.107588  0.100686  0  1.023562  0
H  H103  1  0.93796077  0.50662723  0.60553312  1  0.117815  0  0.107802  0.100591  0  1.02333  0
H  H104  1  0.43163986  0.09897307  0.49324712  1  0.11339  0  0.107531  0.100309  0  1.024167  0
H  H105  1  0.66775735  0.60544223  0.09914347  1  0.126396  0  0.107584  0.100673  0  1.023615  0
H  H106  1  0.06204462  0.49337501  0.39446490  1  0.117897  0  0.107781  0.10057  0  1.023292  0
H  H107  1  0.56836253  0.90102313  0.50675073  1  0.113317  0  0.107556  0.10038  0  1.02422  0
C  C108  1  0.25922610  0.37294184  0.23414358  1  -0.03683  0  -0.167961  -0.184035  0  3.920525  0
C  C109  1  0.88625577  0.86119845  0.62689040  1  -0.007415  0  -0.16846  -0.185082  0  3.920438  0
C  C110  1  0.02541284  0.76577808  0.13869385  1  -0.003315  0  -0.168628  -0.185098  0  3.919355  0
C  C111  1  0.74077216  0.62705838  0.76585850  1  -0.036784  0  -0.167968  -0.184078  0  3.920606  0
C  C112  1  0.11374524  0.13879908  0.37310905  1  -0.006548  0  -0.168482  -0.185115  0  3.920478  0
C  C113  1  0.97458849  0.23422215  0.86130626  1  -0.003303  0  -0.168647  -0.185134  0  3.91937  0
C  C114  1  0.21473370  0.29619167  0.25352756  1  -0.029582  0  -0.165359  -0.136235  0  3.927646  0
C  C115  1  0.91854661  0.95732164  0.70379389  1  -0.009221  0  -0.165492  -0.137054  0  3.929714  0
C  C116  1  0.96149438  0.74647835  0.04255913  1  -0.003213  0  -0.165133  -0.135658  0  3.928168  0
C  C117  1  0.78526559  0.70380856  0.74647519  1  -0.029746  0  -0.165404  -0.136362  0  3.9277  0
C  C118  1  0.08145235  0.04267590  0.29620591  1  -0.009053  0  -0.165452  -0.13698  0  3.92964  0
C  C119  1  0.03850662  0.25352120  0.95744122  1  -0.003215  0  -0.16515  -0.135696  0  3.928115  0
C  C120  1  0.34398898  0.26735651  0.27999081  1  -0.021466  0  -0.167668  -0.142146  0  3.949899  0
C  C121  1  0.07664527  0.01266662  0.73275779  1  -0.013051  0  -0.167923  -0.143125  0  3.952012  0
C  C122  1  0.06429614  0.72006372  0.98726157  1  -0.005776  0  -0.16723  -0.14241  0  3.951242  0
C  C123  1  0.65600997  0.73264304  0.72001103  1  -0.021203  0  -0.167646  -0.14209  0  3.94979  0
C  C124  1  0.92335436  0.98733226  0.26724269  1  -0.013259  0  -0.167966  -0.143232  0  3.952112  0
C  C125  1  0.93570313  0.27993650  0.01273890  1  -0.005837  0  -0.167229  -0.1424  0  3.951216  0
C  C126  1  0.46451329  0.34725942  0.36051744  1  -0.025083  0  -0.168377  -0.140864  0  3.917827  0
C  C127  1  0.11725145  0.01336782  0.65290269  1  -0.023082  0  -0.168545  -0.140694  0  3.919137  0
C  C128  1  0.10409475  0.63949249  0.98652780  1  -0.015394  0  -0.169136  -0.140905  0  3.918915  0
C  C129  1  0.53548704  0.65273879  0.63948338  1  -0.025148  0  -0.168449  -0.141035  0  3.917954  0
C  C130  1  0.88274750  0.98663174  0.34709859  1  -0.023021  0  -0.168516  -0.140677  0  3.919201  0
C  C131  1  0.89590041  0.36050773  0.01346995  1  -0.015476  0  -0.169157  -0.14097  0  3.919023  0
C  C132  1  0.51163007  0.42424023  0.34185981  1  -0.01943  0  -0.171373  -0.190814  0  3.922093  0
C  C133  1  0.08743582  0.91774230  0.57577458  1  -0.024829  0  -0.171307  -0.191413  0  3.921575  0
C  C134  1  0.16981363  0.65797148  0.08216566  1  -0.026305  0  -0.170569  -0.190644  0  3.920541  0
C  C135  1  0.48837024  0.57576000  0.65814191  1  -0.019314  0  -0.17132  -0.190667  0  3.922028  0
C  C136  1  0.91256483  0.08225860  0.42422690  1  -0.024838  0  -0.171332  -0.191476  0  3.92155  0
C  C137  1  0.83018463  0.34202672  0.91783323  1  -0.026252  0  -0.170564  -0.190631  0  3.920577  0
C  C138  1  0.38144469  0.45149160  0.31435445  1  -0.075567  0  -0.066466  0.018048  0  3.799889  0
C  C139  1  0.92999402  0.86288393  0.54838547  1  -0.088599  0  -0.066203  0.019201  0  3.798904  0
C  C140  1  0.06721482  0.68552160  0.13698161  1  -0.073281  0  -0.06692  0.018517  0  3.798068  0
C  C141  1  0.61855664  0.54850862  0.68564681  1  -0.075392  0  -0.066484  0.018036  0  3.799857  0
C  C142  1  0.07000764  0.13711696  0.45161498  1  -0.089049  0  -0.06613  0.019317  0  3.798671  0
C  C143  1  0.93278617  0.31447795  0.86301817  1  -0.073178  0  -0.066904  0.018556  0  3.798035  0
C  C144  1  0.49466839  0.50370195  0.19995012  1  -0.163328  0  -0.146503  -0.323743  0  3.870769  0
C  C145  1  0.99116361  0.69627953  0.49615354  1  -0.189916  0  -0.146343  -0.324015  0  3.868963  0
C  C146  1  0.29500241  0.79983238  0.30366458  1  -0.151391  0  -0.146198  -0.323622  0  3.870197  0
C  C147  1  0.50532920  0.49629693  0.80005071  1  -0.1631  0  -0.146448  -0.323651  0  3.870617  0
C  C148  1  0.00883905  0.30372136  0.50384301  1  -0.189893  0  -0.14644  -0.324101  0  3.868884  0
C  C149  1  0.70499689  0.20016582  0.69633442  1  -0.151443  0  -0.146253  -0.323706  0  3.870374  0
C  C150  1  0.38397266  0.48035312  0.11302480  1  1.406513  0  0.237459  0.468467  0  4.079887  0
C  C151  1  0.90386301  0.63277865  0.51954935  1  1.403192  0  0.237487  0.470127  0  4.078094  0
C  C152  1  0.27121369  0.88676990  0.36714377  1  1.397856  0  0.237688  0.468962  0  4.079778  0
C  C153  1  0.61603175  0.51964710  0.88697621  1  1.406495  0  0.237508  0.468658  0  4.080067  0
C  C154  1  0.09614855  0.36722157  0.48044784  1  1.403348  0  0.237542  0.470144  0  4.078001  0
C  C155  1  0.72877638  0.11322831  0.63285540  1  1.397637  0  0.237591  0.468856  0  4.079544  0
C  C156  1  0.57879920  0.46038904  0.04134063  1  0.273278  0  -0.057676  -0.087407  0  3.871508  0
C  C157  1  0.11849477  0.58090730  0.53952025  1  0.297094  0  -0.057551  -0.086701  0  3.8722  0
C  C158  1  0.53773041  0.95850312  0.41917352  1  0.277107  0  -0.057253  -0.086052  0  3.872383  0
C  C159  1  0.42119869  0.53961252  0.95865972  1  0.273429  0  -0.057682  -0.087329  0  3.871559  0
C  C160  1  0.88150585  0.41909359  0.46047666  1  0.297383  0  -0.057566  -0.086756  0  3.872373  0
C  C161  1  0.46227230  0.04149576  0.58082728  1  0.277027  0  -0.057232  -0.086099  0  3.872363  0
C  C162  1  0.34460254  0.45707147  0.96188483  1  0.268159  0  -0.06222  -0.084932  0  3.8567  0
C  C163  1  0.88767871  0.50503890  0.54298593  1  0.266109  0  -0.062132  -0.082809  0  3.855564  0
C  C164  1  0.38278226  0.03806126  0.49483233  1  0.282473  0  -0.062286  -0.083941  0  3.856481  0
C  C165  1  0.65539911  0.54293144  0.03811652  1  0.268015  0  -0.062255  -0.084943  0  3.856684  0
C  C166  1  0.11232669  0.49496334  0.45701265  1  0.266043  0  -0.062122  -0.082753  0  3.855443  0
C  C167  1  0.61721705  0.96193695  0.50516953  1  0.282662  0  -0.062309  -0.084127  0  3.856638  0
S  S168  1  0.43172659  0.54744411  0.29654897  1  0.058923  0  -0.019198  0.079883  0  3.508074  0
S  S169  1  0.88445831  0.74912542  0.45239525  1  0.06095  0  -0.018935  0.08006  0  3.507303  0
S  S170  1  0.13535725  0.70326336  0.25072965  1  0.061574  0  -0.019099  0.079709  0  3.50798  0
S  S171  1  0.56827201  0.45255679  0.70345459  1  0.058539  0  -0.019228  0.079784  0  3.508119  0
S  S172  1  0.11554333  0.25087749  0.54760495  1  0.060819  0  -0.018982  0.079939  0  3.507368  0
S  S173  1  0.86464136  0.29673552  0.74927014  1  0.061559  0  -0.019092  0.079711  0  3.508105  0
N  N174  1  0.43067936  0.45865712  0.04073016  1  -1.185555  0  -0.279276  -0.106517  0  3.602043  0
N  N175  1  0.97217563  0.58217554  0.54126797  1  -1.185685  0  -0.278615  -0.109088  0  3.605428  0
N  N176  1  0.39014978  0.95911866  0.41774087  1  -1.201404  0  -0.278567  -0.107603  0  3.603357  0
N  N177  1  0.56931717  0.54134579  0.95927236  1  -1.185792  0  -0.279311  -0.106695  0  3.60196  0
N  N178  1  0.02782465  0.41782468  0.45872803  1  -1.185593  0  -0.278605  -0.109073  0  3.605122  0
N  N179  1  0.60984749  0.04087753  0.58225873  1  -1.201698  0  -0.278438  -0.107213  0  3.603284  0
N  N180  1  0.37528591  0.74348438  0.48470881  1  0.840203  0  0.089472  0.709951  0  4.423191  0
N  N181  1  0.63189743  0.74122276  0.25640743  1  0.829732  0  0.089419  0.710324  0  4.424184  0
N  N182  1  0.89040139  0.51514435  0.25881768  1  0.820252  0  0.090526  0.712122  0  4.422572  0
N  N183  1  0.62471438  0.25651786  0.51529266  1  0.840293  0  0.089429  0.709861  0  4.423333  0
N  N184  1  0.36810660  0.25877881  0.74359185  1  0.83  0  0.0895  0.710375  0  4.424073  0
N  N185  1  0.10959585  0.48485386  0.74118053  1  0.820294  0  0.090578  0.712264  0  4.422352  0
O  O186  1  0.25701531  0.48133052  0.10818671  1  -1.155967  0  -0.303847  -0.494314  0  2.326442  0
O  O187  1  0.77596333  0.62707403  0.51863488  1  -1.15916  0  -0.304569  -0.49501  0  2.323481  0
O  O188  1  0.14903359  0.89160423  0.37282329  1  -1.151521  0  -0.304646  -0.494962  0  2.326515  0
O  O189  1  0.74296962  0.51866970  0.89181396  1  -1.155845  0  -0.303856  -0.494396  0  2.326941  0
O  O190  1  0.22403932  0.37292888  0.48136372  1  -1.159259  0  -0.304576  -0.495007  0  2.323807  0
O  O191  1  0.85097525  0.10839666  0.62717792  1  -1.151237  0  -0.304624  -0.495042  0  2.326118  0
O  O192  1  0.51413281  0.77115901  0.50738472  1  -0.586088  0  -0.219912  -0.44914  0  2.07275  0
O  O193  1  0.74289559  0.73608314  0.22859284  1  -0.575071  0  -0.219469  -0.448879  0  2.074731  0
O  O194  1  0.00663998  0.49255508  0.26394997  1  -0.575891  0  -0.219906  -0.449471  0  2.073332  0
O  O195  1  0.48587131  0.22884256  0.49262714  1  -0.586001  0  -0.219907  -0.449141  0  2.072932  0
O  O196  1  0.25710605  0.26391775  0.77140418  1  -0.575247  0  -0.219498  -0.448904  0  2.074683  0
O  O197  1  0.99335216  0.50743708  0.73604214  1  -0.575863  0  -0.219935  -0.449549  0  2.073295  0
O  O198  1  0.30806825  0.80029685  0.50153957  1  -0.537634  0  -0.201065  -0.456872  0  1.935649  0
O  O199  1  0.50770638  0.70114174  0.19970899  1  -0.549779  0  -0.201138  -0.456825  0  1.934985  0
O  O200  1  0.80626747  0.49832130  0.29876076  1  -0.546895  0  -0.201598  -0.457811  0  1.936554  0
O  O201  1  0.69193336  0.19970605  0.49845664  1  -0.537716  0  -0.201059  -0.45684  0  1.935648  0
O  O202  1  0.49229595  0.29886050  0.80029213  1  -0.549864  0  -0.201168  -0.456831  0  1.934925  0
O  O203  1  0.19373248  0.50168026  0.70124038  1  -0.546822  0  -0.201636  -0.457889  0  1.936495  0
O  O204  1  0.30891123  0.66012241  0.44565650  1  -0.573647  0  -0.204554  -0.483099  0  2.017128  0
O  O205  1  0.64919780  0.78577979  0.33980285  1  -0.56188  0  -0.20457  -0.483621  0  2.016899  0
O  O206  1  0.86308051  0.55409529  0.21441396  1  -0.554485  0  -0.204852  -0.484138  0  2.016845  0
O  O207  1  0.69108768  0.33987916  0.55434167  1  -0.573711  0  -0.204533  -0.483055  0  2.017079  0
O  O208  1  0.35081035  0.21422178  0.66019744  1  -0.561868  0  -0.204592  -0.483654  0  2.017005  0
O  O209  1  0.13691910  0.44590560  0.78558685  1  -0.5546  0  -0.204833  -0.484138  0  2.016783  0
