# generated using pymatgen
data_Zr6H35C62Br5O34
_symmetry_space_group_name_H-M   'P 1'
_cell_length_a   14.86534617
_cell_length_b   14.83543752
_cell_length_c   14.83342423
_cell_angle_alpha   59.92218233
_cell_angle_beta   59.96050208
_cell_angle_gamma   59.98812733
_symmetry_Int_Tables_number   1
_chemical_formula_structural   Zr6H35C62Br5O34
_chemical_formula_sum   'Zr6 H35 C62 Br5 O34'
_cell_volume   2310.87882992
_cell_formula_units_Z   1
loop_
 _symmetry_equiv_pos_site_id
 _symmetry_equiv_pos_as_xyz
  1  'x, y, z'
loop_
 _atom_site_type_symbol
 _atom_site_label
 _atom_site_symmetry_multiplicity
 _atom_site_fract_x
 _atom_site_fract_y
 _atom_site_fract_z
 _atom_site_occupancy
 _atom_site_pbe_bader_charge
 _atom_site_pbe_bader_spin_density
 _atom_site_pbe_cm5_charge
 _atom_site_pbe_ddec_charge
 _atom_site_pbe_ddec_spin_density
 _atom_site_pbe_ddec_sum_bond_order
 _atom_site_pbe_magmom
Zr  Zr0  1  0.89152948  0.37112013  0.61925506  1  2.63647  0  1.631073  2.3708  0  2.755745  0
Zr  Zr1  1  0.12468379  0.61500054  0.37759145  1  2.631595  0  1.620504  2.373921  0  2.733602  0
Zr  Zr2  1  0.12963887  0.37651064  0.61610697  1  2.635422  0  1.625308  2.380553  0  2.753077  0
Zr  Zr3  1  0.88851436  0.60965637  0.38144165  1  2.634739  0  1.630024  2.366707  0  2.76084  0
Zr  Zr4  1  0.88936905  0.61011495  0.61994723  1  2.638789  0  1.627438  2.373117  0  2.752801  0
Zr  Zr5  1  0.12995645  0.37200034  0.38102732  1  2.634591  0  1.62574  2.374687  0  2.747941  0
H  H6  1  0.91526527  0.40013936  0.78075618  1  0.610534  0  0.329897  0.419317  0  0.865659  0
H  H7  1  0.90936158  0.77357940  0.40726265  1  0.607772  0  0.329618  0.418489  0  0.863753  0
H  H8  1  0.29097314  0.40328597  0.40210650  1  0.595995  0  0.332526  0.427414  0  0.851067  0
H  H9  1  0.91626828  0.39613623  0.40714795  1  0.61501  0  0.330684  0.419341  0  0.864027  0
H  H10  1  0.57308417  0.37247402  0.88619211  1  0.123759  0  0.108487  0.123861  0  1.012549  0
H  H11  1  0.53923871  0.75759766  0.86642892  1  0.059727  0  0.099824  0.115671  0  0.980642  0
H  H12  1  0.62495510  0.66471987  0.95035931  1  0.032865  0  0.094277  0.102179  0  1.009469  0
H  H13  1  0.45595373  0.65826896  0.12083554  1  0.083182  0  0.080764  0.090965  0  1.058571  0
H  H14  1  0.37174881  0.75418888  0.03541675  1  0.103824  0  0.099495  0.12322  0  1.012447  0
H  H15  1  0.86265644  0.08639689  0.63887890  1  0.154784  0  0.108962  0.128109  0  1.002913  0
H  H16  1  0.24324964  0.05267420  0.29402556  1  0.063251  0  0.095231  0.105208  0  1.011161  0
H  H17  1  0.14231039  0.13863113  0.22707652  1  0.050419  0  0.092161  0.102646  0  1.011825  0
H  H18  1  0.13321715  0.97054554  0.23406032  1  0.055379  0  0.099027  0.114619  0  0.975726  0
H  H19  1  0.23073349  0.88383835  0.30535706  1  0.059167  0  0.082151  0.094798  0  1.059912  0
H  H20  1  0.60010340  0.89966764  0.64409999  1  0.091505  0  0.100342  0.113171  0  1.043168  0
H  H21  1  0.51057503  0.84660307  0.36952850  1  0.056021  0  0.094749  0.106864  0  0.997412  0
H  H22  1  0.59870084  0.92754463  0.27097773  1  0.0628  0  0.098951  0.114376  0  0.994777  0
H  H23  1  0.43375665  0.10150052  0.27555649  1  0.073585  0  0.093249  0.103353  0  1.013451  0
H  H24  1  0.34610539  0.02058354  0.37472723  1  0.032314  0  0.098384  0.112108  0  0.996371  0
H  H25  1  0.13414993  0.33003269  0.10815279  1  0.109529  0  0.100751  0.115346  0  1.034841  0
H  H26  1  0.86682908  0.75107664  0.02138866  1  0.068903  0  0.103214  0.119064  0  0.97042  0
H  H27  1  0.76775482  0.68160490  0.10503126  1  0.044816  0  0.098386  0.108199  0  0.985155  0
H  H28  1  0.77409087  0.67611089  0.93465885  1  0.040276  0  0.093837  0.101969  0  1.010709  0
H  H29  1  0.87419187  0.74355239  0.85116134  1  0.07181  0  0.0888  0.10413  0  1.027356  0
H  H30  1  0.79581067  0.26052268  0.92663127  1  0.078098  0  0.093961  0.099649  0  1.055377  0
H  H31  1  0.62723462  0.25948224  0.08822522  1  0.065363  0  0.0893  0.087764  0  1.038104  0
H  H32  1  0.79009437  0.92690474  0.26339994  1  0.072858  0  0.094368  0.097863  0  1.053268  0
H  H33  1  0.62488505  0.09245559  0.25855863  1  0.06469  0  0.094844  0.092646  0  1.028533  0
H  H34  1  0.59937365  0.63889562  0.35902868  1  0.11041  0  0.106002  0.120404  0  1.021083  0
H  H35  1  0.52033697  0.34639984  0.76877967  1  0.055888  0  0.093825  0.104907  0  1.007278  0
H  H36  1  0.60091366  0.25437532  0.69109574  1  0.084357  0  0.098108  0.110991  0  0.982585  0
H  H37  1  0.42874388  0.27185908  0.68065657  1  0.068369  0  0.079969  0.093167  0  1.067864  0
H  H38  1  0.34779386  0.36319026  0.75843071  1  0.069315  0  0.090892  0.106975  0  1.007246  0
H  H39  1  0.17994523  0.78837732  0.10531378  1  0.647123  0  0.313359  0.354331  0  0.961916  0
H  H40  1  0.18718597  0.09663190  0.80153347  1  0.641316  0  0.30487  0.349014  0  0.968366  0
C  C41  1  0.69967136  0.49914138  0.79417743  1  1.536375  0  0.238434  0.64614  0  4.103745  0
C  C42  1  0.99851743  0.80099956  0.49786222  1  1.57879  0  0.233685  0.652035  0  4.099097  0
C  C43  1  0.30126681  0.50147887  0.18536052  1  1.56986  0  0.236464  0.657115  0  4.092268  0
C  C44  1  0.01328352  0.18802789  0.49852694  1  1.565232  0  0.237038  0.645407  0  4.103426  0
C  C45  1  0.00553526  0.19010802  0.80603438  1  1.51673  0  0.23474  0.659173  0  4.073872  0
C  C46  1  0.70313346  0.49236661  0.50609329  1  1.56957  0  0.238553  0.648113  0  4.102001  0
C  C47  1  0.99799611  0.80134674  0.19654113  1  1.514666  0  0.23484  0.656496  0  4.081146  0
C  C48  1  0.30297835  0.51097757  0.49715464  1  1.576091  0  0.236465  0.655691  0  4.090797  0
C  C49  1  0.01267155  0.48793268  0.80307302  1  1.576981  0  0.23452  0.652295  0  4.103215  0
C  C50  1  0.30898374  0.18597167  0.50886929  1  1.562281  0  0.236584  0.656998  0  4.097021  0
C  C51  1  0.01146454  0.49284020  0.19656715  1  1.574157  0  0.237682  0.649306  0  4.09973  0
C  C52  1  0.69832648  0.78470212  0.50796705  1  1.542847  0  0.236564  0.643984  0  4.103758  0
C  C53  1  0.59183081  0.50786494  0.88499451  1  0.052938  0  -0.008639  -0.0629  0  3.969354  0
C  C54  1  0.39345427  0.50653534  0.07747804  1  0.04771  0  -0.014839  -0.133215  0  3.915487  0
C  C55  1  0.54115315  0.58567707  0.93692851  1  -0.054677  0  -0.001063  0.065845  0  3.877525  0
C  C56  1  0.44117103  0.43298977  0.01805952  1  -0.133234  0  -0.005439  0.094776  0  3.914214  0
C  C57  1  0.44604166  0.58395800  0.03008752  1  -0.04025  0  0.003539  0.086388  0  3.852436  0
C  C58  1  0.53741108  0.43305671  0.92628335  1  0.031844  0  -0.090196  -0.16344  0  3.982259  0
C  C59  1  0.55004796  0.68217721  0.93816609  1  0.005203  0  -0.149927  -0.192051  0  3.86633  0
C  C60  1  0.44382012  0.67946873  0.04453293  1  -0.082875  0  -0.157306  -0.205283  0  3.8562  0
C  C61  1  0.00430938  0.09657442  0.49117123  1  -0.019004  0  -0.010123  -0.063093  0  3.966171  0
C  C62  1  0.98891280  0.90779535  0.49393243  1  0.019723  0  -0.015118  -0.131656  0  3.924269  0
C  C63  1  0.07252262  0.05277223  0.40546818  1  -0.023713  0  -0.003913  0.059582  0  3.873543  0
C  C64  1  0.91158825  0.96158062  0.57374017  1  -0.148484  0  -0.005981  0.098989  0  3.918898  0
C  C65  1  0.06490937  0.96101059  0.40866113  1  0.011598  0  0.002098  0.082866  0  3.868138  0
C  C66  1  0.92118034  0.05050112  0.57369025  1  0.025726  0  -0.091045  -0.160921  0  3.973021  0
C  C67  1  0.16451117  0.06296458  0.29473813  1  -0.031677  0  -0.152218  -0.197145  0  3.869905  0
C  C68  1  0.15743407  0.95783301  0.29954148  1  -0.000784  0  -0.154186  -0.195135  0  3.865561  0
C  C69  1  0.59540924  0.88178235  0.51178254  1  -0.002718  0  -0.007948  -0.056809  0  3.959967  0
C  C70  1  0.40456282  0.08124778  0.51637857  1  0.044126  0  -0.014366  -0.130556  0  3.919657  0
C  C71  1  0.53609093  0.92875904  0.44106150  1  -5e-06  0  -0.002996  0.060098  0  3.877327  0
C  C72  1  0.46384312  0.03013932  0.59050369  1  -0.112692  0  -0.00426  0.100806  0  3.905327  0
C  C73  1  0.44471705  0.02508696  0.44390970  1  -0.040105  0  0.000216  0.0754  0  3.877155  0
C  C74  1  0.55580256  0.93441545  0.58748914  1  0.057161  0  -0.09127  -0.160705  0  3.985019  0
C  C75  1  0.52819929  0.91996946  0.34793101  1  -0.026269  0  -0.151638  -0.202277  0  3.864952  0
C  C76  1  0.42498555  0.02920554  0.35078847  1  -0.007207  0  -0.151413  -0.201897  0  3.870415  0
C  C77  1  0.00836917  0.48938438  0.09989622  1  0.011372  0  -0.00944  -0.060076  0  3.973124  0
C  C78  1  0.01080252  0.48036892  0.90798332  1  -0.015296  0  -0.015614  -0.129616  0  3.923055  0
C  C79  1  0.93652003  0.57275289  0.04225301  1  0.023942  0  -0.00256  0.062695  0  3.883123  0
C  C80  1  0.07879000  0.39217662  0.97204912  1  -0.082973  0  -0.006752  0.096638  0  3.91279  0
C  C81  1  0.93929548  0.56799310  0.94926039  1  -0.028188  0  0.001716  0.082573  0  3.868155  0
C  C82  1  0.07882175  0.39796978  0.06310981  1  -0.028765  0  -0.095029  -0.170255  0  3.998073  0
C  C83  1  0.84512587  0.68344419  0.03510982  1  -0.021023  0  -0.148518  -0.195427  0  3.868183  0
C  C84  1  0.84925929  0.67902985  0.92882096  1  -0.002048  0  -0.15398  -0.199238  0  3.875975  0
C  C85  1  0.99846596  0.09964035  0.91394701  1  -0.000822  0  -0.036399  -0.230776  0  3.965885  0
C  C86  1  0.89500589  0.09542293  0.00194919  1  0.029816  0  -0.008874  0.069185  0  3.979718  0
C  C87  1  0.09699133  0.01749385  0.92885865  1  0.584684  0  0.087358  0.218529  0  4.052215  0
C  C88  1  0.79637618  0.18736428  0.00022607  1  -0.057796  0  -0.103017  -0.13831  0  3.98512  0
C  C89  1  0.70102227  0.18655410  0.09085521  1  -0.036222  0  -0.105726  -0.091807  0  4.059206  0
C  C90  1  0.99449018  0.90820842  0.10505987  1  0.028529  0  -0.037179  -0.232934  0  3.970076  0
C  C91  1  0.09488324  0.92035118  0.02491256  1  0.530154  0  0.089283  0.217163  0  4.04273  0
C  C92  1  0.89304180  0.99881603  0.09895940  1  -0.0268  0  -0.009677  0.067294  0  3.98552  0
C  C93  1  0.79301574  0.99977593  0.18947521  1  -0.046929  0  -0.103432  -0.143615  0  3.99475  0
C  C94  1  0.69952611  0.09230197  0.18634256  1  -0.068049  0  -0.103263  -0.091426  0  4.057944  0
C  C95  1  0.59830227  0.49952130  0.50910131  1  -0.035083  0  -0.009731  -0.05939  0  3.966055  0
C  C96  1  0.40003084  0.51585451  0.49909531  1  0.037583  0  -0.014845  -0.130539  0  3.915347  0
C  C97  1  0.53821989  0.42912604  0.59079046  1  0.004703  0  -0.001025  0.064095  0  3.869784  0
C  C98  1  0.46019161  0.58963313  0.41860023  1  -0.157569  0  -0.008166  0.09215  0  3.931136  0
C  C99  1  0.44280069  0.43824138  0.58503433  1  -0.006432  0  0.003196  0.087757  0  3.857094  0
C  C100  1  0.55541155  0.58133373  0.42356418  1  0.064099  0  -0.0952  -0.170338  0  3.994898  0
C  C101  1  0.53216084  0.33167005  0.69740091  1  -0.044947  0  -0.150517  -0.194376  0  3.86041  0
C  C102  1  0.42414515  0.34230455  0.69112645  1  -0.026119  0  -0.157813  -0.200248  0  3.869531  0
Br  Br103  1  0.38035565  0.32715782  0.05435922  1  -0.044104  0  0.042025  -0.046711  0  1.469825  0
Br  Br104  1  0.78296752  0.92486602  0.68431745  1  -0.045485  0  0.048449  -0.04925  0  1.501405  0
Br  Br105  1  0.42912057  0.08416834  0.70076808  1  -0.035756  0  0.058082  -0.029023  0  1.565146  0
Br  Br106  1  0.17146613  0.25432907  0.94636466  1  -0.04691  0  0.040709  -0.045402  0  1.466196  0
Br  Br107  1  0.42016375  0.70796541  0.29413424  1  -0.055755  0  0.060321  -0.038017  0  1.546823  0
O  O108  1  0.74209204  0.41970920  0.75778694  1  -1.178812  0  -0.351898  -0.614602  0  2.296954  0
O  O109  1  0.07584874  0.76491015  0.41914688  1  -1.174898  0  -0.343025  -0.602907  0  2.250193  0
O  O110  1  0.26503013  0.57837055  0.22363274  1  -1.177166  0  -0.34542  -0.609621  0  2.238391  0
O  O111  1  0.94081279  0.22376930  0.57872177  1  -1.1856  0  -0.354655  -0.613918  0  2.27575  0
O  O112  1  0.09001931  0.22214223  0.75781630  1  -1.186901  0  -0.347237  -0.634788  0  2.309364  0
O  O113  1  0.74558133  0.56617911  0.42693065  1  -1.187962  0  -0.359613  -0.619207  0  2.300859  0
O  O114  1  0.92237032  0.76115362  0.23731994  1  -1.169381  0  -0.338076  -0.591739  0  2.272201  0
O  O115  1  0.26816257  0.43125116  0.57334644  1  -1.17129  0  -0.340082  -0.594686  0  2.255589  0
O  O116  1  0.93584495  0.56664415  0.76516929  1  -1.165625  0  -0.340125  -0.599885  0  2.241285  0
O  O117  1  0.27294629  0.22351609  0.43025075  1  -1.172247  0  -0.341295  -0.602409  0  2.243831  0
O  O118  1  0.08756110  0.41635198  0.23628485  1  -1.179803  0  -0.353085  -0.613449  0  2.309587  0
O  O119  1  0.74116954  0.74805232  0.58105279  1  -1.173105  0  -0.354992  -0.615206  0  2.305931  0
O  O120  1  0.27012072  0.23198406  0.58012137  1  -1.185235  0  -0.367525  -0.633697  0  2.377199  0
O  O121  1  0.93619062  0.57185233  0.23320520  1  -1.174074  0  -0.353378  -0.611919  0  2.254701  0
O  O122  1  0.73760043  0.74772267  0.42961319  1  -1.171275  0  -0.347756  -0.60395  0  2.272733  0
O  O123  1  0.09102423  0.41656949  0.75739820  1  -1.18266  0  -0.365713  -0.627417  0  2.372787  0
O  O124  1  0.93039219  0.22966717  0.76515382  1  -1.171948  0  -0.350709  -0.598321  0  2.282699  0
O  O125  1  0.26300063  0.58357745  0.41971646  1  -1.184166  0  -0.36444  -0.633419  0  2.347856  0
O  O126  1  0.08275564  0.75264293  0.22890388  1  -1.191026  0  -0.359973  -0.645418  0  2.329715  0
O  O127  1  0.74362670  0.41297846  0.58086891  1  -1.177481  0  -0.346351  -0.605064  0  2.247176  0
O  O128  1  0.09213096  0.22471520  0.42334960  1  -1.178823  0  -0.349425  -0.606688  0  2.253725  0
O  O129  1  0.74315937  0.57061960  0.76152870  1  -1.16893  0  -0.351063  -0.609559  0  2.273848  0
O  O130  1  0.93127950  0.75176810  0.57942894  1  -1.184029  0  -0.363249  -0.625416  0  2.362662  0
O  O131  1  0.26751309  0.41925458  0.23422189  1  -1.177164  0  -0.362338  -0.625589  0  2.372613  0
O  O132  1  0.94334922  0.42271155  0.43342862  1  -1.244168  0  -0.693513  -1.06817  0  2.371502  0
O  O133  1  0.21106903  0.42889231  0.42970325  1  -1.223418  0  -0.692589  -1.070265  0  2.350704  0
O  O134  1  0.93838710  0.69356162  0.43226257  1  -1.237179  0  -0.69525  -1.066847  0  2.372568  0
O  O135  1  0.94330152  0.42465468  0.70067254  1  -1.240664  0  -0.694969  -1.069017  0  2.372117  0
O  O136  1  0.05764064  0.54424057  0.54652941  1  -1.200198  0  -0.792334  -1.148823  0  2.138054  0
O  O137  1  0.86068104  0.53974727  0.55002430  1  -1.195012  0  -0.790692  -1.14833  0  2.133431  0
O  O138  1  0.05719683  0.54138286  0.35152800  1  -1.196278  0  -0.790991  -1.147517  0  2.131145  0
O  O139  1  0.05997976  0.34487614  0.54858226  1  -1.200652  0  -0.792873  -1.151262  0  2.135378  0
O  O140  1  0.19409477  0.84369102  0.02944023  1  -1.148616  0  -0.341461  -0.410792  0  2.328013  0
O  O141  1  0.19785460  0.02044747  0.85623848  1  -1.13856  0  -0.349171  -0.423737  0  2.347968  0
