# generated using pymatgen
data_CuH20C18N4O5
_symmetry_space_group_name_H-M   'P 1'
_cell_length_a   9.02509753
_cell_length_b   15.31088243
_cell_length_c   16.83985901
_cell_angle_alpha   89.99966062
_cell_angle_beta   90.00083643
_cell_angle_gamma   89.99927816
_symmetry_Int_Tables_number   1
_chemical_formula_structural   CuH20C18N4O5
_chemical_formula_sum   'Cu4 H80 C72 N16 O20'
_cell_volume   2326.96888485
_cell_formula_units_Z   4
loop_
 _symmetry_equiv_pos_site_id
 _symmetry_equiv_pos_as_xyz
  1  'x, y, z'
loop_
 _atom_site_type_symbol
 _atom_site_label
 _atom_site_symmetry_multiplicity
 _atom_site_fract_x
 _atom_site_fract_y
 _atom_site_fract_z
 _atom_site_occupancy
 _atom_site_pbe_bader_charge
 _atom_site_pbe_bader_spin_density
 _atom_site_pbe_cm5_charge
 _atom_site_pbe_ddec_charge
 _atom_site_pbe_ddec_spin_density
 _atom_site_pbe_ddec_sum_bond_order
 _atom_site_pbe_magmom
Cu  Cu0  1  0.43323267  0.72315978  0.21539707  1  1.089126  -0.581651  0.744902  0.816159  -0.802695  2.217218  -0.582
Cu  Cu1  1  0.93324870  0.27685451  0.78459260  1  1.08926  0.581759  0.74495  0.816219  0.754827  2.217179  0.582
Cu  Cu2  1  0.93324242  0.77683702  0.71539890  1  1.089054  0.581622  0.744883  0.81608  0.754657  2.217376  0.582
Cu  Cu3  1  0.43322455  0.22315701  0.28460324  1  1.089701  0.581738  0.744844  0.816204  0.754797  2.217194  0.582
H  H4  1  0.73751360  0.31434769  0.34219077  1  0.114796  0.00063  0.144282  0.113274  0.000219  0.969112  0.0
H  H5  1  0.23752491  0.68564650  0.65780985  1  0.114787  0.000628  0.144296  0.113341  0.000217  0.969058  0.0
H  H6  1  0.23751615  0.18566360  0.84217672  1  0.11517  0.000628  0.144373  0.113359  0.000217  0.968933  0.0
H  H7  1  0.73752679  0.81435345  0.15780786  1  0.11473  -0.000629  0.144274  0.113286  -0.00024  0.969071  0.0
H  H8  1  0.60198943  0.22145227  0.11817495  1  0.11199  0.000872  0.122624  0.12042  0.000377  0.988333  0.001
H  H9  1  0.10200713  0.77852791  0.88182936  1  0.112087  0.000862  0.122582  0.120407  0.000367  0.988414  0.001
H  H10  1  0.10200774  0.27854585  0.61815389  1  0.111897  0.000871  0.122614  0.120355  0.000375  0.988541  0.001
H  H11  1  0.60199104  0.72145589  0.38182074  1  0.11204  -0.000863  0.122556  0.120365  -0.000395  0.988264  -0.001
H  H12  1  0.89085970  0.28407728  0.10519243  1  0.17692  0.00096  0.121752  0.132795  0.000478  1.037586  0.001
H  H13  1  0.39089461  0.71592556  0.89480641  1  0.176568  0.000989  0.121784  0.132821  0.000492  1.037479  0.001
H  H14  1  0.39088488  0.21592530  0.60518119  1  0.176513  0.000955  0.121722  0.132713  0.000473  1.037616  0.001
H  H15  1  0.89086610  0.78406448  0.39480874  1  0.176847  -0.000983  0.12176  0.13279  -0.000516  1.037501  -0.001
H  H16  1  0.03865624  0.32606496  0.30463130  1  0.099534  -8.8e-05  0.107612  0.086847  -6e-05  1.017769  0.0
H  H17  1  0.53866690  0.67393071  0.69536124  1  0.099352  -8.8e-05  0.10766  0.086892  -6.1e-05  1.017844  0.0
H  H18  1  0.53865378  0.17393304  0.80463129  1  0.09957  -8.8e-05  0.107595  0.086789  -6.1e-05  1.017738  0.0
H  H19  1  0.03866271  0.82606329  0.19537075  1  0.099508  8.7e-05  0.107579  0.086855  5.8e-05  1.01777  0.0
H  H20  1  0.06993078  0.34217530  0.20210498  1  0.072385  0.000303  0.111643  0.094656  0.000158  1.025439  0.0
H  H21  1  0.56996343  0.65782602  0.79788899  1  0.072321  0.000302  0.111561  0.094653  0.000163  1.025395  0.0
H  H22  1  0.56994972  0.15782642  0.70210566  1  0.072224  0.000303  0.111616  0.094679  0.000159  1.025359  0.0
H  H23  1  0.06994449  0.84216771  0.29789900  1  0.072231  -0.000303  0.111666  0.094693  -0.000176  1.025345  0.0
H  H24  1  0.92146645  0.46804952  0.31948780  1  0.029199  2.2e-05  0.090884  0.084309  1.3e-05  0.975371  0.0
H  H25  1  0.42148609  0.53195244  0.68051009  1  0.029459  2.9e-05  0.090915  0.084326  1.6e-05  0.975165  0.0
H  H26  1  0.42146785  0.03195271  0.81948169  1  0.028796  2.4e-05  0.090912  0.084361  1.3e-05  0.975233  0.0
H  H27  1  0.92147915  0.96804664  0.18051798  1  0.029421  -2e-05  0.090933  0.084414  -1.3e-05  0.975162  0.0
H  H28  1  0.08723634  0.48205592  0.26505889  1  0.052425  7.3e-05  0.098251  0.100615  4.1e-05  0.991044  0.0
H  H29  1  0.58725473  0.51793612  0.73494175  1  0.052167  8.1e-05  0.098238  0.100572  4.4e-05  0.99122  0.0
H  H30  1  0.58724053  0.01793806  0.76505733  1  0.052351  8.2e-05  0.098265  0.100613  4.4e-05  0.991096  0.0
H  H31  1  0.08724721  0.98205529  0.23494984  1  0.052314  -7.3e-05  0.098275  0.100642  -4.3e-05  0.991085  0.0
H  H32  1  0.93028920  0.48078418  0.13704981  1  0.061329  -1.9e-05  0.095243  0.097928  -8e-06  0.988033  0.0
H  H33  1  0.43030194  0.51921968  0.86294874  1  0.061604  1.6e-05  0.095256  0.097902  5e-06  0.987902  0.0
H  H34  1  0.43029419  0.01921921  0.63704318  1  0.061434  6e-06  0.09523  0.097903  -6e-06  0.987901  0.0
H  H35  1  0.93029361  0.98077551  0.36295656  1  0.061401  1.9e-05  0.095279  0.097908  5e-06  0.987875  0.0
H  H36  1  0.77075278  0.47172761  0.19715542  1  0.051562  -9.3e-05  0.099395  0.102635  -5.1e-05  0.981233  0.0
H  H37  1  0.27077144  0.52828004  0.80283714  1  0.051588  8e-05  0.099338  0.102619  3.9e-05  0.981039  0.0
H  H38  1  0.27076313  0.02827460  0.69715052  1  0.051496  7.9e-05  0.099309  0.102524  3.7e-05  0.981156  0.0
H  H39  1  0.77076331  0.97171477  0.30284560  1  0.051444  9.3e-05  0.099368  0.102632  5e-05  0.98103  0.0
H  H40  1  0.85243882  0.61612046  0.26483526  1  0.078628  2.9e-05  0.108437  0.08679  1.9e-05  0.98962  0.0
H  H41  1  0.35244097  0.38388528  0.73516031  1  0.078709  -3.1e-05  0.108476  0.086853  -2.1e-05  0.989544  0.0
H  H42  1  0.35244824  0.88388445  0.76483323  1  0.078654  -3.1e-05  0.108499  0.086946  -2.1e-05  0.989534  0.0
H  H43  1  0.85243267  0.11611019  0.23516590  1  0.078753  -2.9e-05  0.108499  0.086899  -2e-05  0.989509  0.0
H  H44  1  0.77951856  0.62095291  0.16777002  1  0.113478  -0.000334  0.111182  0.099955  -0.000301  1.028726  0.0
H  H45  1  0.27953455  0.37905468  0.83222677  1  0.113424  0.000326  0.111176  0.099968  0.000278  1.028794  0.0
H  H46  1  0.27952807  0.87904862  0.66776802  1  0.113585  0.000332  0.111186  0.100033  0.000284  1.028656  0.0
H  H47  1  0.77951728  0.12094265  0.33222936  1  0.113575  0.000328  0.111182  0.099949  0.000278  1.028724  0.0
H  H48  1  0.15050292  0.63334868  0.27823106  1  0.18939  -0.000539  0.141616  0.116992  -0.000218  0.98763  0.0
H  H49  1  0.65050755  0.36664942  0.72176295  1  0.189294  0.00054  0.1416  0.116986  0.0002  0.987562  0.0
H  H50  1  0.65051740  0.86664327  0.77822529  1  0.189524  0.000541  0.14164  0.117009  0.000201  0.987632  0.0
H  H51  1  0.15050304  0.13335222  0.22177703  1  0.189572  0.000538  0.141642  0.11702  0.000199  0.987649  0.0
H  H52  1  0.94105487  0.67515727  0.05614249  1  0.099339  -0.001162  0.121896  0.127328  -0.000608  1.017689  -0.001
H  H53  1  0.44106400  0.32484129  0.94385140  1  0.098845  0.001156  0.121891  0.12735  0.000554  1.017708  0.001
H  H54  1  0.44105114  0.82484446  0.55614315  1  0.098863  0.001162  0.121915  0.127309  0.000574  1.01769  0.001
H  H55  1  0.94104004  0.17514756  0.44386083  1  0.099281  0.001156  0.121888  0.127266  0.000554  1.017766  0.001
H  H56  1  0.23027619  0.74465101  0.05393050  1  0.170796  -0.001026  0.119871  0.126912  -0.000494  1.017694  -0.001
H  H57  1  0.73029046  0.25534911  0.94606590  1  0.170872  0.001027  0.119869  0.126901  0.000466  1.017763  0.001
H  H58  1  0.73026977  0.75534315  0.55392354  1  0.170566  0.001028  0.119917  0.126909  0.000465  1.017658  0.001
H  H59  1  0.23025477  0.24464783  0.44608059  1  0.170742  0.001025  0.119912  0.12683  0.000464  1.017749  0.001
H  H60  1  0.17980938  0.77885898  0.42082046  1  0.106983  -0.000413  0.10307  0.113286  -0.000409  1.016888  0.0
H  H61  1  0.67975891  0.22114609  0.57918802  1  0.106324  0.000499  0.103087  0.11325  0.000397  1.016901  0.0
H  H62  1  0.67983583  0.72113965  0.92082733  1  0.107006  0.000413  0.10314  0.113318  0.000387  1.016899  0.0
H  H63  1  0.17980891  0.27886346  0.07917640  1  0.107085  0.000498  0.103105  0.11338  0.000397  1.016855  0.0
H  H64  1  0.12089371  0.98900983  0.58657700  1  0.107577  0.000298  0.104738  0.105888  0.000243  1.020348  0.0
H  H65  1  0.62091076  0.01100221  0.41341914  1  0.10765  0.000305  0.104693  0.105947  0.00025  1.020174  0.0
H  H66  1  0.62094748  0.51099277  0.08659383  1  0.107207  -0.000315  0.104715  0.105931  -0.000269  1.020308  0.0
H  H67  1  0.12095117  0.48901535  0.91341182  1  0.107275  0.000293  0.104712  0.105928  0.000241  1.020321  0.0
H  H68  1  0.27396311  0.08595643  0.50088389  1  0.049401  -0.000268  0.097344  0.093871  -0.000154  1.028506  0.0
H  H69  1  0.77396437  0.91405055  0.49912235  1  0.049606  0.000311  0.097292  0.093982  0.000142  1.028236  0.0
H  H70  1  0.77398945  0.41404053  0.00089266  1  0.049138  0.000265  0.097277  0.093913  0.000137  1.02828  0.0
H  H71  1  0.27398788  0.58596253  0.99912427  1  0.049244  0.000326  0.097295  0.094017  0.000168  1.028237  0.0
H  H72  1  0.37674755  0.02997995  0.37362150  1  0.118599  -8.5e-05  0.105181  0.112984  -3.1e-05  1.033912  0.0
H  H73  1  0.87672673  0.97002692  0.62639030  1  0.118838  -4e-05  0.105135  0.112906  -3.7e-05  1.034004  0.0
H  H74  1  0.87675651  0.47001181  0.87362409  1  0.12056  -2.5e-05  0.105217  0.112991  -2.8e-05  1.033923  0.0
H  H75  1  0.37673994  0.52998265  0.12639542  1  0.120464  6.9e-05  0.105136  0.11286  1.8e-05  1.033981  0.0
H  H76  1  0.46074824  0.56876580  0.34324307  1  0.611285  0.000119  0.305887  0.382653  4.7e-05  0.911107  0.0
H  H77  1  0.96078406  0.43123065  0.65675453  1  0.611244  -0.000115  0.305843  0.382539  -4e-05  0.911248  0.0
H  H78  1  0.96073143  0.93122146  0.84323815  1  0.6114  -0.000115  0.305831  0.382442  -4e-05  0.911387  0.0
H  H79  1  0.46074325  0.06876193  0.15675054  1  0.611223  -0.000118  0.305853  0.382569  -5.1e-05  0.911221  0.0
H  H80  1  0.41398146  0.51941701  0.26625662  1  0.653699  1.1e-05  0.277517  0.388901  1.4e-05  0.951612  0.0
H  H81  1  0.91398621  0.48056998  0.73374120  1  0.653973  -6.4e-05  0.277565  0.389117  2e-06  0.951355  0.0
H  H82  1  0.91398797  0.98058612  0.76625263  1  0.653657  -6.4e-05  0.277543  0.388917  2e-06  0.951583  0.0
H  H83  1  0.41400407  0.01943026  0.23375114  1  0.653908  -1.1e-05  0.277573  0.389059  -1.6e-05  0.951417  0.0
C  C84  1  0.73838161  0.29721433  0.27972117  1  1.000619  -0.001736  0.146638  0.093455  -0.000575  3.909128  0.0
C  C85  1  0.23839539  0.70277920  0.72027886  1  1.000715  -0.001735  0.146463  0.093036  -0.000573  3.908723  0.0
C  C86  1  0.23838934  0.20279541  0.77971001  1  1.000189  -0.001744  0.146535  0.093378  -0.000581  3.908438  0.0
C  C87  1  0.73838987  0.79721902  0.22027458  1  1.000988  0.001741  0.146547  0.093382  0.000326  3.908763  0.0
C  C88  1  0.67378398  0.24965140  0.16289465  1  0.435896  0.000435  -0.002466  -0.037602  0.000876  4.007624  0.001
C  C89  1  0.17380549  0.75033738  0.83710606  1  0.435716  0.000422  -0.00246  -0.037822  0.000859  4.007883  0.001
C  C90  1  0.17380732  0.25035829  0.66287849  1  0.435014  0.000427  -0.002471  -0.037594  0.000867  4.008063  0.001
C  C91  1  0.67379102  0.74965336  0.33710144  1  0.435757  -0.00041  -0.002426  -0.037634  -0.001031  4.007803  -0.001
C  C92  1  0.81564572  0.28170980  0.15564803  1  0.239773  0.003464  0.002408  -0.110771  0.002299  3.907514  0.002
C  C93  1  0.31567033  0.71828904  0.84435082  1  0.240322  0.003491  0.002423  -0.110766  0.002304  3.907682  0.002
C  C94  1  0.31566642  0.21829693  0.65563619  1  0.240201  0.003452  0.002476  -0.110654  0.00229  3.907519  0.002
C  C95  1  0.81565184  0.78170452  0.34435019  1  0.24008  -0.003474  0.002444  -0.110707  -0.002441  3.907673  -0.002
C  C96  1  0.99307146  0.35598475  0.25069563  1  0.267242  0.001127  -0.054469  -0.065182  0.000817  3.861136  0.001
C  C97  1  0.49309615  0.64401472  0.74930043  1  0.267643  0.001122  -0.054399  -0.065319  0.000813  3.861335  0.001
C  C98  1  0.49307934  0.14401610  0.75069309  1  0.267379  0.001117  -0.05446  -0.065144  0.000809  3.860991  0.001
C  C99  1  0.99308384  0.85598075  0.24930654  1  0.267351  -0.001131  -0.054466  -0.065197  -0.000877  3.861015  -0.001
C  C100  1  0.97466190  0.45454082  0.26181951  1  -0.039007  -8.4e-05  -0.162206  -0.167194  -5.1e-05  3.940671  0.0
C  C101  1  0.47468284  0.54545748  0.73817939  1  -0.039386  -7.6e-05  -0.162338  -0.167328  -4.7e-05  3.940646  0.0
C  C102  1  0.47466745  0.04545813  0.76181392  1  -0.038682  -7.5e-05  -0.162259  -0.16735  -4.8e-05  3.940612  0.0
C  C103  1  0.97467508  0.95453756  0.23818735  1  -0.039079  8.3e-05  -0.162212  -0.167411  4.6e-05  3.940594  0.0
C  C104  1  0.88458727  0.49748077  0.19576564  1  -0.058304  2.6e-05  -0.16475  -0.171173  8e-06  3.935903  0.0
C  C105  1  0.38460429  0.50252277  0.80423137  1  -0.058362  -4.3e-05  -0.164589  -0.170859  -3.5e-05  3.935402  0.0
C  C106  1  0.38459706  0.00252060  0.69575909  1  -0.058342  -4.7e-05  -0.164638  -0.170896  -3.7e-05  3.935449  0.0
C  C107  1  0.88459562  0.99747184  0.30423910  1  -0.057998  -2.7e-05  -0.16482  -0.171046  -1.5e-05  3.935504  0.0
C  C108  1  0.87305070  0.59666253  0.20293641  1  0.270987  -0.001352  -0.05438  -0.066059  -0.001029  3.86149  -0.001
C  C109  1  0.37306189  0.40334110  0.79705932  1  0.270932  0.001343  -0.054415  -0.066193  0.000961  3.861762  0.001
C  C110  1  0.37306191  0.90333807  0.70293251  1  0.270896  0.00135  -0.054468  -0.066398  0.000967  3.861721  0.001
C  C111  1  0.87305178  0.09665381  0.29706500  1  0.270518  0.001345  -0.054512  -0.066291  0.00096  3.861668  0.001
C  C112  1  0.13303834  0.65433729  0.21751724  1  0.935289  0.002175  0.14454  0.09935  0.000828  3.891789  0.001
C  C113  1  0.63304841  0.34566486  0.78248138  1  0.936409  -0.002176  0.144576  0.099353  -0.001051  3.892212  -0.001
C  C114  1  0.63304884  0.84565716  0.71751218  1  0.93526  -0.002173  0.144497  0.099361  -0.001049  3.891871  -0.001
C  C115  1  0.13303237  0.15433846  0.28248704  1  0.935271  -0.00217  0.144573  0.099439  -0.001044  3.891755  -0.001
C  C116  1  0.02676395  0.67840919  0.10119394  1  0.351013  -0.003293  -0.001352  -0.117205  -0.00239  3.929451  -0.002
C  C117  1  0.52677995  0.32158984  0.89879910  1  0.350499  0.003303  -0.001187  -0.116913  0.002248  3.929596  0.002
C  C118  1  0.52676721  0.82158748  0.60119256  1  0.351422  0.003308  -0.001336  -0.117052  0.002254  3.929476  0.002
C  C119  1  0.02675231  0.17840240  0.39881057  1  0.351005  0.003308  -0.001336  -0.117086  0.002254  3.929651  0.002
C  C120  1  0.16835097  0.71199262  0.10044380  1  0.333725  -0.001432  -0.00147  -0.043054  -0.0018  4.013777  -0.002
C  C121  1  0.66836216  0.28800796  0.89955212  1  0.334534  0.00144  -0.001576  -0.043287  0.0016  4.013577  0.002
C  C122  1  0.66835273  0.78800104  0.60043844  1  0.33437  0.001447  -0.001559  -0.043207  0.001603  4.01373  0.002
C  C123  1  0.16833825  0.21198778  0.39956579  1  0.334203  0.001437  -0.00165  -0.043127  0.001598  4.013984  0.002
C  C124  1  0.28631066  0.90045064  0.38941055  1  -0.043417  -0.009573  -0.026842  -0.046194  -0.007086  3.991891  -0.007
C  C125  1  0.78629356  0.09955886  0.61060054  1  -0.042634  0.011527  -0.026848  -0.046352  0.007973  3.991516  0.009
C  C126  1  0.78634081  0.59954937  0.88942103  1  -0.043369  0.009543  -0.026829  -0.046156  0.006655  3.991869  0.007
C  C127  1  0.28631548  0.40044969  0.11059362  1  -0.043441  0.011532  -0.026817  -0.046197  0.007974  3.991889  0.009
C  C128  1  0.19940314  0.84650877  0.43783594  1  -0.07443  0.001542  -0.08966  -0.131861  0.000862  3.976323  0.001
C  C129  1  0.69937359  0.15349615  0.56217626  1  -0.073929  0.001371  -0.089662  -0.131624  0.001026  3.976224  0.001
C  C130  1  0.69943657  0.65348568  0.93784495  1  -0.074525  -0.001529  -0.089741  -0.131737  -0.000951  3.976833  -0.001
C  C131  1  0.19941439  0.34651533  0.06216309  1  -0.074462  0.001365  -0.089705  -0.131892  0.001019  3.976502  0.001
C  C132  1  0.13804266  0.87833385  0.50815747  1  -0.039335  0.009865  -0.027414  -0.046976  0.006972  4.001296  0.008
C  C133  1  0.63802294  0.12167284  0.49185129  1  -0.039826  0.010279  -0.027444  -0.047155  0.007122  4.001569  0.008
C  C134  1  0.63807523  0.62166719  0.00816599  1  -0.038916  -0.009895  -0.027355  -0.04716  -0.007411  4.001506  -0.008
C  C135  1  0.13806238  0.37833754  0.99183742  1  -0.039298  0.010296  -0.027438  -0.047191  0.007132  4.001232  0.008
C  C136  1  0.16691376  0.96477741  0.53105065  1  -0.064439  0.000665  -0.08381  -0.092722  0.000494  3.969622  0.0
C  C137  1  0.66690966  0.03522841  0.46895357  1  -0.064552  -0.000722  -0.0837  -0.092642  -0.000465  3.969368  -0.001
C  C138  1  0.66695926  0.53521999  0.03106320  1  -0.064665  -0.000666  -0.083859  -0.092725  -0.000527  3.969526  0.0
C  C139  1  0.16695391  0.46478321  0.96894340  1  -0.064548  -0.000742  -0.083763  -0.092571  -0.000486  3.969444  -0.001
C  C140  1  0.25254442  0.01884222  0.48281554  1  -0.053524  -0.000824  -0.095244  -0.087005  -0.000625  4.014019  -0.001
C  C141  1  0.75253255  0.98116362  0.51719053  1  -0.053343  0.00113  -0.095283  -0.087268  0.00068  4.013907  0.001
C  C142  1  0.75257751  0.48115757  0.98282639  1  -0.05292  0.000779  -0.095137  -0.087131  0.000542  4.014327  0.001
C  C143  1  0.25256372  0.51884565  0.01718741  1  -0.052782  0.001157  -0.095184  -0.087282  0.000719  4.013946  0.001
C  C144  1  0.31075963  0.98741803  0.41150799  1  -0.042259  -0.001121  -0.083818  -0.089206  -0.000807  3.941775  -0.001
C  C145  1  0.81074267  0.01258607  0.58850210  1  -0.042942  0.000652  -0.083648  -0.088909  0.000392  3.94117  0.001
C  C146  1  0.81079385  0.51257446  0.91151655  1  -0.044363  0.001145  -0.083844  -0.089133  0.00074  3.941952  0.001
C  C147  1  0.31076828  0.48742310  0.08850066  1  -0.044211  0.000619  -0.08379  -0.089053  0.000385  3.941582  0.001
C  C148  1  0.35148493  0.86423653  0.31411811  1  1.557156  0.001293  0.198032  0.561801  -0.000517  4.232639  0.003
C  C149  1  0.85148575  0.13577314  0.68588280  1  1.556508  -0.000882  0.198041  0.561921  0.000447  4.232563  -0.003
C  C150  1  0.85151209  0.63575304  0.81411890  1  1.556802  -0.001308  0.197969  0.561812  0.000154  4.232898  -0.003
C  C151  1  0.35148961  0.36423508  0.18588617  1  1.556869  -0.000869  0.197994  0.561875  0.000459  4.232585  -0.003
C  C152  1  0.04448710  0.81837079  0.55840352  1  1.552755  -5.1e-05  0.192814  0.553525  0.001096  4.256223  -0.002
C  C153  1  0.54448467  0.18162483  0.44159500  1  1.552003  4e-06  0.192811  0.553676  0.001115  4.256059  -0.001
C  C154  1  0.54450953  0.68161689  0.05841114  1  1.552175  5.5e-05  0.1928  0.553595  -0.001401  4.255791  0.002
C  C155  1  0.04451209  0.31838723  0.94158917  1  1.552228  4e-06  0.192751  0.553557  0.001117  4.255974  -0.001
N  N156  1  0.62787076  0.25937055  0.24044379  1  -1.184551  0.078961  -0.37296  -0.28323  0.053327  3.680093  0.069
N  N157  1  0.12788037  0.74061858  0.75955954  1  -1.184009  0.078942  -0.372824  -0.282783  0.053316  3.679615  0.069
N  N158  1  0.12788433  0.24064289  0.74042530  1  -1.183771  0.078961  -0.372971  -0.283175  0.053331  3.680006  0.069
N  N159  1  0.62787455  0.75937628  0.25955309  1  -1.184517  -0.078941  -0.372812  -0.282997  -0.056707  3.679938  -0.069
N  N160  1  0.85459005  0.31159272  0.23031203  1  -1.222814  0.002141  -0.244942  0.037923  0.001289  3.782084  0.002
N  N161  1  0.35461103  0.68840778  0.76968712  1  -1.223377  0.002148  -0.244954  0.038206  0.001294  3.782017  0.002
N  N162  1  0.35460252  0.18841256  0.73030094  1  -1.222247  0.002149  -0.244907  0.037969  0.001294  3.781855  0.002
N  N163  1  0.85459966  0.81158990  0.26968930  1  -1.222926  -0.00214  -0.244993  0.037848  -0.00141  3.782082  -0.002
N  N164  1  0.00637444  0.64226610  0.17568686  1  -1.212097  -0.00217  -0.243796  0.0387  -0.001454  3.780822  -0.002
N  N165  1  0.50638430  0.35773308  0.82430899  1  -1.21309  0.00217  -0.243975  0.038375  0.001336  3.781649  0.002
N  N166  1  0.50638247  0.85773023  0.67568410  1  -1.212051  0.002169  -0.243781  0.038609  0.001334  3.78133  0.002
N  N167  1  0.00636519  0.14226241  0.32431709  1  -1.211917  0.002169  -0.243735  0.038732  0.001334  3.781041  0.002
N  N168  1  0.23307499  0.69602637  0.17326180  1  -1.193242  -0.076733  -0.375627  -0.286437  -0.055101  3.64178  -0.067
N  N169  1  0.73308716  0.30397830  0.82673521  1  -1.192969  0.07675  -0.375573  -0.28624  0.051808  3.641494  0.067
N  N170  1  0.73308194  0.80396698  0.67325696  1  -1.193627  0.076725  -0.375615  -0.286349  0.051788  3.641757  0.067
N  N171  1  0.23306691  0.19602659  0.32674837  1  -1.193937  0.076749  -0.375488  -0.286338  0.051807  3.641521  0.067
O  O172  1  0.33985151  0.78031002  0.30780766  1  -1.105812  -0.115886  -0.330976  -0.550292  -0.079987  2.367795  -0.105
O  O173  1  0.83984185  0.21969713  0.69219553  1  -1.10564  0.115923  -0.330916  -0.550272  0.075184  2.368142  0.106
O  O174  1  0.83986137  0.71968752  0.80780920  1  -1.105482  0.11588  -0.330982  -0.550383  0.075172  2.367602  0.105
O  O175  1  0.33982645  0.28030526  0.19219578  1  -1.105821  0.115967  -0.330953  -0.55038  0.075212  2.36793  0.106
O  O176  1  0.40996839  0.91335580  0.26327039  1  -1.190525  -0.000476  -0.326477  -0.574275  -5.6e-05  2.190657  -0.001
O  O177  1  0.91000711  0.08665344  0.73673097  1  -1.190028  0.001222  -0.326588  -0.574426  0.000403  2.190312  0.002
O  O178  1  0.90997223  0.58663955  0.76327857  1  -1.190271  0.000415  -0.32641  -0.574223  -0.000118  2.191406  0.001
O  O179  1  0.40999220  0.41334160  0.23673408  1  -1.190324  0.001267  -0.326435  -0.574202  0.000409  2.190651  0.002
O  O180  1  0.03755497  0.84253705  0.63221403  1  -1.120229  0.104382  -0.33382  -0.559659  0.067608  2.405981  0.095
O  O181  1  0.53754770  0.15746647  0.36779573  1  -1.120502  0.104404  -0.33375  -0.559674  0.067626  2.406495  0.095
O  O182  1  0.53755576  0.65746130  0.13221049  1  -1.120353  -0.104338  -0.333783  -0.559601  -0.071914  2.406375  -0.095
O  O183  1  0.03758015  0.34253569  0.86778442  1  -1.120499  0.104402  -0.33383  -0.55968  0.067625  2.406262  0.095
O  O184  1  0.98439413  0.75268470  0.52826161  1  -1.185716  0.000348  -0.344508  -0.572989  -0.00016  2.093978  0.0
O  O185  1  0.48437644  0.24733443  0.47174033  1  -1.18487  0.000663  -0.344696  -0.573294  3e-06  2.092961  0.001
O  O186  1  0.48439162  0.74731623  0.02825134  1  -1.185138  -0.000359  -0.344586  -0.573154  1.4e-05  2.093093  0.0
O  O187  1  0.98438671  0.25269310  0.97174407  1  -1.184979  0.000666  -0.344488  -0.573031  4e-06  2.093328  0.001
O  O188  1  0.41439891  0.57823522  0.29197343  1  -1.273667  0.001315  -0.596741  -0.790917  0.000811  1.971223  0.0
O  O189  1  0.91440974  0.42175569  0.70801668  1  -1.273856  -0.001195  -0.596715  -0.790985  -0.000759  1.971233  0.0
O  O190  1  0.91439892  0.92176382  0.79196143  1  -1.273708  -0.001193  -0.596721  -0.790685  -0.000758  1.971366  0.0
O  O191  1  0.41442857  0.07824407  0.20802749  1  -1.273708  -0.001314  -0.596757  -0.790955  -0.000855  1.971213  0.0
