# generated using pymatgen
data_MnH12C14S2(N3O2)2
_symmetry_space_group_name_H-M   'P 1'
_cell_length_a   9.01739466
_cell_length_b   11.25499856
_cell_length_c   12.83118400
_cell_angle_alpha   90.00039807
_cell_angle_beta   90.00047581
_cell_angle_gamma   105.57520902
_symmetry_Int_Tables_number   1
_chemical_formula_structural   MnH12C14S2(N3O2)2
_chemical_formula_sum   'Mn2 H24 C28 S4 N12 O8'
_cell_volume   1254.42664930
_cell_formula_units_Z   2
loop_
 _symmetry_equiv_pos_site_id
 _symmetry_equiv_pos_as_xyz
  1  'x, y, z'
loop_
 _atom_site_type_symbol
 _atom_site_label
 _atom_site_symmetry_multiplicity
 _atom_site_fract_x
 _atom_site_fract_y
 _atom_site_fract_z
 _atom_site_occupancy
 _atom_site_hle17_ddec_charge
 _atom_site_hle17_ddec_spin_density
 _atom_site_hle17_ddec_sum_bond_order
 _atom_site_hle17_magmom
 _atom_site_hse06_10hf_ddec_charge
 _atom_site_hse06_10hf_ddec_spin_density
 _atom_site_hse06_10hf_ddec_sum_bond_order
 _atom_site_hse06_10hf_magmom
 _atom_site_hse06_ddec_charge
 _atom_site_hse06_ddec_spin_density
 _atom_site_hse06_ddec_sum_bond_order
 _atom_site_hse06_magmom
 _atom_site_pbe_cm5_charge
 _atom_site_pbe_ddec_charge
 _atom_site_pbe_ddec_spin_density
 _atom_site_pbe_ddec_sum_bond_order
 _atom_site_pbe_magmom
Mn  Mn0  1  0.00000159  0.50000041  0.49999824  1  1.017512  4.79862  1.902133  4.669  0.831956  4.723776  2.400924  4.523  0.885757  4.764944  2.341499  4.584  0.608918  0.791834  4.682658  2.443828  4.464
Mn  Mn1  1  0.49999831  0.99999655  0.99999949  1  1.017437  4.798624  1.902213  4.669  0.83192  4.723775  2.401  4.523  0.885723  4.764946  2.341571  4.584  0.60891  0.791803  4.682659  2.44389  4.464
H  H2  1  0.23443943  0.68701138  0.42723613  1  0.371808  0.000165  0.942458  0.001  0.342003  0.001127  1.011185  0.001  0.353047  0.000762  0.995581  0.001  0.263143  0.334091  0.001472  1.02235  0.001
H  H3  1  0.26555737  0.81298564  0.92723177  1  0.371819  0.000164  0.94248  0.001  0.342004  0.001127  1.011188  0.001  0.353049  0.000762  0.99558  0.001  0.263146  0.334087  0.001472  1.022359  0.001
H  H4  1  0.76556156  0.31298748  0.57276482  1  0.37185  0.000163  0.942398  0.001  0.342049  0.001127  1.011117  0.001  0.353092  0.000762  0.995512  0.001  0.263161  0.33413  0.001472  1.022294  0.001
H  H5  1  0.73443970  0.18701131  0.07276529  1  0.371824  0.000164  0.942424  0.001  0.342021  0.001126  1.011153  0.001  0.353065  0.000762  0.995547  0.001  0.263161  0.334107  0.001472  1.022321  0.001
H  H6  1  0.07697639  0.69585103  0.36948654  1  0.425726  -0.000108  0.823433  0.001  0.399007  0.000877  0.894667  0.001  0.409372  0.000481  0.881806  0.001  0.316933  0.391487  0.00128  0.904023  0.002
H  H7  1  0.42302064  0.80414535  0.86948383  1  0.425768  -0.000109  0.823339  0.001  0.399019  0.000877  0.894619  0.001  0.409382  0.000481  0.881761  0.001  0.316951  0.391499  0.00128  0.90397  0.002
H  H8  1  0.92302405  0.30414965  0.63051519  1  0.425713  -0.000109  0.823481  0.001  0.399011  0.000877  0.894707  0.001  0.409379  0.000481  0.881838  0.001  0.316915  0.391491  0.00128  0.904052  0.002
H  H9  1  0.57697727  0.19584703  0.13051478  1  0.425743  -0.000108  0.823474  0.001  0.399042  0.000877  0.894696  0.001  0.409409  0.000481  0.881828  0.001  0.316948  0.391522  0.00128  0.904052  0.002
H  H10  1  0.85865302  0.79972937  0.22264065  1  0.114617  0.000155  0.95999  0.0  0.116754  0.000205  1.030937  0.0  0.121441  0.000141  1.027521  0.0  0.105119  0.113358  0.000284  1.033556  0.0
H  H11  1  0.64134568  0.70026901  0.72264112  1  0.114579  0.000156  0.960042  0.0  0.116737  0.000206  1.030987  0.0  0.121423  0.00014  1.02757  0.0  0.1051  0.113342  0.000284  1.033607  0.0
H  H12  1  0.14133988  0.20027207  0.77735874  1  0.114564  0.000157  0.960025  0.0  0.116736  0.000206  1.030958  0.0  0.121415  0.000141  1.02755  0.0  0.105079  0.11334  0.000284  1.033576  0.0
H  H13  1  0.35865949  0.29972902  0.27735983  1  0.114576  0.000158  0.960047  0.0  0.116735  0.000205  1.030994  0.0  0.121421  0.000141  1.02758  0.0  0.105074  0.113339  0.000284  1.033615  0.0
H  H14  1  0.77992938  0.94364169  0.10193415  1  0.079502  0.000227  0.961983  0.0  0.079873  0.000723  1.040209  0.001  0.082646  0.00053  1.037934  0.0  0.112526  0.077791  0.000917  1.042033  0.001
H  H15  1  0.72006771  0.55635624  0.60193343  1  0.079514  0.000234  0.961954  0.0  0.079871  0.000723  1.040178  0.001  0.08265  0.000529  1.037897  0.0  0.112542  0.077788  0.000916  1.042006  0.001
H  H16  1  0.22006156  0.05635696  0.89806447  1  0.079516  0.000234  0.96185  0.0  0.079894  0.000723  1.04007  0.001  0.082627  0.000529  1.037836  0.0  0.112557  0.077811  0.000916  1.041898  0.001
H  H17  1  0.27993970  0.44364551  0.39806441  1  0.079567  0.000225  0.961846  0.0  0.079935  0.000723  1.040072  0.001  0.082686  0.000529  1.037818  0.0  0.11258  0.077849  0.000916  1.041898  0.001
H  H18  1  0.31839798  0.75246396  0.12586688  1  0.06705  0.00023  0.981104  0.0  0.070246  0.000736  1.054828  0.0  0.073388  0.000522  1.052371  0.0  0.102906  0.067912  0.000961  1.056683  0.001
H  H19  1  0.18159944  0.74753982  0.62586319  1  0.067036  0.000232  0.9811  0.0  0.070267  0.000736  1.054803  0.0  0.073403  0.000522  1.052349  0.0  0.102902  0.067932  0.000961  1.056661  0.001
H  H20  1  0.68159296  0.24753469  0.87413797  1  0.067065  0.00023  0.98116  0.0  0.070262  0.000736  1.054873  0.0  0.073397  0.000522  1.052422  0.0  0.102918  0.067946  0.000961  1.056712  0.001
H  H21  1  0.81840797  0.25246193  0.37413776  1  0.067078  0.000233  0.981095  0.0  0.070276  0.000736  1.054816  0.0  0.073411  0.000522  1.052364  0.0  0.102927  0.067946  0.000961  1.056674  0.001
H  H22  1  0.37699966  0.60151482  0.25037108  1  0.118378  0.000124  0.946717  0.0  0.12647  0.000218  1.009476  0.0  0.130121  0.000122  1.007739  0.0  0.109935  0.123808  0.000337  1.010921  0.0
H  H23  1  0.12299609  0.89849305  0.75036485  1  0.118379  0.000125  0.94669  0.0  0.126485  0.000218  1.009441  0.0  0.130177  0.000122  1.007656  0.0  0.109956  0.123817  0.000337  1.01089  0.0
H  H24  1  0.62299408  0.39848572  0.74963455  1  0.118413  0.000123  0.94671  0.0  0.126493  0.000218  1.00949  0.0  0.130165  0.000122  1.007729  0.0  0.109936  0.123827  0.000337  1.01094  0.0
H  H25  1  0.87700713  0.10150586  0.24963689  1  0.118407  0.000124  0.946701  0.0  0.12652  0.000218  1.009442  0.0  0.130193  0.000122  1.00768  0.0  0.109951  0.123857  0.000337  1.010895  0.0
C  C26  1  0.64955983  0.43746982  0.41108297  1  0.396706  0.005355  3.795243  0.006  0.358956  0.008208  4.106033  0.008  0.385306  0.007148  4.111898  0.007  0.197776  0.341214  0.009424  4.101326  0.009
C  C27  1  0.85044588  0.06253738  0.91108773  1  0.396551  0.005341  3.795382  0.006  0.358798  0.008209  4.106194  0.008  0.385142  0.007146  4.112072  0.007  0.197801  0.341052  0.009425  4.101483  0.009
C  C28  1  0.35044200  0.56253180  0.58891486  1  0.396567  0.005353  3.795341  0.006  0.358824  0.008209  4.106106  0.008  0.385176  0.007146  4.111973  0.007  0.197766  0.341074  0.009425  4.101399  0.009
C  C29  1  0.14955539  0.93746241  0.08891244  1  0.396619  0.005337  3.795304  0.006  0.358852  0.008211  4.106133  0.008  0.385209  0.007145  4.111995  0.007  0.197836  0.341099  0.009425  4.10143  0.009
C  C30  1  0.67010221  0.60247622  0.31528645  1  0.338118  0.001012  3.742664  0.001  0.3043  0.001524  4.02602  0.001  0.320379  0.000702  4.032823  0.001  0.212114  0.293667  0.002394  4.021373  0.002
C  C31  1  0.82989544  0.89752957  0.81528531  1  0.338107  0.000966  3.742598  0.001  0.304307  0.001527  4.025942  0.001  0.320371  0.0007  4.03277  0.001  0.212106  0.293674  0.002394  4.021287  0.002
C  C32  1  0.32989572  0.39752716  0.68471372  1  0.338101  0.000955  3.742558  0.001  0.304242  0.001528  4.025945  0.001  0.320321  0.000699  4.032752  0.001  0.212071  0.293608  0.002394  4.021288  0.002
C  C33  1  0.17010835  0.10247118  0.18471486  1  0.33814  0.000956  3.74258  0.001  0.304255  0.001527  4.025967  0.001  0.320324  0.000698  4.032792  0.001  0.212088  0.29362  0.002394  4.02132  0.002
C  C34  1  0.62424219  0.68808621  0.24652597  1  0.039453  0.001811  3.811996  0.002  0.052511  0.00339  4.045883  0.003  0.054431  0.002926  4.066197  0.002  0.009554  0.051003  0.004081  4.03235  0.003
C  C35  1  0.87575689  0.81191611  0.74652068  1  0.039462  0.001824  3.811807  0.002  0.052512  0.003388  4.045739  0.003  0.054429  0.002928  4.066073  0.002  0.009642  0.051011  0.00408  4.032189  0.003
C  C36  1  0.37575378  0.31191438  0.75347732  1  0.039584  0.00184  3.811818  0.002  0.052706  0.003392  4.045662  0.003  0.05463  0.002925  4.065977  0.002  0.009676  0.051199  0.00408  4.032116  0.003
C  C37  1  0.12424745  0.18808282  0.25347949  1  0.039572  0.001827  3.811876  0.002  0.05274  0.003391  4.045672  0.003  0.054666  0.00293  4.065987  0.002  0.009676  0.051231  0.004082  4.032133  0.003
C  C38  1  0.73767189  0.78721742  0.20453047  1  -0.133085  -0.001033  3.70387  0.0  -0.15403  -0.000657  3.952922  0.0  -0.15963  -0.001349  3.971196  -0.001  -0.078779  -0.150399  -5.4e-05  3.940935  0.0
C  C39  1  0.76232374  0.71278253  0.70452939  1  -0.133056  -0.001029  3.70389  0.0  -0.154044  -0.000656  3.952954  0.0  -0.159641  -0.001352  3.971227  -0.001  -0.078804  -0.150422  -5.3e-05  3.940974  0.0
C  C40  1  0.26232101  0.21278402  0.79547048  1  -0.133143  -0.001055  3.703868  0.0  -0.154157  -0.000661  3.952915  0.0  -0.159749  -0.001347  3.971174  -0.001  -0.078791  -0.150529  -5.4e-05  3.940928  0.0
C  C41  1  0.23768088  0.28721732  0.29547157  1  -0.133147  -0.001052  3.704034  0.0  -0.154168  -0.000657  3.953071  0.0  -0.159765  -0.001358  3.971331  -0.001  -0.078789  -0.150541  -5.4e-05  3.941084  0.0
C  C42  1  0.69370360  0.86696708  0.13648153  1  0.13381  0.001987  3.703238  0.002  0.103119  0.004179  3.961388  0.003  0.110083  0.003494  3.978198  0.003  0.046308  0.098284  0.004873  3.950162  0.004
C  C43  1  0.80629264  0.63303396  0.63648021  1  0.133807  0.001959  3.703123  0.002  0.103125  0.004177  3.961235  0.003  0.110083  0.003495  3.97804  0.003  0.046272  0.098292  0.004872  3.950018  0.004
C  C44  1  0.30628873  0.13303252  0.86351787  1  0.133841  0.001967  3.702888  0.002  0.103181  0.004179  3.961035  0.003  0.110174  0.003493  3.977855  0.003  0.04631  0.098347  0.004871  3.949817  0.004
C  C45  1  0.19371561  0.36696688  0.36351762  1  0.133837  0.001996  3.702865  0.002  0.10318  0.004176  3.961003  0.003  0.110159  0.0035  3.977818  0.003  0.046281  0.098356  0.004872  3.949769  0.004
C  C46  1  0.43696515  0.75998364  0.14970994  1  0.12575  0.002157  3.714036  0.002  0.10233  0.004301  3.958603  0.004  0.108635  0.003587  3.975818  0.003  0.045929  0.097951  0.005313  3.947258  0.004
C  C47  1  0.06302539  0.74001842  0.64970629  1  0.125736  0.002155  3.714143  0.002  0.102268  0.004302  3.958706  0.004  0.108575  0.003587  3.975936  0.003  0.045936  0.097886  0.005313  3.947361  0.004
C  C48  1  0.56302608  0.24001593  0.85029335  1  0.125659  0.002155  3.713929  0.002  0.102274  0.004298  3.958517  0.004  0.108582  0.003587  3.975742  0.003  0.045948  0.097877  0.005313  3.947167  0.004
C  C49  1  0.93697894  0.25998051  0.35029388  1  0.125731  0.002149  3.714  0.002  0.102346  0.004301  3.958583  0.004  0.108656  0.003588  3.975808  0.003  0.04593  0.09796  0.005314  3.947245  0.004
C  C50  1  0.47006295  0.67526668  0.21866601  1  -0.136596  -0.00061  3.688099  0.0  -0.158441  -8.1e-05  3.933115  0.0  -0.163612  -0.000861  3.951617  0.0  -0.08176  -0.155168  0.00071  3.921088  0.001
C  C51  1  0.02993454  0.82474087  0.71866112  1  -0.13651  -0.000621  3.688047  0.0  -0.158397  -8.4e-05  3.933132  0.0  -0.163601  -0.000864  3.951614  0.0  -0.081785  -0.155121  0.000711  3.921095  0.001
C  C52  1  0.52993023  0.32473568  0.78133650  1  -0.136581  -0.000621  3.688037  0.0  -0.158457  -8.4e-05  3.933088  0.0  -0.163648  -0.00086  3.951579  0.0  -0.081768  -0.155183  0.00071  3.921063  0.001
C  C53  1  0.97007176  0.17526085  0.28134061  1  -0.136673  -0.000615  3.688173  0.0  -0.158599  -8.3e-05  3.933229  0.0  -0.16379  -0.000862  3.951719  0.0  -0.081833  -0.15532  0.00071  3.921202  0.001
S  S54  1  0.56684710  0.30329680  0.46953056  1  -0.441814  0.002408  1.834365  0.002  -0.438405  0.004649  2.099952  0.004  -0.459188  0.00352  2.09536  0.003  -0.203134  -0.422984  0.005855  2.102485  0.004
S  S55  1  0.93315615  0.19670367  0.96953505  1  -0.441731  0.002413  1.834593  0.002  -0.438327  0.004651  2.100191  0.004  -0.459108  0.003526  2.095602  0.003  -0.203138  -0.422909  0.005855  2.102728  0.004
S  S56  1  0.43315780  0.69670398  0.53046572  1  -0.441802  0.002418  1.834363  0.002  -0.438408  0.004651  2.099959  0.004  -0.459191  0.003517  2.095365  0.003  -0.203183  -0.422989  0.005855  2.102495  0.004
S  S57  1  0.06684205  0.80329697  0.03046434  1  -0.441715  0.002423  1.834609  0.002  -0.43831  0.004653  2.1002  0.004  -0.459092  0.00352  2.095607  0.003  -0.203131  -0.422891  0.005854  2.102729  0.004
N  N58  1  0.79569594  0.50792728  0.41277714  1  -0.352429  0.027769  3.165608  0.013  -0.289093  0.031082  3.461464  0.011  -0.312772  0.027497  3.475828  0.008  -0.256916  -0.272298  0.034216  3.451327  0.013
N  N59  1  0.70430516  0.99207141  0.91277740  1  -0.352415  0.02778  3.165662  0.013  -0.28907  0.03108  3.461494  0.011  -0.312751  0.027501  3.475859  0.008  -0.256928  -0.272268  0.034216  3.451341  0.013
N  N60  1  0.20430701  0.49207436  0.58721991  1  -0.35238  0.027771  3.165587  0.013  -0.289011  0.031079  3.461383  0.011  -0.312689  0.027501  3.47574  0.008  -0.256916  -0.272208  0.034217  3.451227  0.013
N  N61  1  0.29569555  0.00792653  0.08722277  1  -0.35234  0.027785  3.165585  0.013  -0.289022  0.031077  3.461455  0.011  -0.312705  0.027504  3.475817  0.008  -0.25693  -0.272218  0.034216  3.451305  0.013
N  N62  1  0.80751604  0.61150343  0.35268951  1  -0.261554  0.00115  2.95173  0.002  -0.244452  0.003366  3.221631  0.004  -0.251316  0.002646  3.234107  0.004  -0.218199  -0.239997  0.004222  3.21332  0.005
N  N63  1  0.69248470  0.88850010  0.85268829  1  -0.261492  0.001182  2.951871  0.002  -0.244385  0.003362  3.22177  0.004  -0.251241  0.002643  3.23425  0.004  -0.218164  -0.239938  0.004221  3.213453  0.005
N  N64  1  0.19248607  0.38849912  0.64730833  1  -0.261544  0.001196  2.951634  0.002  -0.244436  0.003362  3.221545  0.004  -0.251301  0.002647  3.234019  0.004  -0.218205  -0.239988  0.004222  3.213225  0.005
N  N65  1  0.30751713  0.11149787  0.14731110  1  -0.261582  0.001196  2.95186  0.002  -0.24445  0.003361  3.221795  0.004  -0.251309  0.002649  3.234275  0.004  -0.218199  -0.240002  0.004222  3.213488  0.005
N  N66  1  0.54619827  0.85422479  0.10825997  1  -0.328336  0.027502  3.228175  0.017  -0.257776  0.032211  3.495498  0.018  -0.275446  0.02845  3.510999  0.015  -0.318972  -0.245047  0.035795  3.484865  0.021
N  N67  1  0.95380033  0.64577782  0.60825725  1  -0.328422  0.027505  3.228256  0.017  -0.257768  0.03221  3.495487  0.018  -0.275439  0.028448  3.510989  0.015  -0.318966  -0.24504  0.035793  3.484859  0.021
N  N68  1  0.45379211  0.14577201  0.89174098  1  -0.328299  0.027504  3.227963  0.017  -0.257785  0.032213  3.495322  0.018  -0.275452  0.028448  3.510805  0.015  -0.319037  -0.245063  0.035792  3.484708  0.021
N  N69  1  0.04620625  0.35422482  0.39174292  1  -0.328388  0.027493  3.227798  0.017  -0.257853  0.032211  3.495131  0.018  -0.275523  0.028444  3.510619  0.015  -0.319001  -0.245128  0.035792  3.484507  0.021
O  O70  1  0.56532611  0.49648620  0.34735769  1  -0.276831  0.000509  2.28921  0.001  -0.198985  0.00123  2.510015  0.001  -0.217656  0.000859  2.510049  0.001  -0.111893  -0.186383  0.001701  2.509776  0.002
O  O71  1  0.93467330  0.00351742  0.84735790  1  -0.276822  0.000519  2.289253  0.001  -0.198976  0.001229  2.510054  0.001  -0.217647  0.000858  2.510105  0.001  -0.111948  -0.186371  0.001701  2.509811  0.002
O  O72  1  0.43467461  0.50351540  0.65264404  1  -0.276827  0.00051  2.289269  0.001  -0.198961  0.001231  2.510044  0.001  -0.21764  0.000861  2.510095  0.001  -0.111854  -0.186352  0.001701  2.509799  0.002
O  O73  1  0.06532657  0.99648142  0.15264227  1  -0.276901  0.00051  2.289084  0.001  -0.19901  0.001228  2.509868  0.001  -0.217693  0.00086  2.509926  0.001  -0.11194  -0.1864  0.001701  2.509623  0.002
O  O74  1  0.13917511  0.64079937  0.38991102  1  -0.789008  0.029889  1.947707  0.019  -0.730371  0.040827  2.152069  0.026  -0.752104  0.036352  2.119954  0.023  -0.557039  -0.714203  0.044891  2.174612  0.029
O  O75  1  0.36082726  0.85919918  0.88990983  1  -0.789068  0.02989  1.947644  0.019  -0.730376  0.040828  2.152069  0.026  -0.752109  0.036351  2.119956  0.023  -0.557059  -0.714207  0.044891  2.174599  0.029
O  O76  1  0.86082756  0.35920136  0.61008837  1  -0.789056  0.02989  1.947698  0.019  -0.730449  0.040828  2.151993  0.026  -0.752187  0.036352  2.119886  0.023  -0.557061  -0.714276  0.044891  2.17452  0.029
O  O77  1  0.63917429  0.14079785  0.11008644  1  -0.789041  0.02989  1.947726  0.019  -0.730441  0.040828  2.152033  0.026  -0.752175  0.036352  2.119914  0.023  -0.55709  -0.714278  0.044893  2.174581  0.029
