# generated using pymatgen
data_CdH10(C2N)8
_symmetry_space_group_name_H-M   'P 1'
_cell_length_a   9.16483301
_cell_length_b   12.52840153
_cell_length_c   14.58894542
_cell_angle_alpha   90.00009048
_cell_angle_beta   90.00021727
_cell_angle_gamma   90.00018630
_symmetry_Int_Tables_number   1
_chemical_formula_structural   CdH10(C2N)8
_chemical_formula_sum   'Cd4 H40 C64 N32'
_cell_volume   1675.11304181
_cell_formula_units_Z   4
loop_
 _symmetry_equiv_pos_site_id
 _symmetry_equiv_pos_as_xyz
  1  'x, y, z'
loop_
 _atom_site_type_symbol
 _atom_site_label
 _atom_site_symmetry_multiplicity
 _atom_site_fract_x
 _atom_site_fract_y
 _atom_site_fract_z
 _atom_site_occupancy
 _atom_site_hle17_bader_spin_density
 _atom_site_hle17_ddec_charge
 _atom_site_hle17_ddec_spin_density
 _atom_site_hle17_ddec_sum_bond_order
 _atom_site_hle17_magmom
 _atom_site_hse06_10hf_bader_spin_density
 _atom_site_hse06_10hf_ddec_charge
 _atom_site_hse06_10hf_ddec_spin_density
 _atom_site_hse06_10hf_ddec_sum_bond_order
 _atom_site_hse06_10hf_magmom
 _atom_site_hse06_bader_spin_density
 _atom_site_hse06_ddec_charge
 _atom_site_hse06_ddec_spin_density
 _atom_site_hse06_ddec_sum_bond_order
 _atom_site_hse06_magmom
 _atom_site_pbe_bader_spin_density
 _atom_site_pbe_cm5_charge
 _atom_site_pbe_ddec_charge
 _atom_site_pbe_ddec_spin_density
 _atom_site_pbe_ddec_sum_bond_order
 _atom_site_pbe_magmom
Cd  Cd0  1  0.87959833  0.32672685  0.18538959  1  0  1.176241  0  1.900515  0  0  0.98974  0  2.401525  0  0  1.036789  0  2.351616  0  0  0.839499  0.957669  0  2.4346  0
Cd  Cd1  1  0.62040002  0.67327561  0.68538521  1  0  1.176281  0  1.900462  0  0  0.989771  0  2.401475  0  0  1.036809  0  2.351589  0  0  0.839496  0.957699  0  2.434549  0
Cd  Cd2  1  0.12040106  0.82672761  0.31461151  1  0  1.17625  0  1.900475  0  0  0.989741  0  2.401491  0  0  1.036784  0  2.351601  0  0  0.839471  0.957663  0  2.434561  0
Cd  Cd3  1  0.37960167  0.17327710  0.81461531  1  0  1.176368  0  1.900344  0  0  0.989873  0  2.401356  0  0  1.036905  0  2.351473  0  0  0.839529  0.957799  0  2.434432  0
H  H4  1  0.01384905  0.21984962  0.35522872  1  0  0.282441  0  0.921755  0  0  0.278925  0  0.973171  0  0  0.284921  0  0.969585  0  0  0.291812  0.274242  0  0.976884  0
H  H5  1  0.48614955  0.78014958  0.85522536  1  0  0.282384  0  0.921479  0  0  0.27889  0  0.972906  0  0  0.284884  0  0.969318  0  0  0.29175  0.274207  0  0.976621  0
H  H6  1  0.98615094  0.71984812  0.14477087  1  0  0.282475  0  0.921664  0  0  0.278957  0  0.973094  0  0  0.284953  0  0.969506  0  0  0.291807  0.274273  0  0.976809  0
H  H7  1  0.51385044  0.28015028  0.64477325  1  0  0.282488  0  0.921703  0  0  0.278988  0  0.973104  0  0  0.284981  0  0.969519  0  0  0.291826  0.274304  0  0.976818  0
H  H8  1  0.06713016  0.01661169  0.59473396  1  0  0.080487  0  0.980702  0  0  0.090821  0  1.044537  0  0  0.092299  0  1.045518  0  0  0.095854  0.089766  0  1.043801  0
H  H9  1  0.43287016  0.98338862  0.09473181  1  0  0.080521  0  0.980735  0  0  0.090873  0  1.04455  0  0  0.092352  0  1.045529  0  0  0.095863  0.089818  0  1.043814  0
H  H10  1  0.93286865  0.51661055  0.90526635  1  0  0.08051  0  0.980682  0  0  0.090839  0  1.044518  0  0  0.092317  0  1.045497  0  0  0.095864  0.089786  0  1.04378  0
H  H11  1  0.56712774  0.48338753  0.40526539  1  0  0.080522  0  0.980727  0  0  0.09085  0  1.044561  0  0  0.092327  0  1.045544  0  0  0.095854  0.089797  0  1.043826  0
H  H12  1  0.61491990  0.21036642  0.50601552  1  0  0.084389  0  0.975922  0  0  0.092343  0  1.04535  0  0  0.094666  0  1.045084  0  0  0.096714  0.090702  0  1.045486  0
H  H13  1  0.88508065  0.78963411  0.00601299  1  0  0.084394  0  0.975858  0  0  0.092363  0  1.045276  0  0  0.094674  0  1.045023  0  0  0.096723  0.090723  0  1.045415  0
H  H14  1  0.38508087  0.71036734  0.99398574  1  0  0.084384  0  0.975867  0  0  0.092354  0  1.045289  0  0  0.094656  0  1.045044  0  0  0.096711  0.090713  0  1.045423  0
H  H15  1  0.11491639  0.28963212  0.49398600  1  0  0.084393  0  0.975897  0  0  0.092384  0  1.045293  0  0  0.094667  0  1.045067  0  0  0.096723  0.090762  0  1.04541  0
H  H16  1  0.03189075  0.07402505  0.43376139  1  0  0.092733  0  0.962513  0  0  0.103628  0  1.025172  0  0  0.105784  0  1.024838  0  0  0.103377  0.102057  0  1.025585  0
H  H17  1  0.46810832  0.92597590  0.93375887  1  0  0.092735  0  0.962511  0  0  0.103629  0  1.025166  0  0  0.105786  0  1.024832  0  0  0.103381  0.10206  0  1.025578  0
H  H18  1  0.96810968  0.57402416  0.06623868  1  0  0.092703  0  0.962539  0  0  0.1036  0  1.025193  0  0  0.105755  0  1.024859  0  0  0.103376  0.102031  0  1.025605  0
H  H19  1  0.53189014  0.42597409  0.56623856  1  0  0.092731  0  0.962522  0  0  0.103618  0  1.025191  0  0  0.105773  0  1.024859  0  0  0.103381  0.102051  0  1.025602  0
H  H20  1  0.87563414  0.05405329  0.71148089  1  0  0.087503  0  0.953254  0  0  0.098627  0  1.013351  0  0  0.100595  0  1.013767  0  0  0.099432  0.097187  0  1.01312  0
H  H21  1  0.62436546  0.94594364  0.21147863  1  0  0.087541  0  0.953251  0  0  0.098658  0  1.013346  0  0  0.100629  0  1.013758  0  0  0.099458  0.097218  0  1.013113  0
H  H22  1  0.12436593  0.55405400  0.78852016  1  0  0.087523  0  0.953251  0  0  0.098648  0  1.013347  0  0  0.100615  0  1.013764  0  0  0.099455  0.097209  0  1.013116  0
H  H23  1  0.37563009  0.44594268  0.28851920  1  0  0.087537  0  0.953233  0  0  0.098633  0  1.013349  0  0  0.100602  0  1.013764  0  0  0.099454  0.097195  0  1.013119  0
H  H24  1  0.55999192  0.06928841  0.40172749  1  0  0.109839  0  0.999491  0  0  0.109344  0  1.07783  0  0  0.11267  0  1.077369  0  0  0.104977  0.107217  0  1.077805  0
H  H25  1  0.94000772  0.93071286  0.90172697  1  0  0.109788  0  0.999502  0  0  0.109328  0  1.077811  0  0  0.112653  0  1.077353  0  0  0.104967  0.1072  0  1.077788  0
H  H26  1  0.44000740  0.56928872  0.09827121  1  0  0.109777  0  0.999541  0  0  0.109323  0  1.077838  0  0  0.112648  0  1.077378  0  0  0.104969  0.107197  0  1.077814  0
H  H27  1  0.05999294  0.43070841  0.59827321  1  0  0.109801  0  0.999543  0  0  0.109306  0  1.077872  0  0  0.112628  0  1.077415  0  0  0.104959  0.10718  0  1.077847  0
H  H28  1  0.31695049  0.18289537  0.16799414  1  0  0.106757  0  0.943723  0  0  0.117769  0  0.999438  0  0  0.119902  0  0.999908  0  0  0.11082  0.116181  0  0.9994  0
H  H29  1  0.18305026  0.81710268  0.66799490  1  0  0.106742  0  0.943773  0  0  0.117753  0  0.99949  0  0  0.119884  0  0.999965  0  0  0.110824  0.116164  0  0.999452  0
H  H30  1  0.68305043  0.68289590  0.33200608  1  0  0.106735  0  0.943751  0  0  0.117758  0  0.999455  0  0  0.11989  0  0.999926  0  0  0.110826  0.116169  0  0.999416  0
H  H31  1  0.81695316  0.31710205  0.83200581  1  0  0.10674  0  0.943783  0  0  0.117778  0  0.999468  0  0  0.119908  0  0.999944  0  0  0.110841  0.11619  0  0.999431  0
H  H32  1  0.53544342  0.29592597  0.12733972  1  0  0.074801  0  0.968413  0  0  0.078442  0  1.04016  0  0  0.080368  0  1.03931  0  0  0.111749  0.077006  0  1.040699  0
H  H33  1  0.96455567  0.70407558  0.62734033  1  0  0.07496  0  0.968388  0  0  0.07857  0  1.040134  0  0  0.080493  0  1.039287  0  0  0.111809  0.077131  0  1.040675  0
H  H34  1  0.46455691  0.79592526  0.37265997  1  0  0.074832  0  0.968397  0  0  0.07847  0  1.04015  0  0  0.080396  0  1.039299  0  0  0.111765  0.077031  0  1.040687  0
H  H35  1  0.03544507  0.20407238  0.87266024  1  0  0.074932  0  0.968414  0  0  0.078543  0  1.040158  0  0  0.080467  0  1.039311  0  0  0.111782  0.077104  0  1.040699  0
H  H36  1  0.33201584  0.06580157  0.30677519  1  0  0.105082  0  0.960107  0  0  0.114437  0  1.020912  0  0  0.116749  0  1.019693  0  0  0.106646  0.112565  0  1.022557  0
H  H37  1  0.16798574  0.93419674  0.80677539  1  0  0.105057  0  0.960136  0  0  0.114411  0  1.020941  0  0  0.116723  0  1.019722  0  0  0.106641  0.112542  0  1.022585  0
H  H38  1  0.66798455  0.56580260  0.19322351  1  0  0.10509  0  0.960042  0  0  0.114445  0  1.02085  0  0  0.116757  0  1.019631  0  0  0.106646  0.112576  0  1.022498  0
H  H39  1  0.83201930  0.43419589  0.69322480  1  0  0.105087  0  0.960073  0  0  0.114406  0  1.020912  0  0  0.116718  0  1.019692  0  0  0.106651  0.112537  0  1.02256  0
H  H40  1  0.65154612  0.14816315  0.66795183  1  0  0.090658  0  0.983334  0  0  0.10008  0  1.047795  0  0  0.102275  0  1.047345  0  0  0.099551  0.098512  0  1.048475  0
H  H41  1  0.84845213  0.85183609  0.16794861  1  0  0.090674  0  0.983418  0  0  0.100087  0  1.047868  0  0  0.102273  0  1.047442  0  0  0.099546  0.09852  0  1.048545  0
H  H42  1  0.34845328  0.64816368  0.83204934  1  0  0.090655  0  0.983397  0  0  0.100045  0  1.047887  0  0  0.102238  0  1.047442  0  0  0.099525  0.09848  0  1.048561  0
H  H43  1  0.15154191  0.35183388  0.33204909  1  0  0.090682  0  0.983274  0  0  0.100054  0  1.047782  0  0  0.102237  0  1.047361  0  0  0.099551  0.09849  0  1.048454  0
C  C44  1  0.96909317  0.06030786  0.57544513  1  0  -0.069934  0  3.76913  0  0  -0.08218  0  4.017011  0  0  -0.085711  0  4.040862  0  0  -0.091646  -0.079451  0  4.000015  0
C  C45  1  0.53090453  0.93969360  0.07544195  1  0  -0.070154  0  3.769352  0  0  -0.082438  0  4.017252  0  0  -0.085973  0  4.041106  0  0  -0.091749  -0.079706  0  4.000257  0
C  C46  1  0.03090802  0.56030542  0.92455593  1  0  -0.070058  0  3.76913  0  0  -0.082293  0  4.017009  0  0  -0.085824  0  4.040858  0  0  -0.091675  -0.07956  0  4.000016  0
C  C47  1  0.46909100  0.43969152  0.42455451  1  0  -0.070001  0  3.769258  0  0  -0.08223  0  4.01711  0  0  -0.085761  0  4.040962  0  0  -0.091635  -0.079501  0  4.000119  0
C  C48  1  0.71419718  0.16809860  0.52549543  1  0  -0.091271  0  3.736543  0  0  -0.11483  0  3.987442  0  0  -0.115423  0  4.007986  0  0  -0.086021  -0.114425  0  3.973188  0
C  C49  1  0.78580240  0.83190038  0.02549546  1  0  -0.091312  0  3.736402  0  0  -0.114879  0  3.987325  0  0  -0.115461  0  4.007876  0  0  -0.086034  -0.114475  0  3.973075  0
C  C50  1  0.28580340  0.66809924  0.97450509  1  0  -0.091282  0  3.736471  0  0  -0.114856  0  3.987363  0  0  -0.115432  0  4.007915  0  0  -0.086021  -0.114448  0  3.973104  0
C  C51  1  0.21419483  0.33190178  0.47450633  1  0  -0.091306  0  3.736432  0  0  -0.1149  0  3.987327  0  0  -0.115457  0  4.007888  0  0  -0.086063  -0.114513  0  3.973061  0
C  C52  1  0.82227310  0.14840421  0.45922482  1  0  -0.013364  0  3.782769  0  0  0.007223  0  4.014357  0  0  0.002754  0  4.037851  0  0  -0.01394  0.010237  0  3.99851  0
C  C53  1  0.67772689  0.85159717  0.95922288  1  0  -0.013396  0  3.782699  0  0  0.007141  0  4.014319  0  0  0.002672  0  4.037811  0  0  -0.013966  0.010156  0  3.998477  0
C  C54  1  0.17772658  0.64840380  0.04077536  1  0  -0.013373  0  3.782734  0  0  0.007206  0  4.014344  0  0  0.002737  0  4.037833  0  0  -0.013917  0.010223  0  3.998498  0
C  C55  1  0.32227123  0.35159562  0.54077583  1  0  -0.013472  0  3.782764  0  0  0.007073  0  4.01432  0  0  0.002604  0  4.037807  0  0  -0.013989  0.010087  0  3.99848  0
C  C56  1  0.94996442  0.09397446  0.48525766  1  0  -0.101189  0  3.748732  0  0  -0.122645  0  3.995219  0  0  -0.12419  0  4.017434  0  0  -0.087298  -0.1216  0  3.979747  0
C  C57  1  0.55003464  0.90602697  0.98525548  1  0  -0.101002  0  3.748707  0  0  -0.122423  0  3.995165  0  0  -0.12397  0  4.017387  0  0  -0.087194  -0.121382  0  3.979696  0
C  C58  1  0.05003611  0.59397289  0.01474313  1  0  -0.101087  0  3.748708  0  0  -0.12254  0  3.995174  0  0  -0.124083  0  4.017391  0  0  -0.087285  -0.121495  0  3.979705  0
C  C59  1  0.44996373  0.40602567  0.51474261  1  0  -0.101109  0  3.748708  0  0  -0.122564  0  3.995209  0  0  -0.124111  0  4.017433  0  0  -0.087274  -0.121523  0  3.979738  0
C  C60  1  0.86155408  0.08070305  0.64090005  1  0  -0.03838  0  3.730501  0  0  -0.052837  0  3.974521  0  0  -0.053569  0  3.996535  0  0  -0.081801  -0.051973  0  3.959217  0
C  C61  1  0.63844510  0.91929534  0.14089710  1  0  -0.038401  0  3.730526  0  0  -0.052842  0  3.974559  0  0  -0.053568  0  3.996571  0  0  -0.081832  -0.051975  0  3.959252  0
C  C62  1  0.13844720  0.58070234  0.85910035  1  0  -0.038374  0  3.730501  0  0  -0.052832  0  3.974515  0  0  -0.053564  0  3.996529  0  0  -0.081826  -0.051966  0  3.959212  0
C  C63  1  0.36155034  0.41929448  0.35910069  1  0  -0.03847  0  3.730665  0  0  -0.052909  0  3.974685  0  0  -0.053638  0  3.996695  0  0  -0.081852  -0.052046  0  3.959386  0
C  C64  1  0.66480780  0.18622595  0.31493801  1  0  0.163462  0  3.721592  0  0  0.166261  0  3.954283  0  0  0.169275  0  3.975834  0  0  0.122084  0.164562  0  3.939585  0
C  C65  1  0.83518914  0.81377515  0.81493845  1  0  0.163284  0  3.721694  0  0  0.16609  0  3.95437  0  0  0.169103  0  3.975921  0  0  0.122002  0.164391  0  3.939675  0
C  C66  1  0.33518986  0.68622618  0.18506016  1  0  0.163381  0  3.721597  0  0  0.166203  0  3.954288  0  0  0.169217  0  3.975837  0  0  0.122023  0.164502  0  3.939592  0
C  C67  1  0.16481208  0.31377111  0.68506158  1  0  0.163501  0  3.721449  0  0  0.166242  0  3.954134  0  0  0.169261  0  3.975682  0  0  0.122053  0.164544  0  3.939438  0
C  C68  1  0.54919624  0.12041537  0.34184382  1  0  -0.130559  0  3.679106  0  0  -0.149897  0  3.926941  0  0  -0.155203  0  3.947027  0  0  -0.074224  -0.146825  0  3.913579  0
C  C69  1  0.95080304  0.87958419  0.84184257  1  0  -0.130402  0  3.679051  0  0  -0.149774  0  3.926874  0  0  -0.155083  0  3.946965  0  0  -0.074157  -0.146704  0  3.913515  0
C  C70  1  0.45080440  0.62041582  0.15815564  1  0  -0.130467  0  3.679157  0  0  -0.149845  0  3.926989  0  0  -0.155151  0  3.947073  0  0  -0.074177  -0.146777  0  3.913638  0
C  C71  1  0.04919739  0.37958381  0.65815481  1  0  -0.130506  0  3.678914  0  0  -0.149827  0  3.926752  0  0  -0.155135  0  3.946838  0  0  -0.074168  -0.146757  0  3.913395  0
C  C72  1  0.41452141  0.18183394  0.21061008  1  0  -0.101181  0  3.707287  0  0  -0.114104  0  3.95658  0  0  -0.120355  0  3.978778  0  0  -0.073088  -0.110003  0  3.9418  0
C  C73  1  0.08547960  0.81816579  0.71061130  1  0  -0.101132  0  3.707129  0  0  -0.114058  0  3.956396  0  0  -0.12031  0  3.978596  0  0  -0.073061  -0.109956  0  3.941612  0
C  C74  1  0.58547623  0.68183575  0.28939082  1  0  -0.101148  0  3.707454  0  0  -0.114069  0  3.956739  0  0  -0.120319  0  3.978938  0  0  -0.07309  -0.109966  0  3.941953  0
C  C75  1  0.91452383  0.31816371  0.78939010  1  0  -0.101212  0  3.70723  0  0  -0.114166  0  3.956496  0  0  -0.120417  0  3.978698  0  0  -0.073118  -0.110065  0  3.941716  0
C  C76  1  0.53489138  0.24503845  0.18799315  1  0  0.134545  0  3.714236  0  0  0.105578  0  3.966866  0  0  0.111479  0  3.985665  0  0  0.053248  0.101957  0  3.953683  0
C  C77  1  0.96510808  0.75496002  0.68799039  1  0  0.134384  0  3.714053  0  0  0.105469  0  3.966649  0  0  0.111369  0  3.985448  0  0  0.053207  0.10185  0  3.953463  0
C  C78  1  0.46510982  0.74503842  0.31200716  1  0  0.134515  0  3.714209  0  0  0.105535  0  3.966865  0  0  0.111436  0  3.985663  0  0  0.053218  0.101919  0  3.95367  0
C  C79  1  0.03489289  0.25495910  0.81200887  1  0  0.13437  0  3.71421  0  0  0.105454  0  3.966817  0  0  0.111352  0  3.98562  0  0  0.053163  0.101836  0  3.953632  0
C  C80  1  0.80842868  0.18727179  0.36374363  1  0  0.284827  0  3.697517  0  0  0.26727  0  3.943019  0  0  0.281842  0  3.956348  0  0  0.165675  0.257357  0  3.933722  0
C  C81  1  0.69157183  0.81272940  0.86374167  1  0  0.285047  0  3.697374  0  0  0.267563  0  3.942779  0  0  0.282139  0  3.956101  0  0  0.165773  0.257648  0  3.933488  0
C  C82  1  0.19157226  0.68727079  0.13625660  1  0  0.284973  0  3.697428  0  0  0.267404  0  3.942939  0  0  0.281977  0  3.956265  0  0  0.165724  0.25749  0  3.933641  0
C  C83  1  0.30842939  0.31272720  0.63625767  1  0  0.284972  0  3.697596  0  0  0.267583  0  3.942866  0  0  0.282155  0  3.956193  0  0  0.165775  0.257668  0  3.933573  0
C  C84  1  0.42245836  0.11818105  0.28860198  1  0  0.000873  0  3.688977  0  0  -0.014393  0  3.931799  0  0  -0.012193  0  3.950877  0  0  -0.061941  -0.015754  0  3.919618  0
C  C85  1  0.07754202  0.88182202  0.78860463  1  0  0.000844  0  3.688863  0  0  -0.014428  0  3.931703  0  0  -0.012229  0  3.950784  0  0  -0.06199  -0.015792  0  3.919529  0
C  C86  1  0.57754227  0.61818269  0.21139816  1  0  0.000821  0  3.688977  0  0  -0.014451  0  3.931825  0  0  -0.01225  0  3.950901  0  0  -0.061965  -0.015815  0  3.91965  0
C  C87  1  0.92245951  0.38181822  0.71139685  1  0  0.00091  0  3.688873  0  0  -0.014327  0  3.931697  0  0  -0.012124  0  3.95077  0  0  -0.061936  -0.015692  0  3.919523  0
C  C88  1  0.85956978  0.14578180  0.01788522  1  0  0.51548  0  3.986771  0  0  0.476001  0  4.269103  0  0  0.502242  0  4.280764  0  0  0.306535  0.458286  0  4.260599  0
C  C89  1  0.64043521  0.85422195  0.51787565  1  0  0.515696  0  3.986992  0  0  0.476202  0  4.269352  0  0  0.502446  0  4.280998  0  0  0.306668  0.458492  0  4.260843  0
C  C90  1  0.14043098  0.64578212  0.48211633  1  0  0.515552  0  3.986741  0  0  0.476066  0  4.269072  0  0  0.502307  0  4.280729  0  0  0.306567  0.458348  0  4.260566  0
C  C91  1  0.35956511  0.35422211  0.98212512  1  0  0.515772  0  3.986973  0  0  0.47629  0  4.269333  0  0  0.502534  0  4.280977  0  0  0.306689  0.45858  0  4.260825  0
C  C92  1  0.71013153  0.11326512  0.89382633  1  0  0.515156  0  3.995498  0  0  0.474344  0  4.277344  0  0  0.500832  0  4.289031  0  0  0.311091  0.456328  0  4.269282  0
C  C93  1  0.78986916  0.88673693  0.39381890  1  0  0.515166  0  3.995616  0  0  0.474356  0  4.277466  0  0  0.500846  0  4.289137  0  0  0.311033  0.456345  0  4.269401  0
C  C94  1  0.28986881  0.61326430  0.60617206  1  0  0.515276  0  3.995359  0  0  0.474461  0  4.277189  0  0  0.500948  0  4.288875  0  0  0.311175  0.456446  0  4.269134  0
C  C95  1  0.21012721  0.38673843  0.10618296  1  0  0.515142  0  3.995577  0  0  0.474346  0  4.277418  0  0  0.500837  0  4.28909  0  0  0.311077  0.456336  0  4.269357  0
C  C96  1  0.86232776  0.47748845  0.36820891  1  0  0.510758  0  3.989132  0  0  0.470265  0  4.278216  0  0  0.496471  0  4.289734  0  0  0.302173  0.452298  0  4.270278  0
C  C97  1  0.63767060  0.52251195  0.86821192  1  0  0.510837  0  3.988985  0  0  0.470345  0  4.278048  0  0  0.496543  0  4.289566  0  0  0.302195  0.452378  0  4.27011  0
C  C98  1  0.13767230  0.97748492  0.13178553  1  0  0.510778  0  3.988918  0  0  0.470277  0  4.277998  0  0  0.496482  0  4.289516  0  0  0.302206  0.452306  0  4.27006  0
C  C99  1  0.36233151  0.02251386  0.63178978  1  0  0.510631  0  3.989494  0  0  0.470128  0  4.278571  0  0  0.49633  0  4.290093  0  0  0.302138  0.45216  0  4.27063  0
C  C100  1  0.80533110  0.53273101  0.51516879  1  0  0.515812  0  4.000072  0  0  0.477143  0  4.284492  0  0  0.504019  0  4.294828  0  0  0.311019  0.458884  0  4.277035  0
C  C101  1  0.69467168  0.46726635  0.01516948  1  0  0.515686  0  4.000051  0  0  0.477017  0  4.284441  0  0  0.503883  0  4.294769  0  0  0.31089  0.458762  0  4.276989  0
C  C102  1  0.19466778  0.03273078  0.98483018  1  0  0.515903  0  4.000009  0  0  0.477225  0  4.284416  0  0  0.504094  0  4.294752  0  0  0.311094  0.458968  0  4.276963  0
C  C103  1  0.30533051  0.96726786  0.48483386  1  0  0.515826  0  3.999935  0  0  0.477159  0  4.284339  0  0  0.504023  0  4.294669  0  0  0.311054  0.458901  0  4.276886  0
C  C104  1  0.73439741  0.13452778  0.61572265  1  0  -0.070743  0  3.75598  0  0  -0.081999  0  4.001966  0  0  -0.085194  0  4.024277  0  0  -0.091233  -0.079697  0  3.986659  0
C  C105  1  0.76560270  0.86547136  0.11572199  1  0  -0.070744  0  3.756051  0  0  -0.081978  0  4.002037  0  0  -0.085184  0  4.024354  0  0  -0.091237  -0.079675  0  3.98673  0
C  C106  1  0.26560301  0.63452821  0.88427713  1  0  -0.070739  0  3.756053  0  0  -0.081968  0  4.002045  0  0  -0.085161  0  4.024347  0  0  -0.091205  -0.079662  0  3.986736  0
C  C107  1  0.23439576  0.36547024  0.38427847  1  0  -0.070684  0  3.755904  0  0  -0.081881  0  4.001909  0  0  -0.085082  0  4.024216  0  0  -0.091205  -0.07958  0  3.986608  0
N  N108  1  0.91932862  0.22190120  0.31794884  1  0  -0.5748  0  2.928975  0  0  -0.523734  0  3.173045  0  0  -0.544782  0  3.176437  0  0  -0.473406  -0.509521  0  3.171524  0
N  N109  1  0.58067052  0.77809912  0.81794588  1  0  -0.574818  0  2.928601  0  0  -0.523798  0  3.172617  0  0  -0.544849  0  3.17601  0  0  -0.473332  -0.509582  0  3.171099  0
N  N110  1  0.08067139  0.72190002  0.18205075  1  0  -0.574869  0  2.928879  0  0  -0.523802  0  3.172953  0  0  -0.544852  0  3.176341  0  0  -0.473392  -0.509586  0  3.171433  0
N  N111  1  0.41933054  0.27809966  0.68205204  1  0  -0.574894  0  2.929079  0  0  -0.523914  0  3.173075  0  0  -0.544961  0  3.176462  0  0  -0.473419  -0.509703  0  3.171566  0
N  N112  1  0.86154735  0.47352219  0.28727777  1  0  -0.613855  0  2.753469  0  0  -0.569765  0  3.026942  0  0  -0.590956  0  3.029948  0  0  -0.392545  -0.5554  0  3.025597  0
N  N113  1  0.63845161  0.52648046  0.78727872  1  0  -0.613868  0  2.753307  0  0  -0.569786  0  3.026768  0  0  -0.590982  0  3.029786  0  0  -0.392526  -0.555415  0  3.025418  0
N  N114  1  0.13845487  0.97351801  0.21272284  1  0  -0.613875  0  2.753147  0  0  -0.569789  0  3.026633  0  0  -0.590988  0  3.029647  0  0  -0.392558  -0.555417  0  3.025281  0
N  N115  1  0.36155270  0.02648252  0.71272777  1  0  -0.613823  0  2.753241  0  0  -0.569744  0  3.026712  0  0  -0.59094  0  3.02973  0  0  -0.392542  -0.555377  0  3.025362  0
N  N116  1  0.65614088  0.24703970  0.23867619  1  0  -0.350906  0  3.24088  0  0  -0.282402  0  3.493012  0  0  -0.300183  0  3.513175  0  0  -0.315587  -0.270289  0  3.479045  0
N  N117  1  0.84385779  0.75296207  0.73867588  1  0  -0.350914  0  3.240832  0  0  -0.282437  0  3.492963  0  0  -0.300215  0  3.513124  0  0  -0.315611  -0.270322  0  3.478995  0
N  N118  1  0.34386033  0.74703929  0.26132343  1  0  -0.350932  0  3.240679  0  0  -0.282427  0  3.492812  0  0  -0.300207  0  3.512975  0  0  -0.315588  -0.270312  0  3.478837  0
N  N119  1  0.15614535  0.25295814  0.76132406  1  0  -0.350956  0  3.240841  0  0  -0.282468  0  3.492983  0  0  -0.300249  0  3.513144  0  0  -0.31558  -0.270354  0  3.479015  0
N  N120  1  0.61648538  0.12441563  0.83910397  1  0  -0.616184  0  2.81276  0  0  -0.563097  0  3.094934  0  0  -0.586005  0  3.097661  0  0  -0.393472  -0.547715  0  3.09301  0
N  N121  1  0.88351389  0.87558792  0.33910018  1  0  -0.616131  0  2.812864  0  0  -0.563061  0  3.095064  0  0  -0.58596  0  3.097784  0  0  -0.393426  -0.547678  0  3.093136  0
N  N122  1  0.38351391  0.62441433  0.66089512  1  0  -0.616229  0  2.812689  0  0  -0.563144  0  3.094871  0  0  -0.586049  0  3.097595  0  0  -0.393528  -0.547763  0  3.092952  0
N  N123  1  0.11648244  0.37559010  0.16090030  1  0  -0.61613  0  2.812996  0  0  -0.563063  0  3.095175  0  0  -0.585961  0  3.097893  0  0  -0.393496  -0.547678  0  3.093248  0
N  N124  1  0.90968991  0.18776653  0.08294004  1  0  -0.613808  0  2.798457  0  0  -0.566972  0  3.073302  0  0  -0.589873  0  3.077608  0  0  -0.395008  -0.55116  0  3.06976  0
N  N125  1  0.59032092  0.81223495  0.58292824  1  0  -0.61395  0  2.798398  0  0  -0.567103  0  3.073254  0  0  -0.589995  0  3.077549  0  0  -0.395147  -0.551291  0  3.06971  0
N  N126  1  0.09030885  0.68776661  0.41706156  1  0  -0.613872  0  2.798366  0  0  -0.567029  0  3.073217  0  0  -0.589929  0  3.077517  0  0  -0.39505  -0.551215  0  3.06967  0
N  N127  1  0.40968030  0.31223271  0.91707316  1  0  -0.61404  0  2.798377  0  0  -0.567203  0  3.073236  0  0  -0.590094  0  3.077528  0  0  -0.395171  -0.551387  0  3.069692  0
N  N128  1  0.75239535  0.58136370  0.57594080  1  0  -0.624181  0  2.812711  0  0  -0.571332  0  3.094421  0  0  -0.594296  0  3.096832  0  0  -0.389698  -0.555759  0  3.092244  0
N  N129  1  0.74760671  0.41863217  0.07594155  1  0  -0.624089  0  2.812605  0  0  -0.571262  0  3.094331  0  0  -0.594227  0  3.096738  0  0  -0.389635  -0.555688  0  3.092156  0
N  N130  1  0.24759939  0.08136588  0.92405960  1  0  -0.624224  0  2.812702  0  0  -0.571369  0  3.09439  0  0  -0.594331  0  3.096803  0  0  -0.389719  -0.555799  0  3.092213  0
N  N131  1  0.25239963  0.91863425  0.42406310  1  0  -0.62412  0  2.812647  0  0  -0.571278  0  3.094353  0  0  -0.594239  0  3.096764  0  0  -0.389674  -0.555711  0  3.092174  0
N  N132  1  0.87077115  0.47265553  0.45653607  1  0  -0.456696  0  3.296805  0  0  -0.402743  0  3.559414  0  0  -0.427506  0  3.565604  0  0  -0.307909  -0.385491  0  3.554012  0
N  N133  1  0.62922991  0.52734425  0.95653906  1  0  -0.456739  0  3.296894  0  0  -0.402758  0  3.559474  0  0  -0.4275  0  3.56565  0  0  -0.307882  -0.385511  0  3.554083  0
N  N134  1  0.12922779  0.97265261  0.04346248  1  0  -0.456791  0  3.296924  0  0  -0.40281  0  3.559509  0  0  -0.427564  0  3.565695  0  0  -0.307973  -0.385565  0  3.554119  0
N  N135  1  0.37077331  0.02734601  0.54346812  1  0  -0.456698  0  3.297279  0  0  -0.402718  0  3.559859  0  0  -0.427464  0  3.566041  0  0  -0.307951  -0.385464  0  3.554449  0
N  N136  1  0.81887994  0.09223229  0.94665275  1  0  -0.46479  0  3.341915  0  0  -0.405339  0  3.602561  0  0  -0.430483  0  3.609546  0  0  -0.303452  -0.38798  0  3.596735  0
N  N137  1  0.68112216  0.90777385  0.44664646  1  0  -0.464942  0  3.34226  0  0  -0.405436  0  3.602816  0  0  -0.430627  0  3.60989  0  0  -0.303436  -0.388099  0  3.59702  0
N  N138  1  0.18112030  0.59223350  0.55334561  1  0  -0.464878  0  3.341989  0  0  -0.405411  0  3.602605  0  0  -0.430558  0  3.609598  0  0  -0.303456  -0.388049  0  3.596775  0
N  N139  1  0.31887758  0.40777392  0.05335407  1  0  -0.464949  0  3.342193  0  0  -0.405467  0  3.602771  0  0  -0.430659  0  3.609845  0  0  -0.303426  -0.38812  0  3.596961  0
