# generated using pymatgen
data_KH24C18(N2O3)2
_symmetry_space_group_name_H-M   'P 1'
_cell_length_a   7.30301328
_cell_length_b   7.73459239
_cell_length_c   10.41457132
_cell_angle_alpha   71.45030229
_cell_angle_beta   75.91853433
_cell_angle_gamma   84.12319302
_symmetry_Int_Tables_number   1
_chemical_formula_structural   KH24C18(N2O3)2
_chemical_formula_sum   'K1 H24 C18 N4 O6'
_cell_volume   540.75501070
_cell_formula_units_Z   1
loop_
 _symmetry_equiv_pos_site_id
 _symmetry_equiv_pos_as_xyz
  1  'x, y, z'
loop_
 _atom_site_type_symbol
 _atom_site_label
 _atom_site_symmetry_multiplicity
 _atom_site_fract_x
 _atom_site_fract_y
 _atom_site_fract_z
 _atom_site_occupancy
 _atom_site_pbe_bader_spin_density
 _atom_site_pbe_cm5_charge
 _atom_site_pbe_ddec_charge
 _atom_site_pbe_ddec_spin_density
 _atom_site_pbe_ddec_sum_bond_order
 _atom_site_pbe_magmom
K  K0  1  0.00000079  0.99999473  0.50000035  1  0  0.901538  0.797345  0  0.791346  0
H  H1  1  0.43192372  0.82444978  0.28495260  1  0  0.102668  0.071464  0  0.979933  0
H  H2  1  0.56807512  0.17555307  0.71504147  1  0  0.102629  0.07148  0  0.979896  0
H  H3  1  0.47504994  0.98576870  0.11528817  1  0  0.098523  0.065618  0  1.008802  0
H  H4  1  0.52494610  0.01423281  0.88470671  1  0  0.098553  0.065636  0  1.008833  0
H  H5  1  0.51432014  0.37984361  0.36132211  1  0  0.098979  0.065853  0  1.012786  0
H  H6  1  0.48567891  0.62015106  0.63867962  1  0  0.098992  0.065867  0  1.012754  0
H  H7  1  0.30121166  0.41178462  0.29968529  1  0  0.100931  0.071373  0  0.979455  0
H  H8  1  0.69878875  0.58821277  0.70031653  1  0  0.10094  0.071389  0  0.979424  0
H  H9  1  0.13060050  0.99075100  0.11634886  1  0  0.09483  0.05509  0  1.000757  0
H  H10  1  0.86939280  0.00924781  0.88365193  1  0  0.094807  0.055  0  1.000762  0
H  H11  1  0.24947512  0.77349272  0.12522040  1  0  0.097734  0.066998  0  1.006423  0
H  H12  1  0.75051958  0.22650607  0.87477727  1  0  0.09774  0.066978  0  1.006445  0
H  H13  1  0.55524661  0.23010173  0.18496907  1  0  0.096412  0.065007  0  1.000282  0
H  H14  1  0.44475373  0.76989838  0.81503019  1  0  0.096398  0.064978  0  1.000231  0
H  H15  1  0.55006222  0.06123747  0.35045242  1  0  0.103814  0.068043  0  1.014798  0
H  H16  1  0.44993533  0.93875994  0.64954604  1  0  0.103797  0.068032  0  1.014766  0
H  H17  1  0.15317103  0.46777753  0.51735089  1  0  0.105376  0.07064  0  1.003135  0
H  H18  1  0.84683225  0.53221848  0.48265268  1  0  0.105352  0.070596  0  1.003164  0
H  H19  1  0.35200693  0.39866498  0.59472814  1  0  0.09753  0.059055  0  1.007007  0
H  H20  1  0.64799642  0.60132694  0.40527542  1  0  0.097508  0.059014  0  1.006975  0
H  H21  1  0.92677575  0.65844146  0.22109250  1  0  0.094236  0.055403  0  1.036669  0
H  H22  1  0.07322322  0.34155731  0.77890924  1  0  0.094234  0.055355  0  1.036656  0
H  H23  1  0.82567580  0.87429072  0.23374933  1  0  0.099947  0.062179  0  0.987555  0
H  H24  1  0.17432177  0.12570669  0.76625201  1  0  0.099945  0.062104  0  0.987565  0
C  C25  1  0.03997293  0.65813469  0.81887184  1  0  0.180413  0.248547  0  4.119981  0
C  C26  1  0.96003717  0.34187219  0.18112701  1  0  0.180463  0.248644  0  4.119786  0
C  C27  1  0.94970735  0.57068110  0.95646326  1  0  -0.008289  -0.092167  0  4.169468  0
C  C28  1  0.05029574  0.42932582  0.04354255  1  0  -0.008383  -0.09227  0  4.169517  0
C  C29  1  0.76221709  0.61897366  0.00837971  1  0  0.173191  0.232899  0  4.109439  0
C  C30  1  0.23779720  0.38103455  0.99161521  1  0  0.173165  0.232887  0  4.109648  0
C  C31  1  0.36776921  0.93829260  0.21306263  1  0  -0.076102  -0.003886  0  3.9559  0
C  C32  1  0.63222688  0.06170755  0.78693544  1  0  -0.076101  -0.003953  0  3.95611  0
C  C33  1  0.39206597  0.30955955  0.35834964  1  0  -0.072575  0.000958  0  3.93117  0
C  C34  1  0.60793007  0.69044333  0.64164875  1  0  -0.072568  0.000966  0  3.931204  0
C  C35  1  0.20008946  0.87397878  0.18220393  1  0  -0.077285  -0.008165  0  3.956775  0
C  C36  1  0.79990374  0.12602411  0.81779303  1  0  -0.077264  -0.008061  0  3.956819  0
C  C37  1  0.46487470  0.16543724  0.28810263  1  0  -0.077831  -0.010825  0  3.942907  0
C  C38  1  0.53512568  0.83456015  0.71189439  1  0  -0.077801  -0.010792  0  3.942751  0
C  C39  1  0.22825160  0.34820839  0.57507475  1  0  -0.072465  -0.00844  0  3.956075  0
C  C40  1  0.77174888  0.65178627  0.42492961  1  0  -0.072419  -0.008334  0  3.955992  0
C  C41  1  0.89745848  0.74863121  0.28745299  1  0  -0.076186  -0.00315  0  3.955929  0
C  C42  1  0.10253902  0.25136893  0.71254483  1  0  -0.076149  -0.002945  0  3.955875  0
N  N43  1  0.60593168  0.65353667  0.05814324  1  0  -0.298975  -0.362996  0  2.782146  0
N  N44  1  0.39406715  0.34647028  0.94186043  1  0  -0.298925  -0.362925  0  2.78257  0
N  N45  1  0.12434611  0.72325726  0.70432820  1  0  -0.394903  -0.404999  0  2.833927  0
N  N46  1  0.87565150  0.27674152  0.29568050  1  0  -0.394892  -0.405038  0  2.833521  0
O  O47  1  0.30814623  0.08298783  0.27245637  1  0  -0.284681  -0.257823  0  2.548529  0
O  O48  1  0.69185267  0.91701366  0.72754282  1  0  -0.284646  -0.257772  0  2.54854  0
O  O49  1  0.28739120  0.22323595  0.49632629  1  0  -0.278058  -0.252117  0  2.524822  0
O  O50  1  0.71260925  0.77675871  0.50367424  1  0  -0.278064  -0.252108  0  2.524981  0
O  O51  1  0.06961490  0.79316685  0.31025346  1  0  -0.278051  -0.253321  0  2.516307  0
O  O52  1  0.93038261  0.20683329  0.68974629  1  0  -0.278037  -0.253316  0  2.516375  0
