# generated using pymatgen
data_SmH15C22S2(NO4)2
_symmetry_space_group_name_H-M   'P 1'
_cell_length_a   8.85315698
_cell_length_b   11.85120516
_cell_length_c   12.67740653
_cell_angle_alpha   105.77116850
_cell_angle_beta   108.85295294
_cell_angle_gamma   100.00225491
_symmetry_Int_Tables_number   1
_chemical_formula_structural   SmH15C22S2(NO4)2
_chemical_formula_sum   'Sm2 H30 C44 S4 N4 O16'
_cell_volume   1160.35854814
_cell_formula_units_Z   2
loop_
 _symmetry_equiv_pos_site_id
 _symmetry_equiv_pos_as_xyz
  1  'x, y, z'
loop_
 _atom_site_type_symbol
 _atom_site_label
 _atom_site_symmetry_multiplicity
 _atom_site_fract_x
 _atom_site_fract_y
 _atom_site_fract_z
 _atom_site_occupancy
 _atom_site_hle17_bader_spin_density
 _atom_site_hle17_ddec_charge
 _atom_site_hle17_ddec_spin_density
 _atom_site_hle17_ddec_sum_bond_order
 _atom_site_hle17_magmom
 _atom_site_hse06_10hf_bader_spin_density
 _atom_site_hse06_10hf_ddec_charge
 _atom_site_hse06_10hf_ddec_spin_density
 _atom_site_hse06_10hf_ddec_sum_bond_order
 _atom_site_hse06_10hf_magmom
 _atom_site_hse06_bader_spin_density
 _atom_site_hse06_ddec_charge
 _atom_site_hse06_ddec_spin_density
 _atom_site_hse06_ddec_sum_bond_order
 _atom_site_hse06_magmom
 _atom_site_pbe_bader_spin_density
 _atom_site_pbe_cm5_charge
 _atom_site_pbe_ddec_charge
 _atom_site_pbe_ddec_spin_density
 _atom_site_pbe_ddec_sum_bond_order
 _atom_site_pbe_magmom
Sm  Sm0  1  0.54259868  0.42707966  0.35815007  1  0  2.256844  0  1.672277  0  0  2.084888  0  2.149569  0  0  2.127083  0  2.108039  0  0  1.523589  2.054313  0  2.179929  0
Sm  Sm1  1  0.45740256  0.57292220  0.64185123  1  0  2.256859  0  1.672266  0  0  2.084929  0  2.149512  0  0  2.127137  0  2.10796  0  0  1.523597  2.054361  0  2.179869  0
H  H2  1  0.88239247  0.29884499  0.77434773  1  0  0.098076  0  0.963145  0  0  0.108467  0  1.028468  0  0  0.111671  0  1.026002  0  0  0.102881  0.106133  0  1.030313  0
H  H3  1  0.11760568  0.70115503  0.22565235  1  0  0.09811  0  0.963066  0  0  0.108472  0  1.028431  0  0  0.111676  0  1.025966  0  0  0.102891  0.106141  0  1.030274  0
H  H4  1  0.81138474  0.11756671  0.84165467  1  0  0.117676  0  0.925739  0  0  0.12954  0  0.98075  0  0  0.133231  0  0.978116  0  0  0.112501  0.126768  0  0.982807  0
H  H5  1  0.18861480  0.88243695  0.15834748  1  0  0.117647  0  0.925735  0  0  0.129521  0  0.980735  0  0  0.133211  0  0.9781  0  0  0.112491  0.126746  0  0.982792  0
H  H6  1  0.32646199  0.85658387  0.64905626  1  0  0.09308  0  0.963493  0  0  0.10284  0  1.028314  0  0  0.106308  0  1.025152  0  0  0.10866  0.100273  0  1.030636  0
H  H7  1  0.67354113  0.14341344  0.35094272  1  0  0.09305  0  0.963554  0  0  0.102856  0  1.028318  0  0  0.10634  0  1.025136  0  0  0.108678  0.100287  0  1.030647  0
H  H8  1  0.24366060  0.97773613  0.51744173  1  0  0.081712  0  0.982791  0  0  0.092444  0  1.04904  0  0  0.09467  0  1.048687  0  0  0.097029  0.090822  0  1.049429  0
H  H9  1  0.75634190  0.02225940  0.48255427  1  0  0.081695  0  0.9828  0  0  0.092424  0  1.049058  0  0  0.09465  0  1.048704  0  0  0.097033  0.090807  0  1.049447  0
H  H10  1  0.29786449  0.16321843  0.47199129  1  0  0.121753  0  0.924504  0  0  0.135123  0  0.979722  0  0  0.138421  0  0.978957  0  0  0.110277  0.13267  0  0.980588  0
H  H11  1  0.70213424  0.83677980  0.52800609  1  0  0.121745  0  0.92454  0  0  0.135125  0  0.979753  0  0  0.138429  0  0.978981  0  0  0.110281  0.13267  0  0.980621  0
H  H12  1  0.92608636  0.62852261  0.50841560  1  0  0.094458  0  0.940583  0  0  0.10234  0  1.000918  0  0  0.10551  0  0.997402  0  0  0.126934  0.099935  0  1.003583  0
H  H13  1  0.07391505  0.37147651  0.49158424  1  0  0.094452  0  0.940589  0  0  0.10233  0  1.000925  0  0  0.1055  0  0.997409  0  0  0.126935  0.099923  0  1.00359  0
H  H14  1  0.10068696  0.82680357  0.52807109  1  0  0.100771  0  0.984139  0  0  0.113948  0  1.040788  0  0  0.116288  0  1.04083  0  0  0.108286  0.112295  0  1.040842  0
H  H15  1  0.89931158  0.17319738  0.47192853  1  0  0.100771  0  0.984129  0  0  0.113942  0  1.040786  0  0  0.116279  0  1.040834  0  0  0.108283  0.11229  0  1.040838  0
H  H16  1  0.00369621  0.91715296  0.36764482  1  0  0.094379  0  0.934606  0  0  0.108695  0  0.990339  0  0  0.111378  0  0.988541  0  0  0.109653  0.106747  0  0.991644  0
H  H17  1  0.99630195  0.08284705  0.63235526  1  0  0.094389  0  0.934586  0  0  0.108707  0  0.990316  0  0  0.11139  0  0.988519  0  0  0.109651  0.106759  0  0.991624  0
H  H18  1  0.78163344  0.90222989  0.17737534  1  0  0.114671  0  0.921131  0  0  0.12909  0  0.971477  0  0  0.132151  0  0.970611  0  0  0.114706  0.126861  0  0.97216  0
H  H19  1  0.21836765  0.09776833  0.82262339  1  0  0.114731  0  0.921115  0  0  0.129144  0  0.971469  0  0  0.132207  0  0.970599  0  0  0.114718  0.126916  0  0.972161  0
H  H20  1  0.50276859  0.79687633  0.01979049  1  0  0.121453  0  0.968101  0  0  0.13033  0  1.028054  0  0  0.133784  0  1.026348  0  0  0.110475  0.127692  0  1.029542  0
H  H21  1  0.49723076  0.20312369  0.98020988  1  0  0.121465  0  0.9681  0  0  0.130338  0  1.028056  0  0  0.133793  0  1.02635  0  0  0.110474  0.127697  0  1.029549  0
H  H22  1  0.24136305  0.61844919  0.92569163  1  0  0.110109  0  0.934987  0  0  0.123551  0  0.989517  0  0  0.126675  0  0.986895  0  0  0.115822  0.121187  0  0.991532  0
H  H23  1  0.75863371  0.38155354  0.07431040  1  0  0.110074  0  0.93507  0  0  0.123494  0  0.989622  0  0  0.126621  0  0.986998  0  0  0.115817  0.121126  0  0.991637  0
H  H24  1  0.08935689  0.42027640  0.92339777  1  0  0.102201  0  0.963206  0  0  0.112048  0  1.024432  0  0  0.115036  0  1.023781  0  0  0.105614  0.109923  0  1.025028  0
H  H25  1  0.91063952  0.57972541  0.07660394  1  0  0.10223  0  0.963158  0  0  0.112082  0  1.024373  0  0  0.115073  0  1.023723  0  0  0.105627  0.109955  0  1.024973  0
H  H26  1  0.22280535  0.33912012  0.08342280  1  0  0.095515  0  0.912077  0  0  0.105572  0  0.967976  0  0  0.108498  0  0.965023  0  0  0.130826  0.103321  0  0.970271  0
H  H27  1  0.77719245  0.66087898  0.91657695  1  0  0.095478  0  0.912177  0  0  0.105557  0  0.968049  0  0  0.108484  0  0.965095  0  0  0.130803  0.103303  0  0.970345  0
H  H28  1  0.82604394  0.38957554  0.26944575  1  0  0.454103  0  0.827235  0  0  0.425397  0  0.88519  0  0  0.435524  0  0.870319  0  0  0.3075  0.418249  0  0.895679  0
H  H29  1  0.17395544  0.61042169  0.73055705  1  0  0.45421  0  0.827087  0  0  0.425522  0  0.885023  0  0  0.435647  0  0.870147  0  0  0.307541  0.418377  0  0.895518  0
H  H30  1  0.67262517  0.26093612  0.20894782  1  0  0.44338  0  0.854038  0  0  0.412792  0  0.915814  0  0  0.423819  0  0.899682  0  0  0.299909  0.405046  0  0.927115  0
H  H31  1  0.32737330  0.73906199  0.79105657  1  0  0.443386  0  0.854016  0  0  0.412796  0  0.915797  0  0  0.423823  0  0.899664  0  0  0.299908  0.405055  0  0.92709  0
C  C32  1  0.69742268  0.33974414  0.64469452  1  0  -0.252577  0  3.749598  0  0  -0.231166  0  4.008681  0  0  -0.242156  0  4.029175  0  0  -0.029463  -0.224077  0  3.99494  0
C  C33  1  0.30257586  0.66025680  0.35530510  1  0  -0.252552  0  3.749601  0  0  -0.231193  0  4.008718  0  0  -0.242182  0  4.02921  0  0  -0.029476  -0.224103  0  3.994977  0
C  C34  1  0.75340437  0.26942835  0.71099906  1  0  -0.077334  0  3.738285  0  0  -0.11576  0  3.998291  0  0  -0.111775  0  4.016833  0  0  -0.081741  -0.118389  0  3.985939  0
C  C35  1  0.24659812  0.73057353  0.28900096  1  0  -0.077356  0  3.7384  0  0  -0.115767  0  3.998436  0  0  -0.111785  0  4.016981  0  0  -0.08175  -0.1184  0  3.986089  0
C  C36  1  0.64309830  0.15887898  0.69692806  1  0  0.038893  0  3.768455  0  0  0.057674  0  4.003172  0  0  0.053231  0  4.027845  0  0  -0.013029  0.060498  0  3.986415  0
C  C37  1  0.35690069  0.84112012  0.30307199  1  0  0.03883  0  3.768627  0  0  0.057635  0  4.003276  0  0  0.053195  0  4.027948  0  0  -0.013055  0.060454  0  3.986522  0
C  C38  1  0.68799562  0.08793933  0.77011370  1  0  -0.096483  0  3.698685  0  0  -0.129255  0  3.94393  0  0  -0.126478  0  3.961743  0  0  -0.07743  -0.130979  0  3.931978  0
C  C39  1  0.31200324  0.91206252  0.22988702  1  0  -0.096378  0  3.698611  0  0  -0.129186  0  3.943838  0  0  -0.126404  0  3.961653  0  0  -0.077372  -0.1309  0  3.931879  0
C  C40  1  0.57290516  0.98292204  0.75285978  1  0  -0.11528  0  3.757689  0  0  -0.090062  0  4.008995  0  0  -0.097859  0  4.031596  0  0  -0.018482  -0.085232  0  3.993814  0
C  C41  1  0.42709761  0.01708072  0.24714291  1  0  -0.115451  0  3.757714  0  0  -0.090178  0  4.008986  0  0  -0.097992  0  4.031612  0  0  -0.018539  -0.085353  0  3.993821  0
C  C42  1  0.41217287  0.94116947  0.66045331  1  0  -0.066544  0  3.78352  0  0  -0.097302  0  4.044762  0  0  -0.095953  0  4.064313  0  0  -0.085311  -0.097767  0  4.031323  0
C  C43  1  0.58783132  0.05883058  0.33954664  1  0  -0.066548  0  3.783597  0  0  -0.097372  0  4.044855  0  0  -0.096031  0  4.064402  0  0  -0.085355  -0.097842  0  4.03142  0
C  C44  1  0.36672055  0.00768699  0.58866952  1  0  -0.116165  0  3.762516  0  0  -0.136539  0  4.019349  0  0  -0.140608  0  4.04048  0  0  -0.092308  -0.134027  0  4.004868  0
C  C45  1  0.63328212  0.99231216  0.41132904  1  0  -0.116055  0  3.762434  0  0  -0.136439  0  4.019254  0  0  -0.140507  0  4.040389  0  0  -0.092303  -0.133939  0  4.004786  0
C  C46  1  0.47774611  0.11910102  0.60603118  1  0  0.087446  0  3.799624  0  0  0.100936  0  4.027201  0  0  0.104766  0  4.050776  0  0  -0.004742  0.098804  0  4.010987  0
C  C47  1  0.52225574  0.88089906  0.39396664  1  0  0.087424  0  3.799644  0  0  0.10096  0  4.027137  0  0  0.104787  0  4.050718  0  0  -0.004699  0.098837  0  4.010921  0
C  C48  1  0.42454235  0.19238970  0.53902763  1  0  -0.21849  0  3.67832  0  0  -0.247644  0  3.937888  0  0  -0.256295  0  3.958061  0  0  -0.097992  -0.242538  0  3.924651  0
C  C49  1  0.57545948  0.80761037  0.46097097  1  0  -0.21846  0  3.678337  0  0  -0.247666  0  3.93789  0  0  -0.256321  0  3.958063  0  0  -0.098028  -0.242564  0  3.924652  0
C  C50  1  0.52783269  0.30575895  0.56167925  1  0  0.35046  0  3.93941  0  0  0.332854  0  4.203259  0  0  0.347506  0  4.217385  0  0  0.076744  0.323123  0  4.193473  0
C  C51  1  0.47216631  0.69424016  0.43832079  1  0  0.350445  0  3.939432  0  0  0.332897  0  4.203232  0  0  0.34755  0  4.217359  0  0  0.076803  0.323174  0  4.193436  0
C  C52  1  0.88566167  0.66987207  0.44118099  1  0  0.181268  0  3.673013  0  0  0.147758  0  3.936905  0  0  0.15741  0  3.948813  0  0  0.066988  0.141505  0  3.928652  0
C  C53  1  0.11433890  0.33012797  0.55881888  1  0  0.1813  0  3.673032  0  0  0.147805  0  3.936901  0  0  0.157459  0  3.948811  0  0  0.067014  0.141554  0  3.928649  0
C  C54  1  0.98414982  0.78156248  0.45103248  1  0  -0.12329  0  3.738671  0  0  -0.138916  0  3.994865  0  0  -0.14569  0  4.015744  0  0  -0.084287  -0.134517  0  3.980646  0
C  C55  1  0.01584956  0.21843756  0.54896710  1  0  -0.123276  0  3.738598  0  0  -0.138901  0  3.994786  0  0  -0.145676  0  4.015667  0  0  -0.08428  -0.134497  0  3.980565  0
C  C56  1  0.93063270  0.83037561  0.36315062  1  0  -0.051704  0  3.708157  0  0  -0.076157  0  3.960335  0  0  -0.074112  0  3.978625  0  0  -0.063257  -0.077152  0  3.94765  0
C  C57  1  0.06936668  0.16962442  0.63684896  1  0  -0.051749  0  3.708167  0  0  -0.076205  0  3.96034  0  0  -0.07416  0  3.97863  0  0  -0.063288  -0.077206  0  3.947661  0
C  C58  1  0.77681370  0.76806004  0.26582659  1  0  0.025766  0  3.794734  0  0  0.041137  0  4.027224  0  0  0.038684  0  4.052433  0  0  -0.000144  0.042609  0  4.01018  0
C  C59  1  0.22318418  0.23193910  0.73417083  1  0  0.025772  0  3.79461  0  0  0.04116  0  4.027095  0  0  0.038706  0  4.052306  0  0  -0.000115  0.042635  0  4.010047  0
C  C60  1  0.70920378  0.81626526  0.17479820  1  0  -0.095953  0  3.727824  0  0  -0.118673  0  3.982886  0  0  -0.122914  0  4.006578  0  0  -0.079396  -0.115695  0  3.966771  0
C  C61  1  0.29079331  0.18373201  0.82520091  1  0  -0.095973  0  3.727552  0  0  -0.1187  0  3.982618  0  0  -0.12294  0  4.00631  0  0  -0.079382  -0.115721  0  3.96651  0
C  C62  1  0.55427271  0.75760996  0.08707585  1  0  -0.088657  0  3.708769  0  0  -0.114623  0  3.968039  0  0  -0.117739  0  3.991209  0  0  -0.078369  -0.112413  0  3.952409  0
C  C63  1  0.44572821  0.24239099  0.91292435  1  0  -0.08873  0  3.708674  0  0  -0.114681  0  3.967952  0  0  -0.117799  0  3.991126  0  0  -0.078397  -0.112463  0  3.952315  0
C  C64  1  0.45820504  0.64438225  0.08198441  1  0  0.03004  0  3.77237  0  0  0.04612  0  4.005249  0  0  0.043181  0  4.030352  0  0  0.001346  0.047871  0  3.988273  0
C  C65  1  0.54179108  0.35561868  0.91801542  1  0  0.030064  0  3.772334  0  0  0.046104  0  4.005231  0  0  0.043165  0  4.030334  0  0  0.001319  0.047853  0  3.988249  0
C  C66  1  0.29754921  0.58078013  0.99308695  1  0  -0.026343  0  3.649328  0  0  -0.052063  0  3.897044  0  0  -0.048766  0  3.913814  0  0  -0.054835  -0.053872  0  3.885549  0
C  C67  1  0.70244769  0.41921986  0.00691440  1  0  -0.026306  0  3.649231  0  0  -0.052002  0  3.896961  0  0  -0.048706  0  3.913726  0  0  -0.054832  -0.053812  0  3.885459  0
C  C68  1  0.21276040  0.47072005  0.99199227  1  0  -0.114536  0  3.72266  0  0  -0.129042  0  3.981077  0  0  -0.136431  0  4.002557  0  0  -0.08259  -0.124348  0  3.966535  0
C  C69  1  0.78723721  0.52928177  0.00800972  1  0  -0.11464  0  3.722441  0  0  -0.129143  0  3.98088  0  0  -0.136535  0  4.002362  0  0  -0.082617  -0.124438  0  3.96633  0
C  C70  1  0.28722944  0.42502272  0.08091723  1  0  0.164124  0  3.701913  0  0  0.131868  0  3.966144  0  0  0.140907  0  3.980884  0  0  0.06357  0.126152  0  3.955868  0
C  C71  1  0.71276910  0.57497822  0.91908239  1  0  0.164199  0  3.701963  0  0  0.131914  0  3.96621  0  0  0.140951  0  3.980953  0  0  0.063594  0.126198  0  3.955931  0
C  C72  1  0.52328750  0.59180861  0.16892237  1  0  0.137223  0  3.764391  0  0  0.133255  0  4.004109  0  0  0.13706  0  4.026376  0  0  0.120821  0.130799  0  3.988896  0
C  C73  1  0.47671071  0.40819143  0.83107615  1  0  0.137253  0  3.764395  0  0  0.133335  0  4.004071  0  0  0.137141  0  4.026334  0  0  0.12085  0.130885  0  3.98885  0
C  C74  1  0.68432349  0.65602818  0.26397864  1  0  0.14187  0  3.753238  0  0  0.138838  0  3.990435  0  0  0.142983  0  4.011612  0  0  0.123912  0.136137  0  3.976011  0
C  C75  1  0.31567627  0.34397278  0.73602049  1  0  0.141859  0  3.753241  0  0  0.138795  0  3.990451  0  0  0.14294  0  4.011631  0  0  0.12392  0.136092  0  3.976027  0
S  S76  1  0.82407037  0.47763731  0.65265165  1  0  1.363179  0  5.592838  0  0  1.265585  0  6.108538  0  0  1.315263  0  6.081332  0  0  0.531061  1.231374  0  6.126176  0
S  S77  1  0.17592787  0.52236275  0.34734609  1  0  1.363179  0  5.592924  0  0  1.26557  0  6.108658  0  0  1.315249  0  6.081446  0  0  0.531004  1.231342  0  6.12632  0
S  S78  1  0.61404419  0.89341804  0.84516437  1  0  1.332844  0  5.612261  0  0  1.235895  0  6.133872  0  0  1.283765  0  6.110853  0  0  0.524197  1.203512  0  6.147669  0
S  S79  1  0.38596132  0.10658564  0.15483921  1  0  1.333028  0  5.61208  0  0  1.236064  0  6.133675  0  0  1.283935  0  6.110658  0  0  0.524375  1.203686  0  6.147467  0
N  N80  1  0.73994188  0.60872404  0.35084838  1  0  -0.437806  0  3.257168  0  0  -0.387756  0  3.529647  0  0  -0.401752  0  3.545446  0  0  -0.38991  -0.378189  0  3.518509  0
N  N81  1  0.26005834  0.39127508  0.64915117  1  0  -0.43781  0  3.257205  0  0  -0.387762  0  3.529688  0  0  -0.401757  0  3.545481  0  0  -0.389942  -0.378201  0  3.518559  0
N  N82  1  0.43711735  0.48441700  0.16813737  1  0  -0.463173  0  3.258777  0  0  -0.414546  0  3.53587  0  0  -0.429792  0  3.553353  0  0  -0.384171  -0.40413  0  3.523531  0
N  N83  1  0.56288203  0.51558303  0.83186221  1  0  -0.463163  0  3.25884  0  0  -0.414546  0  3.535932  0  0  -0.429797  0  3.553425  0  0  -0.384167  -0.404141  0  3.523604  0
O  O84  1  0.99630716  0.49678236  0.72999914  1  0  -0.641565  0  1.949404  0  0  -0.584514  0  2.184136  0  0  -0.606485  0  2.1717  0  0  -0.316803  -0.569085  0  2.192072  0
O  O85  1  0.00369428  0.50321678  0.26999991  1  0  -0.641574  0  1.949563  0  0  -0.584492  0  2.184272  0  0  -0.606466  0  2.171842  0  0  -0.31677  -0.569058  0  2.192213  0
O  O86  1  0.75457018  0.57611282  0.69740276  1  0  -0.738488  0  2.049461  0  0  -0.685547  0  2.312229  0  0  -0.705987  0  2.295653  0  0  -0.382098  -0.671083  0  2.323362  0
O  O87  1  0.24543074  0.42388813  0.30259744  1  0  -0.738477  0  2.049408  0  0  -0.685532  0  2.312185  0  0  -0.705967  0  2.295609  0  0  -0.382085  -0.671064  0  2.323321  0
O  O88  1  0.80222357  0.45705727  0.52663033  1  0  -0.750809  0  2.004822  0  0  -0.695492  0  2.274891  0  0  -0.717131  0  2.259053  0  0  -0.391842  -0.680073  0  2.285152  0
O  O89  1  0.19777513  0.54294095  0.47336784  1  0  -0.750815  0  2.004832  0  0  -0.695481  0  2.27488  0  0  -0.717138  0  2.259076  0  0  -0.391833  -0.680057  0  2.28514  0
O  O90  1  0.46875945  0.87403907  0.87837732  1  0  -0.66407  0  1.942746  0  0  -0.60763  0  2.170689  0  0  -0.628877  0  2.155528  0  0  -0.332329  -0.59273  0  2.1804  0
O  O91  1  0.53124758  0.12596551  0.12162765  1  0  -0.664094  0  1.942747  0  0  -0.607669  0  2.170723  0  0  -0.628896  0  2.155538  0  0  -0.332391  -0.592765  0  2.180431  0
O  O92  1  0.60969741  0.77431196  0.76103381  1  0  -0.802536  0  2.005971  0  0  -0.741657  0  2.28253  0  0  -0.763261  0  2.264977  0  0  -0.454723  -0.726841  0  2.294006  0
O  O93  1  0.39030229  0.22568897  0.23896688  1  0  -0.802559  0  2.005987  0  0  -0.741678  0  2.282554  0  0  -0.763286  0  2.265017  0  0  -0.454729  -0.726859  0  2.294021  0
O  O94  1  0.77395531  0.95432929  0.94246895  1  0  -0.601595  0  1.867872  0  0  -0.563752  0  2.084915  0  0  -0.583135  0  2.071879  0  0  -0.332669  -0.549625  0  2.092993  0
O  O95  1  0.22605110  0.04567631  0.05752982  1  0  -0.601678  0  1.86771  0  0  -0.563836  0  2.084754  0  0  -0.583219  0  2.07172  0  0  -0.33278  -0.549708  0  2.09283  0
O  O96  1  0.47294337  0.38452417  0.51147698  1  0  -0.8671  0  2.208095  0  0  -0.799266  0  2.473417  0  0  -0.821408  0  2.465214  0  0  -0.512974  -0.783646  0  2.478123  0
O  O97  1  0.52705598  0.61547585  0.48852339  1  0  -0.867104  0  2.208147  0  0  -0.79927  0  2.473413  0  0  -0.821412  0  2.46521  0  0  -0.512992  -0.783653  0  2.478119  0
O  O98  1  0.72553663  0.34346729  0.27359448  1  0  -0.942774  0  1.852882  0  0  -0.891616  0  2.047798  0  0  -0.9102  0  2.014804  0  0  -0.652394  -0.878212  0  2.070522  0
O  O99  1  0.27446858  0.65652990  0.72641364  1  0  -0.942916  0  1.85279  0  0  -0.891787  0  2.047682  0  0  -0.910359  0  2.014697  0  0  -0.652444  -0.878373  0  2.070356  0
