# generated using pymatgen
data_ZnH12C16(NO2)2
_symmetry_space_group_name_H-M   'P 1'
_cell_length_a   8.29621942
_cell_length_b   8.70812269
_cell_length_c   12.28720651
_cell_angle_alpha   104.98973402
_cell_angle_beta   103.71000407
_cell_angle_gamma   106.47844520
_symmetry_Int_Tables_number   1
_chemical_formula_structural   ZnH12C16(NO2)2
_chemical_formula_sum   'Zn2 H24 C32 N4 O8'
_cell_volume   774.72557705
_cell_formula_units_Z   2
loop_
 _symmetry_equiv_pos_site_id
 _symmetry_equiv_pos_as_xyz
  1  'x, y, z'
loop_
 _atom_site_type_symbol
 _atom_site_label
 _atom_site_symmetry_multiplicity
 _atom_site_fract_x
 _atom_site_fract_y
 _atom_site_fract_z
 _atom_site_occupancy
 _atom_site_hle17_bader_spin_density
 _atom_site_hle17_ddec_charge
 _atom_site_hle17_ddec_spin_density
 _atom_site_hle17_ddec_sum_bond_order
 _atom_site_hle17_magmom
 _atom_site_hse06_10hf_bader_spin_density
 _atom_site_hse06_10hf_ddec_charge
 _atom_site_hse06_10hf_ddec_spin_density
 _atom_site_hse06_10hf_ddec_sum_bond_order
 _atom_site_hse06_10hf_magmom
 _atom_site_hse06_bader_spin_density
 _atom_site_hse06_ddec_charge
 _atom_site_hse06_ddec_spin_density
 _atom_site_hse06_ddec_sum_bond_order
 _atom_site_hse06_magmom
 _atom_site_pbe_bader_spin_density
 _atom_site_pbe_cm5_charge
 _atom_site_pbe_ddec_charge
 _atom_site_pbe_ddec_spin_density
 _atom_site_pbe_ddec_sum_bond_order
 _atom_site_pbe_magmom
Zn  Zn0  1  0.90995915  0.19574404  0.30666209  1  0  0.973773  0  1.883861  0  0  0.780102  0  2.362216  0  0  0.827773  0  2.309011  0  0  0.688321  0.747018  0  2.398598  0
Zn  Zn1  1  0.10314665  0.88894249  0.69336372  1  0  0.973734  0  1.882293  0  0  0.779783  0  2.360518  0  0  0.827493  0  2.307331  0  0  0.688061  0.746683  0  2.396866  0
H  H2  1  0.44021955  0.44289395  0.32206196  1  0  0.105775  0  0.930896  0  0  0.117295  0  0.988274  0  0  0.120684  0  0.986207  0  0  0.110011  0.114811  0  0.98985  0
H  H3  1  0.61832761  0.12122817  0.67803203  1  0  0.10556  0  0.931359  0  0  0.117047  0  0.988775  0  0  0.120408  0  0.986749  0  0  0.110307  0.114577  0  0.990327  0
H  H4  1  0.59779738  0.65716495  0.66606740  1  0  0.113479  0  0.941607  0  0  0.125791  0  0.995487  0  0  0.128781  0  0.995368  0  0  0.111465  0.123651  0  0.995734  0
H  H5  1  0.43214604  0.99162804  0.33407308  1  0  0.112442  0  0.940957  0  0  0.124451  0  0.995338  0  0  0.127433  0  0.99522  0  0  0.111561  0.122319  0  0.995585  0
H  H6  1  0.21052473  0.55873091  0.32525701  1  0  0.121456  0  0.952844  0  0  0.130448  0  1.011512  0  0  0.134408  0  1.009735  0  0  0.110313  0.127601  0  1.012933  0
H  H7  1  0.38492119  0.23324369  0.67481186  1  0  0.12073  0  0.952802  0  0  0.130509  0  1.010576  0  0  0.134496  0  1.008769  0  0  0.110551  0.127659  0  1.011986  0
H  H8  1  0.43176416  0.81472393  0.76409478  1  0  0.097292  0  0.956255  0  0  0.104477  0  1.018718  0  0  0.10807  0  1.015232  0  0  0.119404  0.101787  0  1.021335  0
H  H9  1  0.16788640  0.05081246  0.23598971  1  0  0.097773  0  0.956619  0  0  0.10498  0  1.018983  0  0  0.108584  0  1.015492  0  0  0.119873  0.102231  0  1.021674  0
H  H10  1  0.02759068  0.51032775  0.65744686  1  0  0.083104  0  0.964249  0  0  0.08757  0  1.035751  0  0  0.090841  0  1.032853  0  0  0.11195  0.085158  0  1.037877  0
H  H11  1  0.87082282  0.85314395  0.34224512  1  0  0.082321  0  0.963782  0  0  0.086686  0  1.035373  0  0  0.089944  0  1.032507  0  0  0.112037  0.084279  0  1.037493  0
H  H12  1  0.93791470  0.51377270  0.09328100  1  0  0.096267  0  0.953856  0  0  0.104982  0  1.018697  0  0  0.108315  0  1.01696  0  0  0.102966  0.102589  0  1.019993  0
H  H13  1  0.34466948  0.42068664  0.90684935  1  0  0.094758  0  0.955343  0  0  0.103471  0  1.02025  0  0  0.1068  0  1.018517  0  0  0.102379  0.101079  0  1.021535  0
H  H14  1  0.72698327  0.52398056  0.56176844  1  0  0.107672  0  0.966932  0  0  0.11551  0  1.031854  0  0  0.118949  0  1.030825  0  0  0.102306  0.113096  0  1.032703  0
H  H15  1  0.66498234  0.96188537  0.43826008  1  0  0.106555  0  0.967291  0  0  0.114543  0  1.032287  0  0  0.118016  0  1.031211  0  0  0.101728  0.112137  0  1.033129  0
H  H16  1  0.99231469  0.33472418  0.78741808  1  0  0.123357  0  0.95329  0  0  0.133264  0  1.012164  0  0  0.136776  0  1.01119  0  0  0.11203  0.13069  0  1.013089  0
H  H17  1  0.70563233  0.54749506  0.21236725  1  0  0.125561  0  0.950829  0  0  0.134627  0  1.010481  0  0  0.13818  0  1.009452  0  0  0.112804  0.13204  0  1.011434  0
H  H18  1  0.97995583  0.91568718  0.89874195  1  0  0.100978  0  0.951678  0  0  0.106381  0  1.016941  0  0  0.110012  0  1.012799  0  0  0.121001  0.103629  0  1.020086  0
H  H19  1  0.58086334  0.01712198  0.10151076  1  0  0.100841  0  0.952551  0  0  0.106306  0  1.017725  0  0  0.109919  0  1.013628  0  0  0.121473  0.103559  0  1.020864  0
H  H20  1  0.94083314  0.75854604  0.03636512  1  0  0.11658  0  0.945603  0  0  0.12614  0  1.005543  0  0  0.129271  0  1.005428  0  0  0.109837  0.123854  0  1.005852  0
H  H21  1  0.40437273  0.72217531  0.96374772  1  0  0.118549  0  0.945238  0  0  0.127817  0  1.005285  0  0  0.131043  0  1.005016  0  0  0.110439  0.125506  0  1.005661  0
H  H22  1  0.99819026  0.22036741  0.92517139  1  0  0.133588  0  0.950296  0  0  0.141619  0  1.011949  0  0  0.145586  0  1.009922  0  0  0.110427  0.138779  0  1.013587  0
H  H23  1  0.57392100  0.29534165  0.07438006  1  0  0.131747  0  0.95106  0  0  0.139428  0  1.013333  0  0  0.143359  0  1.011325  0  0  0.110211  0.136648  0  1.014867  0
H  H24  1  0.06016010  0.71791194  0.43890926  1  0  0.086986  0  0.926242  0  0  0.100162  0  0.981527  0  0  0.102417  0  0.979622  0  0  0.121692  0.098435  0  0.983047  0
H  H25  1  0.12100787  0.27878181  0.56110923  1  0  0.087179  0  0.926666  0  0  0.100349  0  0.982152  0  0  0.102542  0  0.980321  0  0  0.121515  0.098685  0  0.983565  0
C  C26  1  0.97405442  0.22235297  0.09941535  1  0  0.667564  0  3.93591  0  0  0.627509  0  4.219376  0  0  0.66159  0  4.21221  0  0  0.196912  0.604489  0  4.223295  0
C  C27  1  0.37470046  0.12300835  0.90045191  1  0  0.667762  0  3.934965  0  0  0.627381  0  4.219228  0  0  0.661476  0  4.212001  0  0  0.196613  0.604341  0  4.223194  0
C  C28  1  0.95898981  0.44688410  0.01250002  1  0  -0.076526  0  3.739633  0  0  -0.099769  0  3.989096  0  0  -0.101114  0  4.00928  0  0  -0.082532  -0.098595  0  3.975169  0
C  C29  1  0.44687672  0.43458201  0.98742814  1  0  -0.075874  0  3.739988  0  0  -0.098609  0  3.989882  0  0  -0.099967  0  4.01003  0  0  -0.08248  -0.097415  0  3.975978  0
C  C30  1  0.97900083  0.29639358  0.00335954  1  0  -0.184357  0  3.61441  0  0  -0.19918  0  3.861057  0  0  -0.207834  0  3.877587  0  0  -0.080963  -0.193522  0  3.849861  0
C  C31  1  0.47610289  0.29319030  0.99639930  1  0  -0.18351  0  3.614215  0  0  -0.19813  0  3.86156  0  0  -0.206745  0  3.878102  0  0  -0.081388  -0.192501  0  3.850356  0
C  C32  1  0.72087601  0.36319789  0.38877024  1  0  0.654111  0  3.941851  0  0  0.614333  0  4.22406  0  0  0.648604  0  4.217265  0  0  0.187999  0.591197  0  4.227726  0
C  C33  1  0.83182534  0.97422313  0.61133215  1  0  0.651224  0  3.945764  0  0  0.611283  0  4.228392  0  0  0.645555  0  4.221615  0  0  0.189513  0.588142  0  4.232035  0
C  C34  1  0.65304293  0.47172152  0.46616818  1  0  -0.189996  0  3.643275  0  0  -0.205354  0  3.89784  0  0  -0.214822  0  3.915009  0  0  -0.087544  -0.19915  0  3.886131  0
C  C35  1  0.68676509  0.00550738  0.53388950  1  0  -0.187441  0  3.644766  0  0  -0.203329  0  3.899886  0  0  -0.212815  0  3.917149  0  0  -0.087213  -0.197136  0  3.888156  0
C  C36  1  0.47941669  0.66653353  0.61125862  1  0  -0.151778  0  3.694404  0  0  -0.167825  0  3.938179  0  0  -0.176076  0  3.960056  0  0  -0.075626  -0.162561  0  3.923552  0
C  C37  1  0.36841116  0.05560829  0.38887767  1  0  -0.146726  0  3.691605  0  0  -0.163066  0  3.934746  0  0  -0.171243  0  3.956711  0  0  -0.075508  -0.157845  0  3.920055  0
C  C38  1  0.50508407  0.49996749  0.41915968  1  0  -0.060789  0  3.717085  0  0  -0.086081  0  3.969659  0  0  -0.085796  0  3.988553  0  0  -0.074916  -0.08599  0  3.95663  0
C  C39  1  0.58601763  0.08103019  0.58094875  1  0  -0.059885  0  3.719133  0  0  -0.085469  0  3.97148  0  0  -0.085142  0  3.99043  0  0  -0.074528  -0.085407  0  3.958404  0
C  C40  1  0.41985670  0.59567699  0.48560487  1  0  0.137358  0  3.790703  0  0  0.151209  0  4.024014  0  0  0.156415  0  4.04633  0  0  0.011581  0.147858  0  4.008806  0
C  C41  1  0.43434628  0.11032272  0.51453335  1  0  0.132513  0  3.794753  0  0  0.147937  0  4.026029  0  0  0.152965  0  4.04863  0  0  0.010531  0.144704  0  4.010622  0
C  C42  1  0.38862346  0.75384609  0.66705870  1  0  0.123039  0  3.695288  0  0  0.091211  0  3.946546  0  0  0.098098  0  3.96404  0  0  0.046426  0.086831  0  3.934651  0
C  C43  1  0.22171253  0.08689183  0.33300377  1  0  0.11951  0  3.697142  0  0  0.08798  0  3.948263  0  0  0.094847  0  3.965769  0  0  0.045873  0.08365  0  3.936383  0
C  C44  1  0.26675707  0.61594061  0.42246261  1  0  -0.159376  0  3.677374  0  0  -0.176297  0  3.926119  0  0  -0.184552  0  3.94582  0  0  -0.077583  -0.171037  0  3.913043  0
C  C45  1  0.34409615  0.19338205  0.57760922  1  0  -0.15673  0  3.677735  0  0  -0.174729  0  3.92572  0  0  -0.182946  0  3.945444  0  0  -0.077205  -0.169491  0  3.912612  0
C  C46  1  0.18100605  0.70246178  0.48467663  1  0  0.143526  0  3.702244  0  0  0.109167  0  3.956497  0  0  0.117598  0  3.973598  0  0  0.049847  0.103684  0  3.944892  0
C  C47  1  0.19612184  0.21760226  0.51535053  1  0  0.14226  0  3.703422  0  0  0.107852  0  3.957994  0  0  0.116335  0  3.975163  0  0  0.049762  0.102349  0  3.946366  0
C  C48  1  0.98223893  0.78714884  0.87671537  1  0  0.150704  0  3.675103  0  0  0.117444  0  3.925505  0  0  0.126745  0  3.940226  0  0  0.052994  0.111407  0  3.915517  0
C  C49  1  0.60544192  0.91059173  0.12341492  1  0  0.149673  0  3.678093  0  0  0.11619  0  3.928925  0  0  0.125474  0  3.943645  0  0  0.051403  0.110154  0  3.918967  0
C  C50  1  0.96043481  0.69740264  0.95375177  1  0  -0.154004  0  3.667349  0  0  -0.169902  0  3.905661  0  0  -0.178524  0  3.92603  0  0  -0.077403  -0.164346  0  3.89204  0
C  C51  1  0.50676234  0.74381133  0.04628497  1  0  -0.156773  0  3.667655  0  0  -0.171886  0  3.906621  0  0  -0.180578  0  3.926842  0  0  -0.077243  -0.166304  0  3.89306  0
C  C52  1  0.96856460  0.53335812  0.92618312  1  0  0.13865  0  3.801339  0  0  0.15539  0  4.028066  0  0  0.161363  0  4.050024  0  0  0.01184  0.151563  0  4.012939  0
C  C53  1  0.54280522  0.60739623  0.07371129  1  0  0.142113  0  3.797763  0  0  0.157642  0  4.025949  0  0  0.163728  0  4.047782  0  0  0.012351  0.15371  0  4.010982  0
C  C54  1  0.01134504  0.56091121  0.74358010  1  0  0.109172  0  3.729364  0  0  0.078454  0  3.983843  0  0  0.085358  0  4.00193  0  0  0.036712  0.073777  0  3.972036  0
C  C55  1  0.76834862  0.81751282  0.25620444  1  0  0.111623  0  3.727744  0  0  0.081022  0  3.982099  0  0  0.087905  0  4.000201  0  0  0.037411  0.076455  0  3.970103  0
C  C56  1  0.99081596  0.46368578  0.81605341  1  0  -0.165598  0  3.685189  0  0  -0.180821  0  3.925433  0  0  -0.189389  0  3.946548  0  0  -0.082068  -0.175247  0  3.911269  0
C  C57  1  0.67544368  0.64780223  0.18373463  1  0  -0.167813  0  3.679861  0  0  -0.181844  0  3.920397  0  0  -0.190471  0  3.941505  0  0  -0.081936  -0.176277  0  3.906314  0
N  N58  1  0.24092538  0.77141502  0.60484043  1  0  -0.340426  0  3.311023  0  0  -0.25551  0  3.592825  0  0  -0.27493  0  3.607256  0  0  -0.334162  -0.242439  0  3.582839  0
N  N59  1  0.13607499  0.16652285  0.39519254  1  0  -0.338477  0  3.313166  0  0  -0.254166  0  3.595502  0  0  -0.273555  0  3.609808  0  0  -0.334414  -0.241103  0  3.585526  0
N  N60  1  0.00993708  0.72146275  0.77378379  1  0  -0.349647  0  3.328366  0  0  -0.26554  0  3.611763  0  0  -0.285188  0  3.624975  0  0  -0.337845  -0.252288  0  3.602577  0
N  N61  1  0.73633580  0.94783220  0.22619786  1  0  -0.351388  0  3.331416  0  0  -0.267014  0  3.614891  0  0  -0.286639  0  3.628023  0  0  -0.338525  -0.253806  0  3.605815  0
O  O62  1  0.95677326  0.31471717  0.19483204  1  0  -0.661682  0  2.053591  0  0  -0.586215  0  2.32194  0  0  -0.615354  0  2.306766  0  0  -0.340636  -0.565769  0  2.331527  0
O  O63  1  0.26156229  0.11984199  0.80522001  1  0  -0.662574  0  2.051223  0  0  -0.586878  0  2.319221  0  0  -0.616106  0  2.304248  0  0  -0.340654  -0.566399  0  2.328732  0
O  O64  1  0.86800641  0.34770001  0.44265663  1  0  -0.659634  0  1.984692  0  0  -0.588231  0  2.248161  0  0  -0.618278  0  2.235788  0  0  -0.339973  -0.567032  0  2.255721  0
O  O65  1  0.92500366  0.90475836  0.55743772  1  0  -0.658643  0  1.986195  0  0  -0.587042  0  2.249359  0  0  -0.617176  0  2.237237  0  0  -0.340539  -0.565817  0  2.256827  0
O  O66  1  0.98625263  0.07870992  0.08458456  1  0  -0.614299  0  1.906923  0  0  -0.568643  0  2.120181  0  0  -0.592416  0  2.112508  0  0  -0.318228  -0.551858  0  2.124708  0
O  O67  1  0.40191626  0.99424522  0.91526264  1  0  -0.613441  0  1.908231  0  0  -0.5676  0  2.121558  0  0  -0.59139  0  2.113907  0  0  -0.317533  -0.550836  0  2.126137  0
O  O68  1  0.63819759  0.29018203  0.27856308  1  0  -0.616296  0  1.917457  0  0  -0.569059  0  2.142016  0  0  -0.593303  0  2.133613  0  0  -0.316666  -0.55209  0  2.147169  0
O  O69  1  0.85933178  0.01151950  0.72155792  1  0  -0.615173  0  1.91856  0  0  -0.567555  0  2.142639  0  0  -0.591804  0  2.134282  0  0  -0.317118  -0.550548  0  2.147758  0
