# generated using pymatgen
data_Cu2H6C9N6O7
_symmetry_space_group_name_H-M   'P 1'
_cell_length_a   6.42828073
_cell_length_b   14.97869771
_cell_length_c   15.49927341
_cell_angle_alpha   89.99981921
_cell_angle_beta   89.99953515
_cell_angle_gamma   89.99897465
_symmetry_Int_Tables_number   1
_chemical_formula_structural   Cu2H6C9N6O7
_chemical_formula_sum   'Cu8 H24 C36 N24 O28'
_cell_volume   1492.38278453
_cell_formula_units_Z   4
loop_
 _symmetry_equiv_pos_site_id
 _symmetry_equiv_pos_as_xyz
  1  'x, y, z'
loop_
 _atom_site_type_symbol
 _atom_site_label
 _atom_site_symmetry_multiplicity
 _atom_site_fract_x
 _atom_site_fract_y
 _atom_site_fract_z
 _atom_site_occupancy
 _atom_site_pbe_bader_charge
 _atom_site_pbe_bader_spin_density
 _atom_site_pbe_cm5_charge
 _atom_site_pbe_ddec_charge
 _atom_site_pbe_ddec_spin_density
 _atom_site_pbe_ddec_sum_bond_order
 _atom_site_pbe_magmom
Cu  Cu0  1  0.26324475  0.41053057  0.86737121  1  1.128945  0.641404  0.746815  0.856052  0.799177  2.249859  0.638
Cu  Cu1  1  0.51193073  0.24942193  0.99896687  1  1.029265  0.527907  0.75616  0.759306  0.670968  2.315907  0.529
Cu  Cu2  1  0.23676446  0.58947363  0.36737529  1  1.128926  0.641393  0.746858  0.856225  0.799163  2.249783  0.638
Cu  Cu3  1  0.98806493  0.75058265  0.49896510  1  1.029246  0.527911  0.756172  0.759256  0.670965  2.316025  0.529
Cu  Cu4  1  0.73674894  0.91052454  0.63262381  1  1.129001  0.641412  0.746842  0.856082  0.799174  2.24999  0.638
Cu  Cu5  1  0.48806654  0.74941758  0.50103185  1  1.029213  0.527925  0.756135  0.759185  0.670988  2.316211  0.529
Cu  Cu6  1  0.76323826  0.08947391  0.13262414  1  1.128993  0.641413  0.746888  0.856199  0.799181  2.249988  0.638
Cu  Cu7  1  0.01192955  0.25058582  0.00103255  1  1.029244  0.527916  0.756165  0.759262  0.670974  2.316147  0.529
H  H8  1  0.25571891  0.24422842  0.87312077  1  0.64012  -0.000424  0.268289  0.358912  0.000781  1.000788  0.001
H  H9  1  0.63615817  0.52228270  0.75314053  1  0.513819  0.000252  0.336533  0.35  9.1e-05  0.886252  0.0
H  H10  1  0.90426549  0.52586140  0.76029654  1  0.49268  0.000236  0.335333  0.347372  6.8e-05  0.889958  0.0
H  H11  1  0.26488054  0.57551479  0.10770051  1  0.153843  0.001092  0.115914  0.135284  0.00101  0.981831  0.0
H  H12  1  0.26414015  0.86279474  0.12576995  1  0.204688  3e-05  0.11287  0.119616  -4.3e-05  1.053697  0.0
H  H13  1  0.27203190  0.73382031  0.87611692  1  0.170975  0.000163  0.120185  0.13663  0.000151  0.990639  0.0
H  H14  1  0.24428085  0.75577309  0.37311981  1  0.640105  -0.000424  0.26833  0.359007  0.000781  1.000679  0.001
H  H15  1  0.86383913  0.47772804  0.25313678  1  0.514019  0.000251  0.336594  0.349998  9.1e-05  0.886223  0.0
H  H16  1  0.59573790  0.47414664  0.26029886  1  0.492757  0.000236  0.335361  0.347483  6.8e-05  0.889845  0.0
H  H17  1  0.23513993  0.42448226  0.60770229  1  0.154005  0.001092  0.115926  0.135275  0.00101  0.981804  0.0
H  H18  1  0.23586130  0.13720157  0.62576744  1  0.204599  3e-05  0.11287  0.119598  -4.3e-05  1.053657  0.0
H  H19  1  0.22796936  0.26618119  0.37611362  1  0.170875  0.000163  0.120178  0.136638  0.000151  0.990735  0.0
H  H20  1  0.74428168  0.74422635  0.62687990  1  0.640048  -0.000424  0.268316  0.358981  0.000782  1.000714  0.001
H  H21  1  0.36382986  0.02227166  0.74686339  1  0.513874  0.000252  0.336582  0.350031  9.1e-05  0.885889  0.0
H  H22  1  0.09570217  0.02585446  0.73970286  1  0.492559  0.000236  0.335252  0.34739  6.8e-05  0.889786  0.0
H  H23  1  0.73510098  0.07550842  0.39229380  1  0.153671  0.001092  0.115879  0.135234  0.00101  0.981902  0.0
H  H24  1  0.73588545  0.36278977  0.37423510  1  0.204719  3e-05  0.112894  0.119621  -4.3e-05  1.053735  0.0
H  H25  1  0.72796446  0.23380688  0.62388508  1  0.171308  0.000162  0.120235  0.13666  0.000151  0.990711  0.0
H  H26  1  0.75571341  0.25577479  0.12687847  1  0.640108  -0.000424  0.268314  0.358993  0.000782  1.000698  0.001
H  H27  1  0.13615213  0.97772692  0.24686019  1  0.513777  0.000251  0.336593  0.350092  9.1e-05  0.886119  0.0
H  H28  1  0.40426751  0.97415082  0.23970844  1  0.492706  0.000235  0.33528  0.347339  6.7e-05  0.890044  0.0
H  H29  1  0.76487341  0.92448783  0.89229656  1  0.153889  0.001092  0.115903  0.135261  0.00101  0.981771  0.0
H  H30  1  0.76412196  0.63720721  0.87423485  1  0.204679  3e-05  0.112874  0.119576  -4.3e-05  1.053728  0.0
H  H31  1  0.77204003  0.76619026  0.12388721  1  0.171215  0.000163  0.120206  0.136616  0.000151  0.9907  0.0
C  C32  1  0.76422443  0.43781009  0.84070971  1  1.541273  0.009732  0.354829  0.533223  0.008265  4.051042  0.012
C  C33  1  0.26910030  0.64577177  0.98655449  1  0.040022  0.00482  -0.018951  -0.031171  0.003461  3.974173  0.003
C  C34  1  0.26682092  0.64053984  0.07643894  1  -0.065959  0.000857  -0.066489  -0.08374  0.000627  3.879292  0.0
C  C35  1  0.26452115  0.71827683  0.12693087  1  0.020161  0.010446  -0.010954  -0.021725  0.007145  3.931101  0.008
C  C36  1  0.26644100  0.80190499  0.08726888  1  -0.045059  5.8e-05  -0.062169  -0.110335  -0.00045  3.900718  0.0
C  C37  1  0.27005360  0.80535237  0.99720056  1  0.189281  0.001548  0.072682  0.0472  0.000914  3.965065  0.001
C  C38  1  0.27083349  0.72919029  0.94608924  1  -0.025773  0.000311  -0.063567  -0.120219  -8.8e-05  3.938153  0.0
C  C39  1  0.26688266  0.56349902  0.93208820  1  1.556329  -0.002921  0.187155  0.552391  -0.004081  4.210349  -0.005
C  C40  1  0.25546509  0.71001297  0.22369027  1  1.549045  -0.00117  0.213398  0.584563  -0.001859  4.166421  -0.003
C  C41  1  0.73578674  0.56219567  0.34071194  1  1.541151  0.00973  0.354717  0.532977  0.008264  4.051443  0.012
C  C42  1  0.23092059  0.35422870  0.48655220  1  0.040051  0.004819  -0.018891  -0.03118  0.003461  3.974  0.003
C  C43  1  0.23318616  0.35945864  0.57643963  1  -0.066091  0.000856  -0.066531  -0.083635  0.000627  3.879082  0.0
C  C44  1  0.23548650  0.28172081  0.62692792  1  0.020123  0.010445  -0.010836  -0.021676  0.007144  3.931099  0.008
C  C45  1  0.23356586  0.19809346  0.58726619  1  -0.044952  5.8e-05  -0.062243  -0.110333  -0.00045  3.900659  0.0
C  C46  1  0.22994842  0.19464672  0.49719746  1  0.189306  0.001548  0.072686  0.047148  0.000914  3.965108  0.001
C  C47  1  0.22917575  0.27081298  0.44608721  1  -0.025769  0.000311  -0.063554  -0.120191  -8.8e-05  3.938137  0.0
C  C48  1  0.23313773  0.43649895  0.43208630  1  1.55706  -0.002916  0.187292  0.552651  -0.00408  4.210133  -0.005
C  C49  1  0.24454380  0.28998435  0.72368598  1  1.549006  -0.001169  0.213309  0.584332  -0.001857  4.166558  -0.003
C  C50  1  0.23576347  0.93780583  0.65928651  1  1.541509  0.009732  0.354767  0.53299  0.008266  4.051689  0.012
C  C51  1  0.73088882  0.14576335  0.51344325  1  0.040334  0.004817  -0.018832  -0.030999  0.00346  3.973803  0.003
C  C52  1  0.73316257  0.14053139  0.42355904  1  -0.06601  0.000857  -0.066465  -0.083708  0.000627  3.879131  0.0
C  C53  1  0.73547933  0.21827387  0.37306881  1  0.020092  0.010444  -0.011007  -0.021703  0.007144  3.930884  0.008
C  C54  1  0.73357312  0.30189857  0.41273249  1  -0.044787  5.7e-05  -0.06209  -0.11026  -0.000451  3.900618  0.0
C  C55  1  0.72995846  0.30534800  0.50280445  1  0.189497  0.001548  0.072632  0.047099  0.000914  3.965462  0.001
C  C56  1  0.72916773  0.22918242  0.55391083  1  -0.02636  0.000311  -0.063632  -0.120331  -8.7e-05  3.938213  0.0
C  C57  1  0.73310832  0.06349508  0.56791173  1  1.556235  -0.002919  0.187123  0.55247  -0.004081  4.210311  -0.005
C  C58  1  0.74453729  0.21001092  0.27631137  1  1.549021  -0.00117  0.21338  0.584506  -0.001859  4.166433  -0.003
C  C59  1  0.26422022  0.06219905  0.15928370  1  1.541198  0.009726  0.35469  0.532896  0.008262  4.051439  0.012
C  C60  1  0.76910847  0.85423483  0.01344513  1  0.040298  0.004817  -0.018899  -0.031118  0.00346  3.973872  0.003
C  C61  1  0.76682832  0.85946209  0.92356005  1  -0.066091  0.000857  -0.066487  -0.083708  0.000627  3.879142  0.0
C  C62  1  0.76451254  0.78172445  0.87307264  1  0.02004  0.010444  -0.010922  -0.021668  0.007143  3.930959  0.008
C  C63  1  0.76642576  0.69809828  0.91273463  1  -0.044768  5.7e-05  -0.062198  -0.110305  -0.000451  3.90072  0.0
C  C64  1  0.77004371  0.69465021  0.00280487  1  0.189501  0.001548  0.072598  0.047033  0.000914  3.965372  0.001
C  C65  1  0.77083656  0.77081629  0.05391232  1  -0.026335  0.000312  -0.063571  -0.12018  -8.7e-05  3.938055  0.0
C  C66  1  0.76689102  0.93650625  0.06790886  1  1.55575  -0.002918  0.187229  0.552658  -0.00408  4.210445  -0.005
C  C67  1  0.75545490  0.78998571  0.77631198  1  1.549049  -0.00117  0.213425  0.584607  -0.001859  4.166432  -0.003
N  N68  1  0.59076799  0.39787800  0.87289545  1  -0.637541  0.07101  -0.230157  -0.282273  0.04755  3.337282  0.062
N  N69  1  0.66112656  0.33697047  0.92853286  1  -0.231151  0.066089  -0.14577  -0.035585  0.045555  3.660251  0.06
N  N70  1  0.86376235  0.33801250  0.93029583  1  -0.109367  0.066732  -0.146116  -0.034849  0.046423  3.667528  0.061
N  N71  1  0.93612310  0.39936344  0.87578338  1  -0.63532  0.071879  -0.230031  -0.281496  0.048083  3.352416  0.063
N  N72  1  0.76656003  0.50821750  0.78724451  1  -1.27346  -0.001371  -0.554342  -0.627025  -0.002306  3.306175  -0.001
N  N73  1  0.27145538  0.89277993  0.95389517  1  0.304171  0.000289  0.054397  0.509513  0.000156  4.214936  0.0
N  N74  1  0.90923633  0.60212566  0.37289761  1  -0.63763  0.07101  -0.230281  -0.282489  0.047551  3.337396  0.062
N  N75  1  0.83887979  0.66303367  0.42853702  1  -0.231419  0.066083  -0.145707  -0.035365  0.045552  3.660119  0.06
N  N76  1  0.63624241  0.66198897  0.43029809  1  -0.109148  0.066734  -0.146135  -0.034845  0.046425  3.667592  0.061
N  N77  1  0.56388272  0.60064154  0.37578543  1  -0.635214  0.071872  -0.229918  -0.281417  0.048079  3.352633  0.063
N  N78  1  0.73344439  0.49178645  0.28724632  1  -1.273544  -0.00137  -0.55437  -0.626983  -0.002306  3.306095  -0.001
N  N79  1  0.22853971  0.10722198  0.45389363  1  0.304107  0.000289  0.054386  0.509523  0.000156  4.215162  0.0
N  N80  1  0.40920756  0.89787317  0.62710283  1  -0.637312  0.071009  -0.230366  -0.282398  0.047551  3.337539  0.062
N  N81  1  0.33887018  0.83696771  0.57146689  1  -0.231285  0.06609  -0.145668  -0.035398  0.045556  3.660112  0.06
N  N82  1  0.13623279  0.83801464  0.56970521  1  -0.109459  0.066739  -0.146086  -0.03487  0.046426  3.667575  0.061
N  N83  1  0.06386639  0.89935862  0.62421038  1  -0.635498  0.071875  -0.230003  -0.281419  0.048081  3.352712  0.063
N  N84  1  0.23342236  0.00820691  0.71275042  1  -1.273394  -0.00137  -0.55415  -0.626865  -0.002306  3.306113  -0.001
N  N85  1  0.72855772  0.39276808  0.54610700  1  0.303518  0.000289  0.054401  0.509438  0.000155  4.215359  0.0
N  N86  1  0.09077209  0.10212381  0.12710242  1  -0.637605  0.071004  -0.230236  -0.282348  0.047546  3.337496  0.062
N  N87  1  0.16112299  0.16303279  0.07146412  1  -0.231366  0.066083  -0.145745  -0.03549  0.045552  3.660068  0.06
N  N88  1  0.36375885  0.16198920  0.06970499  1  -0.109036  0.066727  -0.146079  -0.034814  0.046419  3.66745  0.061
N  N89  1  0.43611332  0.10064037  0.12421783  1  -0.635395  0.07187  -0.229985  -0.281445  0.048077  3.352756  0.063
N  N90  1  0.26655874  0.99178244  0.21275770  1  -1.273267  -0.00137  -0.554268  -0.626924  -0.002304  3.305734  -0.001
N  N91  1  0.77145450  0.60722664  0.04610961  1  0.303606  0.000289  0.054474  0.509475  0.000156  4.215236  0.0
O  O92  1  0.26884706  0.48724533  0.97137983  1  -1.075093  0.137512  -0.326934  -0.529312  0.084911  2.245606  0.121
O  O93  1  0.26224757  0.56914786  0.85081794  1  -1.162744  0.031769  -0.330173  -0.549552  0.01917  2.078959  0.028
O  O94  1  0.24418358  0.62837971  0.24955485  1  -1.094489  0.116084  -0.330805  -0.550683  0.072078  2.4028  0.104
O  O95  1  0.25803933  0.77842938  0.27096722  1  -1.176176  0.006862  -0.312279  -0.512086  0.003582  2.114639  0.006
O  O96  1  0.26468811  0.96058151  0.99959786  1  -0.453376  0.000207  -0.125198  -0.321351  8.7e-05  1.994822  0.0
O  O97  1  0.27957805  0.89400377  0.87383979  1  -0.414007  0.000324  -0.132415  -0.340967  0.000155  1.963978  0.0
O  O98  1  0.26090107  0.27388775  0.93256673  1  -1.135077  0.238279  -0.588262  -0.857778  0.14842  2.420143  0.214
O  O99  1  0.23115857  0.51274918  0.47137706  1  -1.075701  0.137492  -0.327107  -0.529562  0.084902  2.245664  0.121
O  O100  1  0.23777129  0.43085639  0.35081475  1  -1.162887  0.031781  -0.330197  -0.54967  0.019177  2.078922  0.028
O  O101  1  0.25582636  0.37161620  0.74955221  1  -1.094365  0.116082  -0.330761  -0.550584  0.072076  2.402864  0.104
O  O102  1  0.24195464  0.22157246  0.77096830  1  -1.176168  0.006863  -0.312236  -0.511975  0.003582  2.114651  0.006
O  O103  1  0.23530453  0.03941692  0.49959457  1  -0.453317  0.000207  -0.125186  -0.321319  8.8e-05  1.994761  0.0
O  O104  1  0.22041392  0.10600041  0.37383893  1  -0.414087  0.000324  -0.132398  -0.34095  0.000155  1.964112  0.0
O  O105  1  0.23910377  0.72611690  0.43256845  1  -1.1351  0.238262  -0.588304  -0.85789  0.14841  2.420106  0.214
O  O106  1  0.73114033  0.98724435  0.52861689  1  -1.075253  0.137509  -0.326923  -0.529357  0.084911  2.245577  0.121
O  O107  1  0.73774007  0.06913427  0.64918198  1  -1.162889  0.031781  -0.330151  -0.549574  0.019178  2.079018  0.028
O  O108  1  0.75582219  0.12837833  0.25044317  1  -1.094632  0.116082  -0.330818  -0.550705  0.072079  2.402841  0.104
O  O109  1  0.74196644  0.27842818  0.22903357  1  -1.176094  0.006863  -0.312271  -0.512063  0.003583  2.114604  0.006
O  O110  1  0.73531128  0.46057243  0.50041184  1  -0.452977  0.000207  -0.125202  -0.32128  8.7e-05  1.994942  0.0
O  O111  1  0.72043655  0.39398371  0.62616496  1  -0.413663  0.000324  -0.132456  -0.340927  0.000155  1.963804  0.0
O  O112  1  0.73909207  0.77388192  0.56743128  1  -1.134996  0.238275  -0.588302  -0.857813  0.148417  2.420033  0.214
O  O113  1  0.76884111  0.01275778  0.02862002  1  -1.074833  0.1375  -0.326947  -0.529462  0.084905  2.245863  0.121
O  O114  1  0.76227326  0.93086078  0.14917978  1  -1.162796  0.031799  -0.330233  -0.549676  0.019189  2.079088  0.028
O  O115  1  0.74416894  0.87162107  0.75044292  1  -1.094569  0.116089  -0.330825  -0.550723  0.072083  2.40282  0.104
O  O116  1  0.75804223  0.72157462  0.72903438  1  -1.176042  0.006857  -0.312303  -0.512127  0.003579  2.115001  0.006
O  O117  1  0.76469249  0.53942178  0.00041404  1  -0.452986  0.000207  -0.125243  -0.321277  8.8e-05  1.994783  0.0
O  O118  1  0.77958656  0.60600942  0.12616561  1  -0.413853  0.000324  -0.132395  -0.340868  0.000154  1.963997  0.0
O  O119  1  0.76090417  0.22611808  0.06743185  1  -1.135085  0.238269  -0.588291  -0.857859  0.148414  2.420099  0.214
