# generated using pymatgen
data_CoH9C8O3
_symmetry_space_group_name_H-M   'P 1'
_cell_length_a   7.05153504
_cell_length_b   15.11657508
_cell_length_c   15.11231886
_cell_angle_alpha   117.69584930
_cell_angle_beta   98.96831066
_cell_angle_gamma   98.91295675
_symmetry_Int_Tables_number   1
_chemical_formula_structural   CoH9C8O3
_chemical_formula_sum   'Co6 H54 C48 O18'
_cell_volume   1360.44642661
_cell_formula_units_Z   6
loop_
 _symmetry_equiv_pos_site_id
 _symmetry_equiv_pos_as_xyz
  1  'x, y, z'
loop_
 _atom_site_type_symbol
 _atom_site_label
 _atom_site_symmetry_multiplicity
 _atom_site_fract_x
 _atom_site_fract_y
 _atom_site_fract_z
 _atom_site_occupancy
 _atom_site_pbe_bader_charge
 _atom_site_pbe_bader_spin_density
 _atom_site_pbe_cm5_charge
 _atom_site_pbe_ddec_charge
 _atom_site_pbe_ddec_spin_density
 _atom_site_pbe_ddec_sum_bond_order
 _atom_site_pbe_magmom
Co  Co0  1  0.28362513  0.67410008  0.26964169  1  1.255147  2.565446  0.640826  0.943261  2.77746  2.390407  2.534
Co  Co1  1  0.01444545  0.73070333  0.40515302  1  1.257163  2.565528  0.640907  0.944159  2.778647  2.386061  2.535
Co  Co2  1  0.60936097  0.59505088  0.32584146  1  1.25411  2.564796  0.640746  0.943233  2.776002  2.387303  2.534
Co  Co3  1  0.71638452  0.32593327  0.73036872  1  1.255326  2.565398  0.6409  0.943389  2.777409  2.390491  2.534
Co  Co4  1  0.98558762  0.26934240  0.59486415  1  1.257338  2.565513  0.640995  0.944366  2.778561  2.386255  2.535
Co  Co5  1  0.39064618  0.40498868  0.67419085  1  1.25387  2.564795  0.640726  0.943234  2.775989  2.387895  2.534
H  H6  1  0.13546803  0.97421240  0.46018538  1  0.116619  0.000948  0.110358  0.134166  0.00025  1.015653  0.0
H  H7  1  0.67519779  0.53986543  0.51385551  1  0.12247  0.000908  0.110878  0.134924  0.000242  1.014192  0.0
H  H8  1  0.16125703  0.48608973  0.02577731  1  0.100781  0.000955  0.11035  0.134459  0.000242  1.014962  0.0
H  H9  1  0.86456723  0.02582327  0.53983257  1  0.116377  0.000949  0.110371  0.134223  0.000251  1.015818  0.0
H  H10  1  0.32489537  0.46021126  0.48619622  1  0.121663  0.00091  0.110948  0.135065  0.000242  1.013995  0.0
H  H11  1  0.83876335  0.51389876  0.97423087  1  0.100526  0.000956  0.110354  0.134509  0.000242  1.015034  0.0
H  H12  1  0.32772863  0.70926095  0.09486256  1  0.038575  0.000347  0.090851  0.084444  4.9e-05  1.035829  0.001
H  H13  1  0.23333243  0.90548439  0.61492186  1  0.033061  0.000355  0.090666  0.084192  4.4e-05  1.036188  0.001
H  H14  1  0.61735750  0.38542588  0.29081408  1  0.029588  0.000353  0.090677  0.084392  3.3e-05  1.036156  0.001
H  H15  1  0.67212792  0.29058979  0.90503880  1  0.040324  0.000349  0.090735  0.084279  5.1e-05  1.036263  0.001
H  H16  1  0.76670468  0.09451491  0.38507004  1  0.033173  0.000353  0.090622  0.084169  4.3e-05  1.036176  0.001
H  H17  1  0.38267766  0.61461830  0.70920252  1  0.029754  0.000353  0.090693  0.08449  3.3e-05  1.035883  0.001
H  H18  1  0.69941860  0.89195921  0.24525938  1  0.047243  4e-06  0.088762  0.12189  -7.3e-05  1.002423  0.0
H  H19  1  0.45416609  0.75478185  0.64671876  1  0.042376  -0.0  0.0886  0.121618  -7.8e-05  1.003903  0.0
H  H20  1  0.80640509  0.35320413  0.10816166  1  0.043269  -1e-06  0.088746  0.121528  -7.9e-05  1.002915  0.0
H  H21  1  0.30037040  0.10794880  0.75466512  1  0.050112  4e-06  0.088837  0.122247  -7.3e-05  1.002329  0.0
H  H22  1  0.54586444  0.24521589  0.35326335  1  0.04242  -0.0  0.088574  0.12155  -7.8e-05  1.003909  0.0
H  H23  1  0.19364773  0.64680059  0.89184513  1  0.043206  -1e-06  0.088768  0.121474  -7.9e-05  1.003088  0.0
H  H24  1  0.68755025  0.79792707  0.11651048  1  0.036664  -0.000387  0.089573  0.124098  -0.000368  1.007534  0.0
H  H25  1  0.57132920  0.88344572  0.68182471  1  0.041783  -0.000401  0.089916  0.125076  -0.000379  1.007405  0.0
H  H26  1  0.88826282  0.31812678  0.20180455  1  0.035784  -0.000401  0.08953  0.123488  -0.00038  1.00818  0.0
H  H27  1  0.31227707  0.20200027  0.88341780  1  0.036992  -0.000386  0.089582  0.124273  -0.000367  1.007391  0.0
H  H28  1  0.42872119  0.11654583  0.31815395  1  0.041547  -0.0004  0.089905  0.124868  -0.000379  1.007453  0.0
H  H29  1  0.11178785  0.68190504  0.79822858  1  0.035523  -0.000402  0.089552  0.123509  -0.00038  1.00795  0.0
H  H30  1  0.68846255  0.76154594  0.21166289  1  0.03962  -0.000171  0.085777  0.12144  -0.000446  1.042666  0.0
H  H31  1  0.47683715  0.78846799  0.55001831  1  0.055367  -0.000177  0.08641  0.123321  -0.000455  1.041977  0.0
H  H32  1  0.92604258  0.44987087  0.23878932  1  0.039049  -0.000177  0.085937  0.121696  -0.000451  1.042393  0.0
H  H33  1  0.31143329  0.23838371  0.78825678  1  0.040715  -0.000172  0.085635  0.121314  -0.000447  1.042872  0.0
H  H34  1  0.52318423  0.21153440  0.44996795  1  0.055075  -0.000176  0.086361  0.123147  -0.000454  1.042002  0.0
H  H35  1  0.07398792  0.55015243  0.76122187  1  0.039309  -0.000177  0.085892  0.121674  -0.000451  1.042385  0.0
H  H36  1  0.39707979  0.93562156  0.26294398  1  0.045996  0.000291  0.091834  0.084662  -0.000141  1.011287  0.0
H  H37  1  0.13432394  0.73732143  0.67266905  1  0.03526  0.000313  0.091996  0.085129  -0.000144  1.010572  0.0
H  H38  1  0.46091247  0.32763784  0.06465114  1  0.041702  0.000304  0.091923  0.084145  -0.00014  1.010831  0.0
H  H39  1  0.60268008  0.06422767  0.73698553  1  0.043535  0.000296  0.091757  0.084509  -0.00014  1.011224  0.0
H  H40  1  0.86578101  0.26273826  0.32740142  1  0.035775  0.00031  0.092061  0.085205  -0.000144  1.010497  0.0
H  H41  1  0.53910221  0.67235374  0.93534947  1  0.041923  0.000303  0.091941  0.08415  -0.00014  1.010965  0.0
H  H42  1  0.03197929  0.85201798  0.24009051  1  0.052302  0.001021  0.092955  0.133615  0.000184  1.00725  0.001
H  H43  1  0.79221262  0.76027271  0.61200064  1  0.055504  0.001037  0.092758  0.133194  0.000189  1.006391  0.001
H  H44  1  0.17951850  0.38870095  0.14809709  1  0.046122  0.001045  0.092158  0.131226  0.000187  1.007446  0.001
H  H45  1  0.96775982  0.14781958  0.75975467  1  0.050434  0.001017  0.093072  0.133793  0.000183  1.007093  0.001
H  H46  1  0.20785488  0.23979784  0.38809868  1  0.054539  0.001036  0.092669  0.13302  0.000189  1.006961  0.001
H  H47  1  0.82051457  0.61131306  0.85191393  1  0.045938  0.001046  0.092133  0.13119  0.000188  1.007525  0.001
H  H48  1  0.01701765  0.76225134  0.10910573  1  0.06141  -1.5e-05  0.089877  0.127285  -0.000125  1.006217  0.0
H  H49  1  0.90812271  0.89123087  0.65344890  1  0.038177  -1.9e-05  0.089738  0.126592  -0.000127  1.006553  0.0
H  H50  1  0.25338379  0.34724085  0.23761190  1  0.024768  -2.1e-05  0.08969  0.12599  -0.000127  1.007275  0.0
H  H51  1  0.98276123  0.23758543  0.89073597  1  0.063811  -1.5e-05  0.089961  0.127395  -0.000125  1.006528  0.0
H  H52  1  0.09200619  0.10882804  0.34661298  1  0.039554  -1.9e-05  0.089813  0.126679  -0.000127  1.006533  0.0
H  H53  1  0.74665770  0.65279869  0.76240697  1  0.024975  -2.1e-05  0.08963  0.125921  -0.000127  1.007363  0.0
H  H54  1  0.05007090  0.89681022  0.15191879  1  0.034598  0.000915  0.089674  0.121149  0.000364  0.991884  0.001
H  H55  1  0.89855283  0.84842765  0.74515319  1  0.024399  0.000935  0.089912  0.120646  0.000371  0.991462  0.001
H  H56  1  0.15214543  0.25557254  0.10293778  1  0.031999  0.000937  0.090206  0.120846  0.000374  0.991639  0.001
H  H57  1  0.94975647  0.10304282  0.84795576  1  0.034983  0.000909  0.089706  0.121128  0.000362  0.992122  0.001
H  H58  1  0.10163214  0.15166298  0.25492943  1  0.025357  0.000934  0.089898  0.120554  0.000371  0.991303  0.001
H  H59  1  0.84787599  0.74445233  0.89709930  1  0.03195  0.000939  0.090164  0.120746  0.000375  0.991579  0.001
C  C60  1  0.37006504  0.89819081  0.43849651  1  0.554607  0.013195  0.082529  0.310584  0.008132  4.074325  0.007
C  C61  1  0.93184969  0.56166274  0.45986781  1  0.6058  0.012939  0.082426  0.309465  0.008118  4.07137  0.007
C  C62  1  0.47199738  0.54021469  0.10188465  1  0.576552  0.013409  0.08418  0.313591  0.008288  4.072101  0.007
C  C63  1  0.62997761  0.10184254  0.56151227  1  0.553772  0.013208  0.082664  0.310696  0.00814  4.074289  0.007
C  C64  1  0.06822663  0.43839460  0.54017372  1  0.60303  0.012942  0.082422  0.309692  0.008111  4.071791  0.007
C  C65  1  0.52801481  0.45976605  0.89811736  1  0.577604  0.013404  0.084089  0.313485  0.008288  4.072312  0.007
C  C66  1  0.67809057  0.82734227  0.43083310  1  1.486686  -0.004057  0.227192  0.617452  -0.006231  4.110653  -0.004
C  C67  1  0.24759455  0.56938841  0.39694608  1  1.503922  -0.003827  0.224877  0.612111  -0.005998  4.11224  -0.003
C  C68  1  0.85078027  0.60321533  0.17279056  1  1.500203  -0.003737  0.225715  0.614082  -0.005859  4.108951  -0.003
C  C69  1  0.32194077  0.17271121  0.56920675  1  1.487679  -0.004068  0.227153  0.617454  -0.006241  4.110001  -0.004
C  C70  1  0.75245324  0.43066352  0.60309356  1  1.503834  -0.003819  0.225085  0.612413  -0.005996  4.112158  -0.003
C  C71  1  0.14923357  0.39677160  0.82721247  1  1.500533  -0.003741  0.2259  0.614234  -0.005863  4.108089  -0.003
C  C72  1  0.58141167  0.91358415  0.46184902  1  -0.042307  0.020352  -0.025018  -0.142461  0.010411  3.961808  0.014
C  C73  1  0.11989575  0.53830373  0.45203885  1  -0.052703  0.020386  -0.024474  -0.139326  0.010415  3.957239  0.014
C  C74  1  0.66783854  0.54804203  0.08646051  1  -0.046734  0.020688  -0.024045  -0.13775  0.010583  3.955231  0.015
C  C75  1  0.41861773  0.08645694  0.53817765  1  -0.041486  0.020347  -0.025185  -0.142461  0.01041  3.960976  0.014
C  C76  1  0.88018475  0.46175904  0.54801080  1  -0.053085  0.020401  -0.024368  -0.139256  0.010422  3.957073  0.014
C  C77  1  0.33219219  0.45196734  0.91354488  1  -0.046456  0.020701  -0.024015  -0.137829  0.010589  3.95505  0.015
C  C78  1  0.29605724  0.98579183  0.47821049  1  0.028467  0.022957  -0.094099  -0.196343  0.012138  3.942645  0.015
C  C79  1  0.81775449  0.52180289  0.50741571  1  -0.017202  0.022962  -0.095481  -0.199  0.012048  3.940744  0.015
C  C80  1  0.31037942  0.49255633  0.01426232  1  0.025245  0.023157  -0.095711  -0.201243  0.012204  3.94169  0.015
C  C81  1  0.70398634  0.01424616  0.52180648  1  0.029138  0.022963  -0.094317  -0.196639  0.012143  3.943616  0.015
C  C82  1  0.18233236  0.47826684  0.49263763  1  -0.014659  0.022968  -0.095625  -0.199105  0.012053  3.94073  0.015
C  C83  1  0.68963483  0.50743139  0.98574374  1  0.025914  0.023148  -0.095764  -0.201498  0.012202  3.942026  0.015
C  C84  1  0.41074017  0.78711319  0.15769724  1  -0.114822  0.002597  -0.114941  -0.101383  0.000352  4.054215  0.0
C  C85  1  0.25337423  0.84255602  0.62972555  1  -0.097256  0.002513  -0.114577  -0.100609  0.000263  4.052481  0.0
C  C86  1  0.62268466  0.37052595  0.21303821  1  -0.051434  0.002345  -0.11552  -0.103219  0.000265  4.054417  0.0
C  C87  1  0.58906039  0.21274298  0.84222317  1  -0.115106  0.002599  -0.114528  -0.100566  0.000355  4.05429  0.0
C  C88  1  0.74667801  0.15745334  0.37027938  1  -0.096629  0.002526  -0.1143  -0.100273  0.000271  4.052365  0.0
C  C89  1  0.37736896  0.62948884  0.78698259  1  -0.050958  0.002337  -0.115728  -0.103667  0.00026  4.054963  0.0
C  C90  1  0.63226993  0.81085846  0.18456810  1  -0.07521  -0.000173  -0.24805  -0.36674  -0.000603  4.031356  0.0
C  C91  1  0.44790252  0.81550880  0.62649417  1  -0.090444  -0.000181  -0.249683  -0.370648  -0.00061  4.033186  0.0
C  C92  1  0.82040736  0.37350089  0.18921565  1  -0.05571  -0.000182  -0.248023  -0.365467  -0.000606  4.032427  0.0
C  C93  1  0.36753190  0.18904953  0.81534606  1  -0.081537  -0.000172  -0.248084  -0.367436  -0.000602  4.031349  0.0
C  C94  1  0.55214209  0.18449126  0.37349068  1  -0.089574  -0.00018  -0.249665  -0.370111  -0.000609  4.032886  0.0
C  C95  1  0.17963129  0.62651854  0.81079896  1  -0.055197  -0.000181  -0.247993  -0.365239  -0.000606  4.032086  0.0
C  C96  1  0.31072814  0.85788759  0.20135257  1  -0.047084  0.023785  -0.098791  -0.035332  0.012463  4.009649  0.015
C  C97  1  0.10967760  0.79897939  0.65675558  1  -0.043149  0.024241  -0.098822  -0.036546  0.012706  4.008407  0.015
C  C98  1  0.45203176  0.34366652  0.14228280  1  -0.122976  0.0245  -0.097682  -0.033751  0.012757  4.007779  0.015
C  C99  1  0.68902355  0.14195698  0.79855898  1  -0.045385  0.0237  -0.098882  -0.035381  0.01242  4.010228  0.015
C  C100  1  0.89042714  0.20106559  0.34330142  1  -0.044096  0.024236  -0.098972  -0.037184  0.012705  4.008659  0.015
C  C101  1  0.54800604  0.65634826  0.85773289  1  -0.124434  0.024531  -0.097565  -0.033585  0.01277  4.008376  0.015
C  C102  1  0.09117256  0.84073329  0.17351657  1  -0.090208  -0.000137  -0.245484  -0.37383  -0.000569  4.034069  -0.001
C  C103  1  0.91801779  0.82685048  0.66742555  1  -0.065704  -0.000133  -0.24426  -0.3702  -0.000582  4.034204  -0.001
C  C104  1  0.24952837  0.33321084  0.15922771  1  -0.032871  -0.000138  -0.244881  -0.369068  -0.000585  4.033755  -0.001
C  C105  1  0.90859841  0.15909886  0.82634292  1  -0.089754  -0.000138  -0.245921  -0.374428  -0.000567  4.034982  -0.001
C  C106  1  0.08210999  0.17321462  0.33265171  1  -0.067701  -0.000133  -0.2443  -0.369828  -0.000582  4.034444  -0.001
C  C107  1  0.75050979  0.66680472  0.84078572  1  -0.032672  -0.000138  -0.244723  -0.368839  -0.000586  4.033714  -0.001
O  O108  1  0.23753764  0.80549991  0.37928704  1  -1.145015  0.169513  -0.344229  -0.583419  0.091311  2.635315  0.147
O  O109  1  0.85854200  0.62089820  0.42648337  1  -1.141285  0.16907  -0.343155  -0.58121  0.09108  2.633257  0.147
O  O110  1  0.43213068  0.57362010  0.19452635  1  -1.13467  0.169904  -0.344687  -0.584434  0.091611  2.637134  0.148
O  O111  1  0.76249243  0.19454272  0.62072650  1  -1.14485  0.169531  -0.344185  -0.583427  0.09131  2.635373  0.147
O  O112  1  0.14150593  0.37915683  0.57356102  1  -1.140627  0.16909  -0.343227  -0.581629  0.091098  2.63384  0.147
O  O113  1  0.56787403  0.42639469  0.80547971  1  -1.13647  0.169935  -0.344552  -0.584165  0.091618  2.637343  0.148
O  O114  1  0.56101924  0.73523429  0.38055687  1  -1.159555  0.11664  -0.314255  -0.589454  0.06046  2.673461  0.107
O  O115  1  0.18075866  0.61974679  0.35525068  1  -1.158819  0.117114  -0.313741  -0.588953  0.060695  2.677087  0.107
O  O116  1  0.82573491  0.64493224  0.26492703  1  -1.15684  0.11662  -0.313475  -0.588876  0.060311  2.673973  0.107
O  O117  1  0.43901927  0.26481376  0.61945979  1  -1.160022  0.116634  -0.314152  -0.589514  0.060462  2.673335  0.107
O  O118  1  0.81930186  0.38031056  0.64478973  1  -1.158226  0.117132  -0.314028  -0.589481  0.060717  2.677323  0.107
O  O119  1  0.17429407  0.35510265  0.73507092  1  -1.157352  0.11669  -0.313743  -0.589061  0.060351  2.674115  0.107
O  O120  1  0.86613108  0.84417905  0.45649939  1  -1.124677  0.066432  -0.295797  -0.535701  0.034722  2.338857  0.056
O  O121  1  0.40994611  0.54370914  0.38806660  1  -1.149477  0.066155  -0.29491  -0.533422  0.034523  2.338294  0.056
O  O122  1  0.02198375  0.61202648  0.15597521  1  -1.146604  0.066385  -0.295163  -0.534547  0.034701  2.338564  0.056
O  O123  1  0.13389008  0.15588837  0.54355813  1  -1.125046  0.066466  -0.295855  -0.535729  0.03474  2.339012  0.056
O  O124  1  0.59011059  0.45633739  0.61198836  1  -1.149272  0.066131  -0.294868  -0.533344  0.03451  2.338432  0.056
O  O125  1  0.97802007  0.38795194  0.84401983  1  -1.14657  0.06638  -0.295226  -0.534585  0.034699  2.338422  0.056
