# generated using pymatgen
data_Tb2CuH16C32(N2O13)2
_symmetry_space_group_name_H-M   'P 1'
_cell_length_a   9.82516728
_cell_length_b   10.25356153
_cell_length_c   11.00197373
_cell_angle_alpha   70.18637963
_cell_angle_beta   85.17429456
_cell_angle_gamma   71.32725932
_symmetry_Int_Tables_number   1
_chemical_formula_structural   Tb2CuH16C32(N2O13)2
_chemical_formula_sum   'Tb2 Cu1 H16 C32 N4 O26'
_cell_volume   987.49798173
_cell_formula_units_Z   1
loop_
 _symmetry_equiv_pos_site_id
 _symmetry_equiv_pos_as_xyz
  1  'x, y, z'
loop_
 _atom_site_type_symbol
 _atom_site_label
 _atom_site_symmetry_multiplicity
 _atom_site_fract_x
 _atom_site_fract_y
 _atom_site_fract_z
 _atom_site_occupancy
 _atom_site_hle17_ddec_charge
 _atom_site_hle17_ddec_spin_density
 _atom_site_hle17_ddec_sum_bond_order
 _atom_site_hle17_magmom
 _atom_site_hse06_10hf_ddec_charge
 _atom_site_hse06_10hf_ddec_spin_density
 _atom_site_hse06_10hf_ddec_sum_bond_order
 _atom_site_hse06_10hf_magmom
 _atom_site_hse06_ddec_charge
 _atom_site_hse06_ddec_spin_density
 _atom_site_hse06_ddec_sum_bond_order
 _atom_site_hse06_magmom
 _atom_site_pbe_cm5_charge
 _atom_site_pbe_ddec_charge
 _atom_site_pbe_ddec_spin_density
 _atom_site_pbe_ddec_sum_bond_order
 _atom_site_pbe_magmom
Tb  Tb0  1  0.40520358  0.90608064  0.41700064  1  2.288284  0.000727  1.621004  0.001  2.143709  0.000358  2.086263  0.0  2.265966  0.000508  1.905708  0.001  1.519136  2.107752  -4e-06  2.118111  0.0
Tb  Tb1  1  0.59479483  0.09391802  0.58300153  1  2.288289  0.000724  1.621021  0.001  2.14374  0.000359  2.08621  0.0  2.265969  0.000514  1.905718  0.001  1.519126  2.10778  -4e-06  2.118046  0.0
Cu  Cu2  1  0.50000040  0.50000042  0.49999974  1  1.123763  -0.709316  1.640549  -0.543  1.137635  -0.811957  2.031752  -0.68  1.225685  -0.87438  1.97093  -0.769  0.772021  1.078602  -0.76096  2.077592  -0.613
H  H3  1  0.91841309  0.86383204  0.48399163  1  0.134502  -0.000128  0.920723  0.0  0.139918  -0.000118  0.986382  0.0  0.144762  -6.1e-05  0.982005  0.0  0.12541  0.136187  -0.000115  0.990084  0.0
H  H4  1  0.08158567  0.13617211  0.51600335  1  0.134484  -0.000133  0.920762  0.0  0.139883  -0.000118  0.98644  0.0  0.144728  -6.1e-05  0.982063  0.0  0.125398  0.13615  -0.000115  0.990148  0.0
H  H5  1  0.80904332  0.46635624  0.66230959  1  0.124296  9.3e-05  0.948199  0.0  0.129535  0.000108  1.016714  0.0  0.133371  9.5e-05  1.012999  0.0  0.118296  0.12646  0.000106  1.01968  0.0
H  H6  1  0.19095578  0.53364681  0.33768661  1  0.124314  0.000117  0.948215  0.0  0.129557  0.000109  1.016705  0.0  0.133394  9.5e-05  1.012991  0.0  0.118326  0.126479  0.000106  1.019668  0.0
H  H7  1  0.25049269  0.45490215  0.65282533  1  0.134069  0.000298  0.953244  0.0  0.132714  0.000204  1.029667  0.0  0.137724  0.000229  1.024175  0.0  0.120125  0.129108  0.000158  1.033444  0.0
H  H8  1  0.74950642  0.54510089  0.34717178  1  0.134053  0.000306  0.953339  0.0  0.132708  0.000204  1.029755  0.0  0.137717  0.00023  1.024262  0.0  0.120121  0.129097  0.000159  1.033542  0.0
H  H9  1  0.46223083  0.87109309  0.97837843  1  0.135661  0.000136  0.903062  0.0  0.144606  1.6e-05  0.960514  0.0  0.148919  1.4e-05  0.956355  0.0  0.127366  0.141282  9e-06  0.963668  0.0
H  H10  1  0.53777200  0.12890448  0.02162283  1  0.135702  0.00014  0.903005  0.0  0.144626  1.6e-05  0.960494  0.0  0.148938  1.4e-05  0.956335  0.0  0.127368  0.1413  9e-06  0.963645  0.0
H  H11  1  0.34943488  0.48719545  0.20349469  1  0.125901  2.8e-05  0.95274  0.0  0.13099  -3.7e-05  1.019474  0.0  0.134615  -7e-06  1.01612  0.0  0.118771  0.128255  -6.3e-05  1.022022  0.0
H  H12  1  0.65056592  0.51280210  0.79651036  1  0.125883  2.8e-05  0.952822  0.0  0.13097  -3.8e-05  1.019551  0.0  0.134595  -7e-06  1.016198  0.0  0.118777  0.128237  -6.4e-05  1.022105  0.0
H  H13  1  0.29221826  0.64900215  0.78912743  1  0.137159  9.5e-05  0.934481  0.0  0.140965  -5.3e-05  1.001516  0.0  0.145427  -2e-05  0.997098  0.0  0.11978  0.137705  -3.3e-05  1.004697  0.0
H  H14  1  0.70778286  0.35099433  0.21087430  1  0.137185  8.1e-05  0.934448  0.0  0.140991  -5.4e-05  1.001486  0.0  0.145455  -2.1e-05  0.997063  0.0  0.119774  0.13773  -3.3e-05  1.004663  0.0
H  H15  1  0.22152172  0.17335629  0.18891728  1  0.451815  1e-06  0.828442  0.0  0.421042  3e-06  0.88915  0.0  0.432383  1e-06  0.872318  0.0  0.312455  0.41345  4e-06  0.900524  0.0
H  H16  1  0.77847771  0.82664237  0.81108390  1  0.451795  0.0  0.828477  0.0  0.421018  3e-06  0.889196  0.0  0.432358  1e-06  0.872364  0.0  0.312436  0.413422  4e-06  0.900575  0.0
H  H17  1  0.12533529  0.07330739  0.26418921  1  0.455663  -1.2e-05  0.793669  0.0  0.441164  -2.8e-05  0.834551  0.0  0.449465  -1.4e-05  0.822842  0.0  0.34025  0.435594  -2.3e-05  0.84256  0.0
H  H18  1  0.87466617  0.92668800  0.73581284  1  0.455733  -1.1e-05  0.793559  0.0  0.441138  -2.8e-05  0.834588  0.0  0.449439  -1.4e-05  0.822877  0.0  0.340245  0.435567  -2.4e-05  0.842598  0.0
C  C19  1  0.09561040  0.66761692  0.56105358  1  -0.064619  0.000123  3.722998  0.0  -0.039174  0.000272  3.959891  0.0  -0.05065  0.00025  3.981442  0.0  -0.009399  -0.031842  0.000246  3.945443  0.0
C  C20  1  0.90438869  0.33238615  0.43893989  1  -0.064564  0.000232  3.723229  0.0  -0.039107  0.000273  3.960073  0.0  -0.050581  0.000251  3.981625  0.0  -0.009367  -0.031775  0.000246  3.945629  0.0
C  C21  1  0.94943310  0.74687851  0.53591543  1  -0.026269  0.000671  3.613253  0.0  -0.072929  0.000229  3.871728  0.0  -0.066144  0.000275  3.885786  0.0  -0.05306  -0.078503  0.000228  3.863542  0.0
C  C22  1  0.05056497  0.25312454  0.46407994  1  -0.02622  0.000549  3.613349  0.0  -0.072872  0.000225  3.871811  0.0  -0.066098  0.000272  3.885875  0.0  -0.053031  -0.078448  0.000228  3.863626  0.0
C  C23  1  0.84603329  0.67476979  0.57041802  1  -0.053629  -0.000243  3.728392  0.0  -0.029068  -4.1e-05  3.966852  0.0  -0.039843  -6.3e-05  3.988323  0.0  -0.007688  -0.022074  -4.1e-05  3.952007  0.0
C  C24  1  0.15396715  0.32523218  0.42957569  1  -0.053794  -0.000137  3.728459  0.0  -0.029194  -3.9e-05  3.966895  0.0  -0.039956  -6.2e-05  3.988363  0.0  -0.007733  -0.022196  -4.1e-05  3.95204  0.0
C  C25  1  0.88743756  0.52502911  0.63764818  1  -0.076546  0.00047  3.687777  0.0  -0.117513  0.000246  3.945391  0.0  -0.112704  0.00027  3.96256  0.0  -0.062639  -0.118595  0.000307  3.932542  0.0
C  C26  1  0.11256187  0.47497285  0.36234743  1  -0.076479  0.00021  3.687855  0.0  -0.117425  0.000242  3.945438  0.0  -0.112624  0.000274  3.962613  0.0  -0.062663  -0.118505  0.000307  3.932572  0.0
C  C27  1  0.03161216  0.45083445  0.67122236  1  0.058719  -0.000135  3.695906  0.0  0.057342  -2.3e-05  3.94926  0.0  0.051875  -4.9e-05  3.97268  0.0  0.076541  0.060198  -3e-05  3.933258  0.0
C  C28  1  0.96838795  0.54916860  0.32877285  1  0.058689  -5.6e-05  3.695822  0.0  0.057278  -2.4e-05  3.949219  0.0  0.051805  -5e-05  3.97265  0.0  0.076552  0.060135  -3e-05  3.933208  0.0
C  C29  1  0.13799025  0.51830693  0.63104629  1  -0.053852  0.000559  3.642684  0.0  -0.092699  0.000429  3.900354  0.0  -0.08683  0.00049  3.914732  0.0  -0.056426  -0.094527  0.000473  3.889345  0.0
C  C30  1  0.86200681  0.48169613  0.36894916  1  -0.053863  0.0004  3.642703  0.0  -0.092717  0.000427  3.900375  0.0  -0.086848  0.000488  3.914758  0.0  -0.056435  -0.094543  0.000473  3.889364  0.0
C  C31  1  0.20203886  0.74622469  0.50536928  1  0.679619  0.000436  3.873206  -0.001  0.639297  -0.002231  4.155665  -0.004  0.676917  -0.002149  4.151512  -0.004  0.217084  0.612484  -0.001996  4.162278  -0.004
C  C32  1  0.79796362  0.25377400  0.49462802  1  0.679677  0.000422  3.873153  -0.001  0.639381  -0.002231  4.155582  -0.004  0.677001  -0.002149  4.151425  -0.004  0.2171  0.612557  -0.001996  4.162213  -0.004
C  C33  1  0.69336175  0.75459980  0.52741945  1  0.712474  2e-06  3.856528  0.0  0.668821  2e-05  4.138693  0.0  0.704528  1.7e-05  4.135602  0.0  0.223713  0.644536  5.5e-05  4.14553  0.0
C  C34  1  0.30663497  0.24540434  0.47257569  1  0.71244  -8e-06  3.856613  0.0  0.66872  1.9e-05  4.138845  0.0  0.70442  1.7e-05  4.135754  0.0  0.223655  0.644432  5.5e-05  4.145681  0.0
C  C35  1  0.38218236  0.76800908  0.87108129  1  -0.053325  0.000142  3.690683  0.0  -0.030885  -5e-06  3.932941  0.0  -0.041414  0.000268  3.954272  0.0  -0.005021  -0.024147  -0.000311  3.917682  0.0
C  C36  1  0.61781943  0.23198522  0.12892108  1  -0.053358  0.00015  3.690733  0.0  -0.030861  8e-06  3.932891  0.0  -0.041381  0.000274  3.954216  0.0  -0.005008  -0.024122  -0.000311  3.917631  0.0
C  C37  1  0.41894612  0.78351343  0.98492786  1  -0.011086  -0.002654  3.589326  -0.003  -0.058487  -0.001775  3.845576  -0.002  -0.052319  -0.001191  3.860672  -0.001  -0.047573  -0.061509  -0.002099  3.834481  -0.002
C  C38  1  0.58105501  0.21648305  0.01507478  1  -0.011146  -0.002677  3.589399  -0.003  -0.058556  -0.00178  3.845664  -0.002  -0.05239  -0.00119  3.860761  -0.001  -0.047613  -0.061574  -0.002098  3.834572  -0.002
C  C39  1  0.40607555  0.68293264  0.10505209  1  -0.049628  -0.008989  3.702544  -0.01  -0.025427  -0.004313  3.939734  -0.005  -0.037073  -0.002486  3.962234  -0.003  -0.005294  -0.017709  -0.005759  3.923962  -0.007
C  C40  1  0.59392218  0.31706492  0.89495139  1  -0.04963  -0.008975  3.702549  -0.01  -0.025448  -0.004312  3.939775  -0.005  -0.037095  -0.002489  3.962276  -0.003  -0.005278  -0.017734  -0.005759  3.924021  -0.007
C  C41  1  0.35262634  0.56997937  0.11143370  1  -0.078539  -0.001312  3.691098  -0.001  -0.120002  -0.000418  3.952808  0.0  -0.115294  -0.000326  3.970477  0.0  -0.066056  -0.12327  -0.000728  3.941082  -0.001
C  C42  1  0.64737276  0.43002038  0.88856716  1  -0.078466  -0.001321  3.691029  -0.001  -0.119924  -0.000421  3.952728  0.0  -0.115219  -0.000323  3.970404  0.0  -0.066041  -0.12319  -0.000728  3.941016  -0.001
C  C43  1  0.30512268  0.56416043  0.99855233  1  0.061786  0.001777  3.730936  0.001  0.047433  0.000451  3.987881  0.0  0.040656  0.000491  4.012789  0.0  0.074737  0.051886  0.000401  3.970987  0.0
C  C44  1  0.69487642  0.43583603  0.00145229  1  0.061796  0.001752  3.730918  0.001  0.047448  0.000465  3.987821  0.0  0.040671  0.000505  4.01273  0.0  0.074747  0.051904  0.000401  3.970927  0.0
C  C45  1  0.32096936  0.66023671  0.87748203  1  -0.067023  -0.003477  3.648948  -0.003  -0.106585  -0.001365  3.905312  -0.001  -0.101568  -0.000921  3.92118  -0.001  -0.060086  -0.109697  -0.001506  3.894269  -0.001
C  C46  1  0.67903211  0.33975868  0.12252093  1  -0.067031  -0.003443  3.648887  -0.003  -0.106619  -0.001376  3.905228  -0.001  -0.101601  -0.000925  3.921091  -0.001  -0.060076  -0.109725  -0.001506  3.894176  -0.001
C  C47  1  0.41734582  0.85946041  0.74043291  1  0.716976  -8.2e-05  3.852455  0.0  0.670465  -6.9e-05  4.144171  0.0  0.707071  -3.3e-05  4.137147  0.0  0.234444  0.646367  -9.1e-05  4.150458  0.0
C  C48  1  0.58265768  0.14053498  0.25956898  1  0.716903  -9.8e-05  3.852717  0.0  0.670421  -7e-05  4.14436  0.0  0.707014  -3.3e-05  4.137353  0.0  0.234392  0.646323  -9.1e-05  4.150648  0.0
C  C49  1  0.44968871  0.68694199  0.23124543  1  0.696106  0.006273  3.843047  0.006  0.656617  0.000487  4.133981  0.001  0.696209  0.000601  4.126014  0.001  0.233386  0.629689  -2.5e-05  4.14058  0.001
C  C50  1  0.55031142  0.31305775  0.76875718  1  0.696202  0.006237  3.84311  0.006  0.656696  0.000487  4.134085  0.001  0.69629  0.000603  4.126114  0.001  0.233437  0.629757  -2.5e-05  4.140701  0.001
N  N51  1  0.07261326  0.29345809  0.74547420  1  0.492823  -4.3e-05  3.92055  0.0  0.520723  -8e-06  4.223501  0.0  0.540884  1e-06  4.232795  0.0  0.055248  0.507294  -3e-06  4.216826  0.0
N  N52  1  0.92738484  0.70654823  0.25452197  1  0.492991  -6.2e-05  3.920493  0.0  0.520923  -7e-06  4.223404  0.0  0.541088  8e-06  4.232701  0.0  0.055331  0.507496  -3e-06  4.216729  0.0
N  N53  1  0.24154078  0.44990745  0.00890824  1  0.47671  2.9e-05  3.947284  0.0  0.537068  2e-05  4.195429  0.0  0.558648  2.2e-05  4.204357  0.0  0.063118  0.522565  2.2e-05  4.189793  0.0
N  N54  1  0.75846035  0.55008902  0.99109532  1  0.476591  -7e-06  3.94744  0.0  0.537026  1.9e-05  4.195474  0.0  0.558605  1.9e-05  4.204405  0.0  0.063128  0.522521  2.2e-05  4.189839  0.0
O  O55  1  0.33472719  0.67721198  0.49335760  1  -0.734802  -0.042875  2.228198  -0.061  -0.694008  -0.033006  2.518638  -0.051  -0.739342  -0.024346  2.506867  -0.041  -0.37201  -0.667191  -0.03938  2.52932  -0.057
O  O56  1  0.66527359  0.32278560  0.50664199  1  -0.734891  -0.042886  2.228101  -0.061  -0.694114  -0.03301  2.518531  -0.051  -0.739445  -0.024348  2.506761  -0.041  -0.37206  -0.667292  -0.039385  2.529216  -0.057
O  O57  1  0.16217381  0.88420815  0.46630312  1  -0.648948  -0.013409  1.949075  -0.017  -0.608864  -0.006714  2.183781  -0.009  -0.642499  -0.003049  2.173308  -0.005  -0.350579  -0.588598  -0.011998  2.189383  -0.016
O  O58  1  0.83782359  0.11579380  0.53369537  1  -0.64892  -0.013397  1.949075  -0.017  -0.608849  -0.006717  2.183755  -0.009  -0.64248  -0.003051  2.173282  -0.005  -0.350538  -0.588576  -0.012  2.189361  -0.016
O  O59  1  0.64119992  0.88923999  0.51754016  1  -0.819866  -3.6e-05  2.205297  0.0  -0.759252  6.7e-05  2.459336  0.0  -0.802505  6.1e-05  2.448651  0.0  -0.424399  -0.740573  1.1e-05  2.464602  0.0
O  O60  1  0.35879747  0.11076196  0.48245834  1  -0.819808  -3.8e-05  2.205274  0.0  -0.759177  6.8e-05  2.459362  0.0  -0.802433  6e-05  2.448686  0.0  -0.424364  -0.740503  1.1e-05  2.464631  0.0
O  O61  1  0.61797614  0.69028172  0.49633451  1  -0.70354  0.001117  2.043639  0.0  -0.674381  0.000953  2.316752  0.0  -0.707012  0.001189  2.302783  0.0  -0.356604  -0.657403  0.000682  2.327303  0.0
O  O62  1  0.38202362  0.30971916  0.50366050  1  -0.703502  0.001138  2.043659  0.0  -0.674345  0.000954  2.316839  0.0  -0.706983  0.001186  2.302908  0.0  -0.356572  -0.657363  0.000682  2.327379  0.0
O  O63  1  0.97375913  0.23939102  0.78429507  1  -0.363793  3e-06  1.704367  0.0  -0.35156  7e-06  1.895589  0.0  -0.363238  -5e-06  1.892484  0.0  -0.142876  -0.343429  3e-06  1.897793  0.0
O  O64  1  0.02624439  0.76061093  0.21570204  1  -0.363891  4.2e-05  1.704372  0.0  -0.351666  3e-06  1.895594  0.0  -0.363344  -6e-06  1.892489  0.0  -0.142929  -0.343531  3e-06  1.897794  0.0
O  O65  1  0.20222002  0.22452844  0.76320046  1  -0.325032  -1.8e-05  1.739888  0.0  -0.312254  -3.4e-05  1.93946  0.0  -0.322778  -3.9e-05  1.936003  0.0  -0.110104  -0.304768  -4.3e-05  1.942009  0.0
O  O66  1  0.79778253  0.77548003  0.23679924  1  -0.325078  -8e-06  1.739869  0.0  -0.31234  -3.2e-05  1.939457  0.0  -0.322861  -4e-05  1.935993  0.0  -0.110138  -0.304857  -4.3e-05  1.942012  0.0
O  O67  1  0.38452351  0.83411367  0.64351998  1  -0.714329  -0.00074  2.073686  -0.001  -0.664352  -0.000221  2.320322  0.0  -0.700171  -5.3e-05  2.309716  0.0  -0.385414  -0.645852  -0.0003  2.325331  0.0
O  O68  1  0.61547795  0.16588172  0.35648298  1  -0.714335  -0.00074  2.07384  -0.001  -0.66436  -0.00022  2.32043  0.0  -0.700178  -5.1e-05  2.309849  0.0  -0.385396  -0.645862  -0.0003  2.325442  0.0
O  O69  1  0.48153293  0.94974450  0.73871371  1  -0.705942  0.00016  2.023326  0.0  -0.66014  7.8e-05  2.27533  0.0  -0.69612  7.9e-05  2.261346  0.0  -0.39544  -0.641846  4.4e-05  2.281806  0.0
O  O70  1  0.51847091  0.05024979  0.26128941  1  -0.705892  0.000173  2.023403  0.0  -0.660115  8e-05  2.275408  0.0  -0.696094  7.8e-05  2.261425  0.0  -0.395413  -0.641821  4.4e-05  2.281888  0.0
O  O71  1  0.43591983  0.80667579  0.24589443  1  -0.677051  -0.000969  2.016637  -0.002  -0.634666  -0.000742  2.259977  -0.002  -0.669789  -9.2e-05  2.244625  -0.001  -0.366549  -0.617898  -0.00131  2.268231  -0.003
O  O72  1  0.56407929  0.19332722  0.75410723  1  -0.677078  -0.00096  2.016599  -0.002  -0.634689  -0.000742  2.259955  -0.002  -0.669805  -9.5e-05  2.244598  -0.001  -0.366603  -0.61791  -0.00131  2.268203  -0.003
O  O73  1  0.49678507  0.55848154  0.31513270  1  -0.607458  -0.083841  2.079079  -0.116  -0.592608  -0.04694  2.376054  -0.072  -0.635875  -0.032977  2.365016  -0.055  -0.319418  -0.563327  -0.056594  2.38437  -0.081
O  O74  1  0.50321914  0.44151820  0.68486959  1  -0.607459  -0.083833  2.079059  -0.116  -0.592608  -0.046941  2.376045  -0.072  -0.635878  -0.032976  2.365007  -0.055  -0.319378  -0.563319  -0.056592  2.38436  -0.081
O  O75  1  0.24446391  0.35714658  0.11824712  1  -0.3788  0.000207  1.816667  0.0  -0.361272  -3.6e-05  2.008799  0.0  -0.376651  -1.5e-05  2.004717  0.0  -0.123875  -0.351295  -3e-06  2.012127  0.0
O  O76  1  0.75553553  0.64285208  0.88175497  1  -0.378701  0.000147  1.816756  0.0  -0.361206  -3.1e-05  2.008871  0.0  -0.376585  -1.6e-05  2.004792  0.0  -0.12382  -0.351227  -3e-06  2.0122  0.0
O  O77  1  0.18789618  0.45058749  0.91092235  1  -0.331752  0.000316  1.775232  0.0  -0.33128  0.000175  1.966945  0.0  -0.342757  0.000191  1.963843  0.0  -0.121767  -0.324107  0.000137  1.96994  0.0
O  O78  1  0.81210191  0.54941225  0.08908133  1  -0.331776  0.000443  1.775273  0.0  -0.331337  0.000167  1.966961  0.0  -0.342811  0.000185  1.963858  0.0  -0.121846  -0.324159  0.000137  1.969949  0.0
O  O79  1  0.22144064  0.08193251  0.25706095  1  -0.898651  5.6e-05  1.866272  0.0  -0.853843  3.6e-05  2.044775  0.0  -0.879691  2.8e-05  2.007589  0.0  -0.623624  -0.841979  5e-05  2.066108  0.0
O  O80  1  0.77855576  0.91806611  0.74294684  1  -0.898693  5.8e-05  1.866183  0.0  -0.853793  3.5e-05  2.044752  0.0  -0.879637  2.7e-05  2.007567  0.0  -0.623597  -0.841926  5e-05  2.066086  0.0
