# generated using pymatgen
data_NiH22C24(NO7)2
_symmetry_space_group_name_H-M   'P 1'
_cell_length_a   7.20126552
_cell_length_b   8.30783229
_cell_length_c   10.75838787
_cell_angle_alpha   68.43588729
_cell_angle_beta   79.43374955
_cell_angle_gamma   77.25222981
_symmetry_Int_Tables_number   1
_chemical_formula_structural   NiH22C24(NO7)2
_chemical_formula_sum   'Ni1 H22 C24 N2 O14'
_cell_volume   580.11322039
_cell_formula_units_Z   1
loop_
 _symmetry_equiv_pos_site_id
 _symmetry_equiv_pos_as_xyz
  1  'x, y, z'
loop_
 _atom_site_type_symbol
 _atom_site_label
 _atom_site_symmetry_multiplicity
 _atom_site_fract_x
 _atom_site_fract_y
 _atom_site_fract_z
 _atom_site_occupancy
 _atom_site_hle17_bader_spin_density
 _atom_site_hle17_ddec_charge
 _atom_site_hle17_ddec_spin_density
 _atom_site_hle17_ddec_sum_bond_order
 _atom_site_hle17_magmom
 _atom_site_hse06_10hf_bader_spin_density
 _atom_site_hse06_10hf_ddec_charge
 _atom_site_hse06_10hf_ddec_spin_density
 _atom_site_hse06_10hf_ddec_sum_bond_order
 _atom_site_hse06_10hf_magmom
 _atom_site_hse06_bader_spin_density
 _atom_site_hse06_ddec_charge
 _atom_site_hse06_ddec_spin_density
 _atom_site_hse06_ddec_sum_bond_order
 _atom_site_hse06_magmom
 _atom_site_pbe_bader_spin_density
 _atom_site_pbe_cm5_charge
 _atom_site_pbe_ddec_charge
 _atom_site_pbe_ddec_spin_density
 _atom_site_pbe_ddec_sum_bond_order
 _atom_site_pbe_magmom
Ni  Ni0  1  0.50000857  0.49998810  0.50000020  1  0  0.633455  0  2.125978  0  0  0.603802  0  2.588512  0  0  0.693522  0  2.497986  0  0  0.564978  0.554323  0  2.645813  0
H  H1  1  0.02483289  0.89995638  0.23998965  1  0  0.411063  0  0.875078  0  0  0.378195  0  0.95553  0  0  0.391521  0  0.94024  0  0  0.306575  0.368819  0  0.966003  0
H  H2  1  0.97517311  0.10005890  0.76001165  1  0  0.410961  0  0.875246  0  0  0.378165  0  0.955536  0  0  0.391487  0  0.940268  0  0  0.30657  0.368792  0  0.966007  0
H  H3  1  0.77943970  0.49095351  0.17784432  1  0  0.119203  0  0.939402  0  0  0.125662  0  1.005912  0  0  0.129634  0  1.001788  0  0  0.117313  0.122523  0  1.00916  0
H  H4  1  0.22052823  0.50905424  0.82216808  1  0  0.119318  0  0.939304  0  0  0.125742  0  1.005828  0  0  0.129716  0  1.001705  0  0  0.117361  0.122605  0  1.009076  0
H  H5  1  0.48178425  0.01578898  0.89747542  1  0  0.392292  0  0.903997  0  0  0.35955  0  0.983133  0  0  0.372862  0  0.96924  0  0  0.30509  0.35023  0  0.992799  0
H  H6  1  0.51822208  0.98422509  0.10252153  1  0  0.392315  0  0.904053  0  0  0.359599  0  0.983148  0  0  0.372883  0  0.969305  0  0  0.305133  0.350293  0  0.99279  0
H  H7  1  0.62185720  0.68694843  0.77420433  1  0  0.118558  0  0.953617  0  0  0.124304  0  1.020454  0  0  0.128113  0  1.017576  0  0  0.114846  0.121488  0  1.022503  0
H  H8  1  0.37814824  0.31305639  0.22579523  1  0  0.118529  0  0.953595  0  0  0.124277  0  1.020399  0  0  0.128082  0  1.017525  0  0  0.114847  0.121458  0  1.022439  0
H  H9  1  0.87256987  0.14457225  0.94938455  1  0  0.113355  0  0.976959  0  0  0.117833  0  1.047193  0  0  0.122018  0  1.043092  0  0  0.111221  0.11474  0  1.050215  0
H  H10  1  0.12744451  0.85543658  0.05061939  1  0  0.113491  0  0.976831  0  0  0.117845  0  1.047185  0  0  0.12203  0  1.043084  0  0  0.111227  0.114749  0  1.050211  0
H  H11  1  0.89164183  0.35931014  0.50123483  1  0  0.399659  0  0.906949  0  0  0.368324  0  0.977493  0  0  0.378495  0  0.962009  0  0  0.281591  0.360848  0  0.988909  0
H  H12  1  0.10837092  0.64069354  0.49876326  1  0  0.399628  0  0.906999  0  0  0.368328  0  0.977478  0  0  0.378496  0  0.961999  0  0  0.281571  0.360851  0  0.988894  0
H  H13  1  0.93154029  0.34391242  0.35799970  1  0  0.407007  0  0.90061  0  0  0.380343  0  0.960449  0  0  0.390493  0  0.945337  0  0  0.282536  0.373227  0  0.97107  0
H  H14  1  0.06845593  0.65609623  0.64199617  1  0  0.406941  0  0.900699  0  0  0.380263  0  0.960568  0  0  0.390416  0  0.945453  0  0  0.282484  0.373145  0  0.971193  0
H  H15  1  0.41938914  0.24981020  0.69554555  1  0  0.316344  0  0.886786  0  0  0.304482  0  0.942861  0  0  0.310443  0  0.939908  0  0  0.307494  0.300509  0  0.945084  0
H  H16  1  0.58061344  0.75016839  0.30445217  1  0  0.316335  0  0.886809  0  0  0.304482  0  0.942883  0  0  0.310443  0  0.939934  0  0  0.307476  0.300506  0  0.945107  0
H  H17  1  0.24710888  0.33623770  0.59731760  1  0  0.323951  0  0.870215  0  0  0.313401  0  0.92398  0  0  0.319636  0  0.920403  0  0  0.306913  0.309039  0  0.92683  0
H  H18  1  0.75289690  0.66375288  0.40267370  1  0  0.323798  0  0.870395  0  0  0.313251  0  0.924167  0  0  0.319484  0  0.920595  0  0  0.306822  0.308897  0  0.927003  0
H  H19  1  0.18341494  0.19112877  0.46206872  1  0  0.107982  0  0.975816  0  0  0.118462  0  1.036617  0  0  0.121141  0  1.035142  0  0  0.105141  0.116548  0  1.037638  0
H  H20  1  0.81658839  0.80886060  0.53791575  1  0  0.108097  0  0.975689  0  0  0.118521  0  1.036527  0  0  0.121201  0  1.03505  0  0  0.105142  0.116584  0  1.037574  0
H  H21  1  0.72566963  0.05917941  0.62079918  1  0  0.115028  0  0.973974  0  0  0.117318  0  1.046231  0  0  0.120771  0  1.044059  0  0  0.101607  0.114905  0  1.047867  0
H  H22  1  0.27432429  0.94080041  0.37919456  1  0  0.114973  0  0.974092  0  0  0.117443  0  1.046147  0  0  0.1209  0  1.043966  0  0  0.101692  0.115022  0  1.047783  0
C  C23  1  0.91849668  0.15418227  0.18970158  1  0  0.660395  0  3.812254  0  0  0.608449  0  4.108015  0  0  0.641947  0  4.100136  0  0  0.236649  0.585743  0  4.112951  0
C  C24  1  0.08149797  0.84582605  0.81030850  1  0  0.66047  0  3.812029  0  0  0.608437  0  4.107872  0  0  0.641937  0  4.099991  0  0  0.236578  0.58574  0  4.112816  0
C  C25  1  0.83528594  0.30218980  0.07470322  1  0  -0.086594  0  3.756583  0  0  -0.060998  0  3.99763  0  0  -0.073412  0  4.021385  0  0  -0.016045  -0.05326  0  3.981957  0
C  C26  1  0.16471070  0.69781600  0.92530360  1  0  -0.086688  0  3.757096  0  0  -0.06091  0  3.99784  0  0  -0.073323  0  4.021592  0  0  -0.016051  -0.053182  0  3.982184  0
C  C27  1  0.77278413  0.46853813  0.08529126  1  0  -0.025316  0  3.65427  0  0  -0.067204  0  3.907057  0  0  -0.060191  0  3.923901  0  0  -0.057249  -0.071565  0  3.895778  0
C  C28  1  0.22719228  0.53146987  0.91471731  1  0  -0.025422  0  3.654347  0  0  -0.06731  0  3.907005  0  0  -0.0603  0  3.923849  0  0  -0.057273  -0.071671  0  3.895732  0
C  C29  1  0.69719420  0.60672674  0.97613876  1  0  -0.107852  0  3.794572  0  0  -0.082803  0  4.036674  0  0  -0.097086  0  4.062971  0  0  -0.020002  -0.073769  0  4.019105  0
C  C30  1  0.30279913  0.39328171  0.02386401  1  0  -0.107845  0  3.794864  0  0  -0.082833  0  4.036828  0  0  -0.097122  0  4.063131  0  0  -0.01998  -0.073799  0  4.019248  0
C  C31  1  0.61993913  0.78072362  0.98881352  1  0  0.665191  0  3.803393  0  0  0.609466  0  4.102915  0  0  0.643325  0  4.095765  0  0  0.243013  0.586534  0  4.107362  0
C  C32  1  0.38004714  0.21928463  0.01119198  1  0  0.665047  0  3.803578  0  0  0.609491  0  4.102868  0  0  0.64334  0  4.095725  0  0  0.242976  0.586568  0  4.107307  0
C  C33  1  0.68310066  0.57923917  0.85769561  1  0  -0.015292  0  3.635918  0  0  -0.055587  0  3.882588  0  0  -0.047921  0  3.89837  0  0  -0.055155  -0.0602  0  3.871911  0
C  C34  1  0.31688788  0.42076524  0.14230788  1  0  -0.015262  0  3.636129  0  0  -0.055514  0  3.882655  0  0  -0.047849  0  3.898436  0  0  -0.055115  -0.060116  0  3.87196  0
C  C35  1  0.74626623  0.41295736  0.84662219  1  0  -0.067826  0  3.728884  0  0  -0.04091  0  3.966226  0  0  -0.053749  0  3.98874  0  0  -0.010749  -0.032958  0  3.951568  0
C  C36  1  0.25372871  0.58704317  0.15338440  1  0  -0.067878  0  3.728906  0  0  -0.040909  0  3.966124  0  0  -0.053741  0  3.988618  0  0  -0.010783  -0.032979  0  3.951484  0
C  C37  1  0.72171484  0.38421094  0.72110259  1  0  0.655952  0  3.836093  0  0  0.60164  0  4.136578  0  0  0.641007  0  4.12844  0  0  0.224823  0.5746  0  4.142063  0
C  C38  1  0.27831440  0.61577465  0.27889851  1  0  0.655992  0  3.835607  0  0  0.601634  0  4.136116  0  0  0.641006  0  4.127974  0  0  0.224831  0.574601  0  4.141598  0
C  C39  1  0.82305988  0.27527646  0.95519832  1  0  -0.03733  0  3.639897  0  0  -0.081122  0  3.893163  0  0  -0.074377  0  3.908981  0  0  -0.066808  -0.085336  0  3.882671  0
C  C40  1  0.17694048  0.72473214  0.04480359  1  0  -0.037367  0  3.640052  0  0  -0.081117  0  3.893223  0  0  -0.07437  0  3.909031  0  0  -0.066791  -0.085328  0  3.882739  0
C  C41  1  0.44715426  0.14078617  0.54818168  1  0  0.256528  0  3.743336  0  0  0.249616  0  3.999938  0  0  0.253874  0  4.027161  0  0  0.078453  0.247224  0  3.981273  0
C  C42  1  0.55284623  0.85920310  0.45180502  1  0  0.25626  0  3.743567  0  0  0.249436  0  4.000014  0  0  0.253694  0  4.027239  0  0  0.078336  0.247045  0  3.981339  0
C  C43  1  0.32223301  0.10707817  0.47894484  1  0  -0.136628  0  3.722581  0  0  -0.159164  0  3.977107  0  0  -0.164029  0  4.001545  0  0  -0.093581  -0.155516  0  3.959799  0
C  C44  1  0.67775974  0.89290022  0.52105314  1  0  -0.136602  0  3.722645  0  0  -0.15903  0  3.976925  0  0  -0.16389  0  4.001355  0  0  -0.093478  -0.155367  0  3.959627  0
C  C45  1  0.62592660  0.03349110  0.56849641  1  0  -0.131998  0  3.711362  0  0  -0.157631  0  3.976875  0  0  -0.16293  0  4.000152  0  0  -0.093782  -0.153873  0  3.960798  0
C  C46  1  0.37406872  0.96648873  0.43149809  1  0  -0.1319  0  3.711422  0  0  -0.157682  0  3.976876  0  0  -0.162982  0  4.000155  0  0  -0.093849  -0.15392  0  3.960796  0
N  N47  1  0.39143622  0.28575418  0.59804184  1  0  -0.57522  0  3.205922  0  0  -0.546568  0  3.469526  0  0  -0.577172  0  3.467926  0  0  -0.601019  -0.528517  0  3.471554  0
N  N48  1  0.60856748  0.71422573  0.40195632  1  0  -0.574959  0  3.205982  0  0  -0.5464  0  3.469607  0  0  -0.577003  0  3.468007  0  0  -0.600858  -0.528357  0  3.471617  0
O  O49  1  0.96508603  0.17382279  0.28730970  1  0  -0.55147  0  1.978367  0  0  -0.498647  0  2.191037  0  0  -0.521163  0  2.184529  0  0  -0.272922  -0.483498  0  2.195411  0
O  O50  1  0.03490160  0.82618541  0.71269937  1  0  -0.55153  0  1.977988  0  0  -0.498692  0  2.190665  0  0  -0.52121  0  2.18416  0  0  -0.272928  -0.483537  0  2.195041  0
O  O51  1  0.94094866  0.99897542  0.17408611  1  0  -0.551128  0  2.118698  0  0  -0.498604  0  2.342586  0  0  -0.521032  0  2.326423  0  0  -0.330063  -0.48282  0  2.353035  0
O  O52  1  0.05905698  0.00102796  0.82591939  1  0  -0.551017  0  2.118971  0  0  -0.498554  0  2.34291  0  0  -0.520983  0  2.32676  0  0  -0.329969  -0.482758  0  2.353359  0
O  O53  1  0.61956747  0.81007457  0.09530087  1  0  -0.570436  0  2.022955  0  0  -0.513092  0  2.238765  0  0  -0.535487  0  2.22961  0  0  -0.28302  -0.497886  0  2.24487  0
O  O54  1  0.38043972  0.18993564  0.90469330  1  0  -0.570463  0  2.0227  0  0  -0.513181  0  2.23847  0  0  -0.53559  0  2.229306  0  0  -0.283066  -0.497974  0  2.244583  0
O  O55  1  0.54947901  0.89951779  0.88130704  1  0  -0.528413  0  2.14778  0  0  -0.47411  0  2.373996  0  0  -0.497335  0  2.362875  0  0  -0.312306  -0.458218  0  2.381262  0
O  O56  1  0.45052257  0.10049883  0.11868883  1  0  -0.528262  0  2.147915  0  0  -0.474128  0  2.37421  0  0  -0.497317  0  2.363105  0  0  -0.312327  -0.458262  0  2.381456  0
O  O57  1  0.82476267  0.25984042  0.68607942  1  0  -0.620199  0  2.033923  0  0  -0.556168  0  2.257432  0  0  -0.581329  0  2.244428  0  0  -0.295755  -0.539257  0  2.266479  0
O  O58  1  0.17525419  0.74016315  0.31392753  1  0  -0.620192  0  2.033363  0  0  -0.556209  0  2.256969  0  0  -0.581388  0  2.243976  0  0  -0.295746  -0.539264  0  2.265943  0
O  O59  1  0.58641328  0.49418669  0.65625199  1  0  -0.546892  0  2.175816  0  0  -0.500585  0  2.470518  0  0  -0.542309  0  2.45691  0  0  -0.294611  -0.473745  0  2.479423  0
O  O60  1  0.41359068  0.50579841  0.34374938  1  0  -0.546922  0  2.175789  0  0  -0.50054  0  2.470416  0  0  -0.542258  0  2.456805  0  0  -0.294589  -0.473712  0  2.47932  0
O  O61  1  0.93091170  0.42458891  0.40633522  1  0  -0.826646  0  1.799396  0  0  -0.785807  0  1.961559  0  0  -0.802564  0  1.930636  0  0  -0.602744  -0.773787  0  1.98344  0
O  O62  1  0.06909353  0.57541734  0.59365840  1  0  -0.826569  0  1.799463  0  0  -0.785754  0  1.961635  0  0  -0.802505  0  1.930692  0  0  -0.602678  -0.773726  0  1.983514  0
