# generated using pymatgen
data_CsH2C6(NO3)3
_symmetry_space_group_name_H-M   'P 1'
_cell_length_a   4.73995472
_cell_length_b   9.81337026
_cell_length_c   11.24253388
_cell_angle_alpha   90.00014670
_cell_angle_beta   89.99987230
_cell_angle_gamma   102.80803442
_symmetry_Int_Tables_number   1
_chemical_formula_structural   CsH2C6(NO3)3
_chemical_formula_sum   'Cs2 H4 C12 N6 O18'
_cell_volume   509.93389473
_cell_formula_units_Z   2
loop_
 _symmetry_equiv_pos_site_id
 _symmetry_equiv_pos_as_xyz
  1  'x, y, z'
loop_
 _atom_site_type_symbol
 _atom_site_label
 _atom_site_symmetry_multiplicity
 _atom_site_fract_x
 _atom_site_fract_y
 _atom_site_fract_z
 _atom_site_occupancy
 _atom_site_hle17_bader_spin_density
 _atom_site_hle17_ddec_charge
 _atom_site_hle17_ddec_spin_density
 _atom_site_hle17_ddec_sum_bond_order
 _atom_site_hle17_magmom
 _atom_site_hse06_10hf_bader_spin_density
 _atom_site_hse06_10hf_ddec_charge
 _atom_site_hse06_10hf_ddec_spin_density
 _atom_site_hse06_10hf_ddec_sum_bond_order
 _atom_site_hse06_10hf_magmom
 _atom_site_hse06_bader_spin_density
 _atom_site_hse06_ddec_charge
 _atom_site_hse06_ddec_spin_density
 _atom_site_hse06_ddec_sum_bond_order
 _atom_site_hse06_magmom
 _atom_site_pbe_bader_spin_density
 _atom_site_pbe_cm5_charge
 _atom_site_pbe_ddec_charge
 _atom_site_pbe_ddec_spin_density
 _atom_site_pbe_ddec_sum_bond_order
 _atom_site_pbe_magmom
Cs  Cs0  1  0.41584655  0.38980878  0.90736686  1  0  0.942082  0  0.509381  0  0  0.873879  0  0.741488  0  0  0.892273  0  0.716085  0  0  0.868377  0.859799  0  0.760481  0
Cs  Cs1  1  0.41584621  0.88980785  0.09263204  1  0  0.942086  0  0.509374  0  0  0.873893  0  0.741475  0  0  0.892276  0  0.716086  0  0  0.868375  0.859809  0  0.760467  0
H  H2  1  0.64186768  0.53586403  0.55145604  1  0  0.380316  0  0.902041  0  0  0.351726  0  0.975497  0  0  0.363966  0  0.963094  0  0  0.316638  0.343208  0  0.984078  0
H  H3  1  0.64186777  0.03586379  0.44854630  1  0  0.380386  0  0.901993  0  0  0.351795  0  0.975448  0  0  0.364034  0  0.963046  0  0  0.316666  0.343276  0  0.984028  0
H  H4  1  0.18370797  0.24295661  0.55240412  1  0  0.379863  0  0.903326  0  0  0.350983  0  0.97723  0  0  0.36323  0  0.964862  0  0  0.316948  0.342467  0  0.985792  0
H  H5  1  0.18370362  0.74295551  0.44759557  1  0  0.379868  0  0.903344  0  0  0.350999  0  0.977224  0  0  0.363245  0  0.964854  0  0  0.316972  0.342482  0  0.985784  0
C  C6  1  0.77509364  0.48216290  0.27960528  1  0  -0.166322  0  3.572368  0  0  -0.196659  0  3.843146  0  0  -0.210113  0  3.865806  0  0  0.049924  -0.185013  0  3.830907  0
C  C7  1  0.77510055  0.98216675  0.72039615  1  0  -0.166293  0  3.572316  0  0  -0.196626  0  3.843132  0  0  -0.210103  0  3.865788  0  0  0.049916  -0.184981  0  3.830892  0
C  C8  1  0.75688615  0.47696032  0.40355421  1  0  0.347499  0  3.775543  0  0  0.313781  0  4.064263  0  0  0.339053  0  4.070269  0  0  0.12045  0.297536  0  4.059192  0
C  C9  1  0.75688844  0.97696173  0.59644723  1  0  0.347456  0  3.775529  0  0  0.313704  0  4.0643  0  0  0.338979  0  4.070309  0  0  0.120431  0.297461  0  4.059226  0
C  C10  1  0.91366506  0.38953668  0.46743644  1  0  -0.146706  0  3.623881  0  0  -0.176037  0  3.895603  0  0  -0.190764  0  3.911683  0  0  0.070053  -0.16703  0  3.885533  0
C  C11  1  0.91366761  0.88953793  0.53256377  1  0  -0.146668  0  3.623902  0  0  -0.175977  0  3.895587  0  0  -0.190707  0  3.911666  0  0  0.070042  -0.166973  0  3.885514  0
C  C12  1  0.07136316  0.30209663  0.40413340  1  0  0.347844  0  3.776973  0  0  0.314156  0  4.065747  0  0  0.339454  0  4.071693  0  0  0.120682  0.297892  0  4.060692  0
C  C13  1  0.07136245  0.80209593  0.59586475  1  0  0.347828  0  3.777107  0  0  0.314124  0  4.065855  0  0  0.339423  0  4.071792  0  0  0.120704  0.297862  0  4.060799  0
C  C14  1  0.05527987  0.29688134  0.28014622  1  0  -0.165494  0  3.573195  0  0  -0.197109  0  3.843755  0  0  -0.210352  0  3.866258  0  0  0.050199  -0.185471  0  3.831549  0
C  C15  1  0.05527865  0.79688096  0.71985282  1  0  -0.165504  0  3.573275  0  0  -0.197116  0  3.843858  0  0  -0.210341  0  3.866359  0  0  0.050204  -0.185477  0  3.831652  0
C  C16  1  0.91561144  0.38948299  0.20996868  1  0  0.397921  0  3.871752  0  0  0.373061  0  4.152679  0  0  0.400463  0  4.156506  0  0  0.132322  0.354845  0  4.149087  0
C  C17  1  0.91561250  0.88948385  0.79003153  1  0  0.397957  0  3.871606  0  0  0.373033  0  4.152617  0  0  0.400433  0  4.156449  0  0  0.132292  0.354819  0  4.149026  0
N  N18  1  0.65772989  0.58495283  0.21758563  1  0  0.507007  0  3.958534  0  0  0.56421  0  4.21191  0  0  0.571479  0  4.246262  0  0  0.019725  0.547731  0  4.207675  0
N  N19  1  0.65772695  0.08495446  0.78241593  1  0  0.506923  0  3.958328  0  0  0.56418  0  4.211656  0  0  0.571511  0  4.245902  0  0  0.0197  0.547701  0  4.207423  0
N  N20  1  0.91277952  0.38957358  0.59033311  1  0  0.486999  0  3.881769  0  0  0.534544  0  4.143707  0  0  0.557509  0  4.154908  0  0  0.012318  0.519215  0  4.136313  0
N  N21  1  0.91278212  0.88957348  0.40966799  1  0  0.487009  0  3.881774  0  0  0.534582  0  4.143663  0  0  0.557548  0  4.154864  0  0  0.012392  0.519253  0  4.136261  0
N  N22  1  0.17393578  0.19424100  0.21857897  1  0  0.503138  0  3.960023  0  0  0.564913  0  4.211442  0  0  0.571871  0  4.246324  0  0  0.018916  0.548428  0  4.207208  0
N  N23  1  0.17393264  0.69424180  0.78141884  1  0  0.503041  0  3.96029  0  0  0.564862  0  4.211639  0  0  0.571781  0  4.246579  0  0  0.018884  0.548375  0  4.207411  0
O  O24  1  0.61225733  0.55578154  0.46328023  1  0  -0.450705  0  2.186672  0  0  -0.408504  0  2.421948  0  0  -0.428735  0  2.413234  0  0  -0.315108  -0.394407  0  2.427334  0
O  O25  1  0.61225361  0.05577837  0.53672130  1  0  -0.450774  0  2.186756  0  0  -0.40856  0  2.422051  0  0  -0.428793  0  2.413334  0  0  -0.315126  -0.394463  0  2.427438  0
O  O26  1  0.21495590  0.22324134  0.46434831  1  0  -0.450258  0  2.188832  0  0  -0.408154  0  2.425254  0  0  -0.428221  0  2.416205  0  0  -0.315204  -0.39406  0  2.430646  0
O  O27  1  0.21495075  0.72323941  0.53565041  1  0  -0.4503  0  2.188972  0  0  -0.40814  0  2.425299  0  0  -0.428223  0  2.416289  0  0  -0.315231  -0.394048  0  2.430693  0
O  O28  1  0.91622184  0.38940957  0.09908976  1  0  -0.534056  0  2.009647  0  0  -0.507041  0  2.242534  0  0  -0.52895  0  2.239339  0  0  -0.376083  -0.491212  0  2.244128  0
O  O29  1  0.91621642  0.88940649  0.90091045  1  0  -0.534059  0  2.009632  0  0  -0.507026  0  2.242564  0  0  -0.528932  0  2.239369  0  0  -0.376055  -0.491196  0  2.24416  0
O  O30  1  0.78188687  0.63835867  0.12529682  1  0  -0.394755  0  1.797523  0  0  -0.395593  0  2.011066  0  0  -0.400858  0  2.013439  0  0  -0.185644  -0.387721  0  2.015248  0
O  O31  1  0.78188188  0.13836156  0.87470562  1  0  -0.394675  0  1.797331  0  0  -0.395527  0  2.010844  0  0  -0.400824  0  2.013216  0  0  -0.185609  -0.387655  0  2.015028  0
O  O32  1  0.43643553  0.61861064  0.25780624  1  0  -0.381911  0  1.796028  0  0  -0.379719  0  2.012603  0  0  -0.386233  0  2.017216  0  0  -0.17831  -0.371332  0  2.015465  0
O  O33  1  0.43643398  0.11861009  0.74219382  1  0  -0.381923  0  1.796063  0  0  -0.379738  0  2.012598  0  0  -0.386272  0  2.017178  0  0  -0.178322  -0.371357  0  2.015473  0
O  O34  1  0.76554060  0.46131790  0.64905312  1  0  -0.415862  0  1.846467  0  0  -0.399175  0  2.066086  0  0  -0.414565  0  2.061931  0  0  -0.1825  -0.388545  0  2.069058  0
O  O35  1  0.76554010  0.96131970  0.35094739  1  0  -0.41589  0  1.846432  0  0  -0.399234  0  2.066036  0  0  -0.414624  0  2.061882  0  0  -0.182542  -0.388609  0  2.06902  0
O  O36  1  0.05914204  0.31788854  0.64957720  1  0  -0.413547  0  1.844394  0  0  -0.396962  0  2.063828  0  0  -0.412478  0  2.059822  0  0  -0.180616  -0.386311  0  2.066779  0
O  O37  1  0.05913809  0.81788719  0.35042099  1  0  -0.41351  0  1.844357  0  0  -0.396947  0  2.06378  0  0  -0.412461  0  2.059773  0  0  -0.180634  -0.386301  0  2.066738  0
O  O38  1  0.39471330  0.16065316  0.25944595  1  0  -0.379195  0  1.794674  0  0  -0.379438  0  2.011612  0  0  -0.385971  0  2.016636  0  0  -0.177015  -0.371019  0  2.014386  0
O  O39  1  0.39471199  0.66065282  0.74055246  1  0  -0.379141  0  1.794717  0  0  -0.379406  0  2.011654  0  0  -0.385925  0  2.016698  0  0  -0.177016  -0.370985  0  2.014431  0
O  O40  1  0.05149095  0.14092030  0.12592192  1  0  -0.39385  0  1.798244  0  0  -0.39687  0  2.011466  0  0  -0.402052  0  2.014037  0  0  -0.186071  -0.388999  0  2.015663  0
O  O41  1  0.05148653  0.64091925  0.87407588  1  0  -0.393825  0  1.798316  0  0  -0.396867  0  2.011525  0  0  -0.402034  0  2.014105  0  0  -0.186046  -0.388994  0  2.015726  0
