# generated using pymatgen
data_KGdH2C2SO9
_symmetry_space_group_name_H-M   'P 1'
_cell_length_a   6.58876656
_cell_length_b   8.56132935
_cell_length_c   13.51270246
_cell_angle_alpha   90.00027486
_cell_angle_beta   93.94372061
_cell_angle_gamma   90.00012064
_symmetry_Int_Tables_number   1
_chemical_formula_structural   KGdH2C2SO9
_chemical_formula_sum   'K4 Gd4 H8 C8 S4 O36'
_cell_volume   760.42773557
_cell_formula_units_Z   4
loop_
 _symmetry_equiv_pos_site_id
 _symmetry_equiv_pos_as_xyz
  1  'x, y, z'
loop_
 _atom_site_type_symbol
 _atom_site_label
 _atom_site_symmetry_multiplicity
 _atom_site_fract_x
 _atom_site_fract_y
 _atom_site_fract_z
 _atom_site_occupancy
 _atom_site_hle17_bader_spin_density
 _atom_site_hle17_ddec_charge
 _atom_site_hle17_ddec_spin_density
 _atom_site_hle17_ddec_sum_bond_order
 _atom_site_hle17_magmom
 _atom_site_hse06_10hf_bader_spin_density
 _atom_site_hse06_10hf_ddec_charge
 _atom_site_hse06_10hf_ddec_spin_density
 _atom_site_hse06_10hf_ddec_sum_bond_order
 _atom_site_hse06_10hf_magmom
 _atom_site_hse06_bader_spin_density
 _atom_site_hse06_ddec_charge
 _atom_site_hse06_ddec_spin_density
 _atom_site_hse06_ddec_sum_bond_order
 _atom_site_hse06_magmom
 _atom_site_pbe_bader_spin_density
 _atom_site_pbe_cm5_charge
 _atom_site_pbe_ddec_charge
 _atom_site_pbe_ddec_spin_density
 _atom_site_pbe_ddec_sum_bond_order
 _atom_site_pbe_magmom
K  K0  1  0.76475361  0.64802915  0.80246460  1  0  0.964851  0  0.431446  0  0  0.924848  0  0.602487  0  0  0.938787  0  0.581645  0  0  0.840872  0.914035  0  0.617652  0
K  K1  1  0.73523591  0.14803745  0.69753925  1  0  0.964878  0  0.431433  0  0  0.924866  0  0.60247  0  0  0.938799  0  0.581635  0  0  0.840866  0.914031  0  0.617674  0
K  K2  1  0.23524423  0.35198014  0.19752750  1  0  0.964874  0  0.431425  0  0  0.92484  0  0.602473  0  0  0.938769  0  0.581645  0  0  0.840881  0.914039  0  0.617618  0
K  K3  1  0.26476650  0.85196833  0.30246114  1  0  0.964863  0  0.431444  0  0  0.92488  0  0.602457  0  0  0.938815  0  0.581621  0  0  0.840887  0.914053  0  0.617655  0
Gd  Gd4  1  0.75466306  0.74497983  0.08461090  1  0  2.234754  0  1.776652  0  0  2.156471  0  2.121784  0  0  2.202319  0  2.075037  0  0  1.487501  2.11775  0  2.164123  0
Gd  Gd5  1  0.74533904  0.24497928  0.41539229  1  0  2.234746  0  1.776691  0  0  2.156357  0  2.121979  0  0  2.20236  0  2.074996  0  0  1.487512  2.117757  0  2.164162  0
Gd  Gd6  1  0.24533782  0.25502011  0.91538871  1  0  2.234728  0  1.7767  0  0  2.156465  0  2.121833  0  0  2.202331  0  2.075062  0  0  1.487502  2.117786  0  2.164119  0
Gd  Gd7  1  0.25466033  0.75502066  0.58460800  1  0  2.23477  0  1.776626  0  0  2.15639  0  2.121919  0  0  2.202381  0  2.074957  0  0  1.48752  2.117778  0  2.164122  0
H  H8  1  0.88637088  0.96050334  0.91712504  1  0  0.456469  0  0.832015  0  0  0.428419  0  0.890393  0  0  0.438436  0  0.875753  0  0  0.319961  0.421284  0  0.900806  0
H  H9  1  0.61362423  0.46050592  0.58287256  1  0  0.456463  0  0.832019  0  0  0.428414  0  0.890393  0  0  0.438435  0  0.875747  0  0  0.319964  0.421281  0  0.900804  0
H  H10  1  0.11362544  0.03949543  0.08287441  1  0  0.456427  0  0.832073  0  0  0.428377  0  0.890451  0  0  0.438394  0  0.875811  0  0  0.319949  0.421237  0  0.900873  0
H  H11  1  0.38637514  0.53949753  0.41712478  1  0  0.45644  0  0.832057  0  0  0.428395  0  0.890419  0  0  0.438416  0  0.875774  0  0  0.319969  0.421267  0  0.900822  0
H  H12  1  0.64737158  0.96533768  0.91408983  1  0  0.454104  0  0.838728  0  0  0.4246  0  0.899325  0  0  0.435652  0  0.883164  0  0  0.314527  0.416713  0  0.910837  0
H  H13  1  0.85262355  0.46534181  0.58591297  1  0  0.454078  0  0.838761  0  0  0.424544  0  0.899403  0  0  0.435599  0  0.883237  0  0  0.314508  0.416663  0  0.910906  0
H  H14  1  0.35262474  0.03466344  0.08590889  1  0  0.454092  0  0.838743  0  0  0.424579  0  0.899355  0  0  0.435632  0  0.883194  0  0  0.314509  0.416693  0  0.910867  0
H  H15  1  0.14737581  0.53465930  0.41408511  1  0  0.454025  0  0.83883  0  0  0.424485  0  0.899483  0  0  0.435541  0  0.883316  0  0  0.314486  0.416605  0  0.910988  0
C  C16  1  0.63347745  0.04128462  0.21895887  1  0  0.582822  0  3.93321  0  0  0.534654  0  4.239845  0  0  0.565359  0  4.228188  0  0  0.212865  0.513698  0  4.246921  0
C  C17  1  0.86653767  0.54127047  0.28104413  1  0  0.583011  0  3.932863  0  0  0.53466  0  4.239871  0  0  0.565363  0  4.228215  0  0  0.212812  0.513674  0  4.246983  0
C  C18  1  0.36652040  0.95871766  0.78104359  1  0  0.582997  0  3.932966  0  0  0.534759  0  4.239663  0  0  0.565466  0  4.228007  0  0  0.212905  0.5138  0  4.246744  0
C  C19  1  0.13347539  0.45872480  0.71895514  1  0  0.582909  0  3.932899  0  0  0.534596  0  4.239835  0  0  0.5653  0  4.228181  0  0  0.212846  0.513635  0  4.246908  0
C  C20  1  0.86593871  0.03633585  0.23137011  1  0  0.577058  0  3.947228  0  0  0.529756  0  4.254469  0  0  0.560703  0  4.242125  0  0  0.207756  0.508638  0  4.262025  0
C  C21  1  0.63407639  0.53632826  0.26863732  1  0  0.577163  0  3.946483  0  0  0.529844  0  4.253843  0  0  0.560787  0  4.241508  0  0  0.207888  0.508729  0  4.261407  0
C  C22  1  0.13406065  0.96366059  0.76863167  1  0  0.57698  0  3.947234  0  0  0.5298  0  4.254312  0  0  0.560745  0  4.24197  0  0  0.207799  0.508687  0  4.261862  0
C  C23  1  0.36593515  0.46367286  0.73136560  1  0  0.577101  0  3.947031  0  0  0.52979  0  4.25435  0  0  0.560732  0  4.242019  0  0  0.207796  0.508684  0  4.261893  0
S  S24  1  0.23454536  0.66403858  0.97410070  1  0  1.700569  0  5.752109  0  0  1.585986  0  6.289348  0  0  1.643923  0  6.247987  0  0  0.606727  1.545562  0  6.316192  0
S  S25  1  0.26545554  0.16404213  0.52590249  1  0  1.700672  0  5.751936  0  0  1.586059  0  6.289215  0  0  1.644004  0  6.247853  0  0  0.606792  1.545651  0  6.316029  0
S  S26  1  0.76545248  0.33596136  0.02589807  1  0  1.700658  0  5.752105  0  0  1.586002  0  6.289436  0  0  1.643934  0  6.248077  0  0  0.606739  1.545585  0  6.316266  0
S  S27  1  0.73454231  0.83595664  0.47409850  1  0  1.700659  0  5.75163  0  0  1.586057  0  6.288897  0  0  1.644001  0  6.247536  0  0  0.606838  1.545656  0  6.315706  0
O  O28  1  0.43940557  0.73530578  0.99314644  1  0  -0.812057  0  2.001199  0  0  -0.76226  0  2.271676  0  0  -0.784481  0  2.252575  0  0  -0.430424  -0.745687  0  2.284434  0
O  O29  1  0.06059405  0.23530887  0.50685914  1  0  -0.812137  0  2.00132  0  0  -0.762265  0  2.271733  0  0  -0.784507  0  2.252622  0  0  -0.430423  -0.745696  0  2.284466  0
O  O30  1  0.56059227  0.26469650  0.00685232  1  0  -0.812049  0  2.001167  0  0  -0.762278  0  2.271717  0  0  -0.784498  0  2.252613  0  0  -0.430441  -0.745707  0  2.284465  0
O  O31  1  0.93940836  0.76468990  0.49314200  1  0  -0.812095  0  2.001166  0  0  -0.762244  0  2.271622  0  0  -0.784485  0  2.252511  0  0  -0.430451  -0.745676  0  2.284357  0
O  O32  1  0.76821214  0.90576885  0.94204462  1  0  -0.939748  0  1.875309  0  0  -0.903709  0  2.07885  0  0  -0.922257  0  2.045223  0  0  -0.680176  -0.889761  0  2.102663  0
O  O33  1  0.73178735  0.40577260  0.55795518  1  0  -0.939733  0  1.875333  0  0  -0.90367  0  2.078931  0  0  -0.922248  0  2.0453  0  0  -0.680162  -0.889736  0  2.102726  0
O  O34  1  0.23178418  0.09422875  0.05795483  1  0  -0.939694  0  1.875333  0  0  -0.90367  0  2.078903  0  0  -0.92222  0  2.045279  0  0  -0.68015  -0.889727  0  2.102717  0
O  O35  1  0.26821201  0.59423085  0.44204215  1  0  -0.93965  0  1.875346  0  0  -0.903617  0  2.079017  0  0  -0.922188  0  2.045374  0  0  -0.680152  -0.889684  0  2.102814  0
O  O36  1  0.16410127  0.68674255  0.86928174  1  0  -0.769904  0  1.946299  0  0  -0.721318  0  2.204642  0  0  -0.745785  0  2.190775  0  0  -0.397025  -0.703519  0  2.213187  0
O  O37  1  0.33589819  0.18674350  0.63072368  1  0  -0.769966  0  1.94614  0  0  -0.721301  0  2.204358  0  0  -0.745759  0  2.190479  0  0  -0.397008  -0.703495  0  2.212889  0
O  O38  1  0.83589657  0.31326207  0.13071628  1  0  -0.770079  0  1.94655  0  0  -0.721312  0  2.204739  0  0  -0.745772  0  2.190867  0  0  -0.397036  -0.703515  0  2.21328  0
O  O39  1  0.66409965  0.81325762  0.36927656  1  0  -0.769931  0  1.946118  0  0  -0.721289  0  2.204369  0  0  -0.745747  0  2.190494  0  0  -0.397023  -0.703491  0  2.212909  0
O  O40  1  0.09328878  0.73951272  0.04094311  1  0  -0.818278  0  2.022368  0  0  -0.767776  0  2.292529  0  0  -0.789305  0  2.272442  0  0  -0.427423  -0.75165  0  2.305891  0
O  O41  1  0.40671551  0.23951625  0.45906125  1  0  -0.818265  0  2.022345  0  0  -0.767757  0  2.292529  0  0  -0.789309  0  2.272431  0  0  -0.427404  -0.75165  0  2.30589  0
O  O42  1  0.90671059  0.26048606  0.95905496  1  0  -0.818295  0  2.022295  0  0  -0.767805  0  2.292486  0  0  -0.789338  0  2.272401  0  0  -0.42746  -0.75169  0  2.30585  0
O  O43  1  0.59328081  0.76048603  0.54094042  1  0  -0.81834  0  2.022389  0  0  -0.767826  0  2.292586  0  0  -0.789376  0  2.272486  0  0  -0.427455  -0.751719  0  2.305945  0
O  O44  1  0.24428361  0.49280242  0.99788739  1  0  -0.882027  0  2.044771  0  0  -0.840686  0  2.329213  0  0  -0.862685  0  2.309094  0  0  -0.46828  -0.823969  0  2.342316  0
O  O45  1  0.25571229  0.99280352  0.50211515  1  0  -0.882083  0  2.04479  0  0  -0.840752  0  2.329286  0  0  -0.862772  0  2.309158  0  0  -0.468342  -0.824041  0  2.342382  0
O  O46  1  0.75571575  0.50719752  0.00210920  1  0  -0.882046  0  2.044879  0  0  -0.840645  0  2.329206  0  0  -0.862638  0  2.309087  0  0  -0.468225  -0.823922  0  2.342308  0
O  O47  1  0.74428860  0.00719759  0.49788594  1  0  -0.882049  0  2.044597  0  0  -0.840716  0  2.32908  0  0  -0.862738  0  2.308952  0  0  -0.468302  -0.824004  0  2.342169  0
O  O48  1  0.54962021  0.95090590  0.15311563  1  0  -0.684614  0  2.10718  0  0  -0.636106  0  2.346897  0  0  -0.660039  0  2.336676  0  0  -0.377034  -0.618839  0  2.353603  0
O  O49  1  0.95038713  0.45089814  0.34687948  1  0  -0.684628  0  2.107361  0  0  -0.635992  0  2.347088  0  0  -0.659945  0  2.336871  0  0  -0.376973  -0.618743  0  2.353815  0
O  O50  1  0.45037612  0.04909522  0.84688530  1  0  -0.684671  0  2.107097  0  0  -0.636157  0  2.34687  0  0  -0.660081  0  2.33662  0  0  -0.37705  -0.618903  0  2.353587  0
O  O51  1  0.04961375  0.54909947  0.65312234  1  0  -0.684571  0  2.10722  0  0  -0.636006  0  2.347044  0  0  -0.659957  0  2.336828  0  0  -0.376981  -0.618767  0  2.353761  0
O  O52  1  0.95313003  0.95156621  0.16953342  1  0  -0.706621  0  2.150475  0  0  -0.65917  0  2.395971  0  0  -0.682436  0  2.385007  0  0  -0.414587  -0.642471  0  2.403251  0
O  O53  1  0.54687732  0.45156238  0.33047427  1  0  -0.706686  0  2.150447  0  0  -0.659188  0  2.395951  0  0  -0.682473  0  2.384988  0  0  -0.414574  -0.642515  0  2.403241  0
O  O54  1  0.04686477  0.04843490  0.83046820  1  0  -0.706622  0  2.150429  0  0  -0.659201  0  2.395867  0  0  -0.68247  0  2.384902  0  0  -0.414631  -0.642513  0  2.403152  0
O  O55  1  0.45312204  0.54843523  0.66952454  1  0  -0.706672  0  2.150459  0  0  -0.659166  0  2.395958  0  0  -0.682449  0  2.384995  0  0  -0.414579  -0.642496  0  2.403244  0
O  O56  1  0.54148883  0.13127546  0.27455698  1  0  -0.687542  0  2.092174  0  0  -0.654447  0  2.34509  0  0  -0.676983  0  2.335916  0  0  -0.405194  -0.638264  0  2.351045  0
O  O57  1  0.95852354  0.63126453  0.22544620  1  0  -0.687628  0  2.091774  0  0  -0.654494  0  2.344796  0  0  -0.677007  0  2.335619  0  0  -0.405242  -0.638284  0  2.350773  0
O  O58  1  0.45850902  0.86872098  0.72544770  1  0  -0.687579  0  2.091935  0  0  -0.6545  0  2.344969  0  0  -0.677039  0  2.335797  0  0  -0.405211  -0.638305  0  2.350907  0
O  O59  1  0.04148343  0.36872607  0.77455509  1  0  -0.687649  0  2.091739  0  0  -0.6545  0  2.344725  0  0  -0.677019  0  2.335554  0  0  -0.405285  -0.638308  0  2.350695  0
O  O60  1  0.95447534  0.11113648  0.30224698  1  0  -0.669738  0  2.069209  0  0  -0.639213  0  2.320965  0  0  -0.661203  0  2.311068  0  0  -0.390077  -0.623516  0  2.327591  0
O  O61  1  0.54553239  0.61113873  0.19775377  1  0  -0.669926  0  2.068774  0  0  -0.639355  0  2.320489  0  0  -0.661321  0  2.310598  0  0  -0.390204  -0.623625  0  2.327101  0
O  O62  1  0.04552098  0.88886229  0.69775469  1  0  -0.669795  0  2.069281  0  0  -0.639252  0  2.32091  0  0  -0.661239  0  2.311014  0  0  -0.390101  -0.62355  0  2.327525  0
O  O63  1  0.45447458  0.38886472  0.80224678  1  0  -0.669792  0  2.069057  0  0  -0.639251  0  2.320811  0  0  -0.66122  0  2.31092  0  0  -0.390092  -0.623537  0  2.327428  0
