# generated using pymatgen
data_ZnH4C6N2O5
_symmetry_space_group_name_H-M   'P 1'
_cell_length_a   9.39438652
_cell_length_b   9.40290740
_cell_length_c   11.50536959
_cell_angle_alpha   107.31931919
_cell_angle_beta   107.26018480
_cell_angle_gamma   105.80731290
_symmetry_Int_Tables_number   1
_chemical_formula_structural   ZnH4C6N2O5
_chemical_formula_sum   'Zn4 H16 C24 N8 O20'
_cell_volume   850.93061349
_cell_formula_units_Z   4
loop_
 _symmetry_equiv_pos_site_id
 _symmetry_equiv_pos_as_xyz
  1  'x, y, z'
loop_
 _atom_site_type_symbol
 _atom_site_label
 _atom_site_symmetry_multiplicity
 _atom_site_fract_x
 _atom_site_fract_y
 _atom_site_fract_z
 _atom_site_occupancy
 _atom_site_hle17_bader_spin_density
 _atom_site_hle17_ddec_charge
 _atom_site_hle17_ddec_spin_density
 _atom_site_hle17_ddec_sum_bond_order
 _atom_site_hle17_magmom
 _atom_site_hse06_10hf_bader_spin_density
 _atom_site_hse06_10hf_ddec_charge
 _atom_site_hse06_10hf_ddec_spin_density
 _atom_site_hse06_10hf_ddec_sum_bond_order
 _atom_site_hse06_10hf_magmom
 _atom_site_hse06_bader_spin_density
 _atom_site_hse06_ddec_charge
 _atom_site_hse06_ddec_spin_density
 _atom_site_hse06_ddec_sum_bond_order
 _atom_site_hse06_magmom
 _atom_site_pbe_bader_spin_density
 _atom_site_pbe_cm5_charge
 _atom_site_pbe_ddec_charge
 _atom_site_pbe_ddec_spin_density
 _atom_site_pbe_ddec_sum_bond_order
 _atom_site_pbe_magmom
Zn  Zn0  1  0.23090433  0.85519409  0.09400365  1  0  1.031887  0  1.794743  0  0  0.84377  0  2.253564  0  0  0.889106  0  2.202101  0  0  0.720371  0.812089  0  2.289072  0
Zn  Zn1  1  0.76109201  0.13717074  0.90583922  1  0  1.030961  0  1.795494  0  0  0.843255  0  2.254441  0  0  0.88854  0  2.202998  0  0  0.720502  0.811631  0  2.289963  0
Zn  Zn2  1  0.88771749  0.01220366  0.40596248  1  0  1.031181  0  1.794026  0  0  0.843343  0  2.252842  0  0  0.888725  0  2.20139  0  0  0.720108  0.811649  0  2.288369  0
Zn  Zn3  1  0.60641922  0.48186835  0.59405777  1  0  1.030889  0  1.795527  0  0  0.842701  0  2.254199  0  0  0.888039  0  2.202747  0  0  0.719783  0.811026  0  2.289697  0
H  H4  1  0.20537088  0.08474481  0.74786068  1  0  0.390745  0  0.905084  0  0  0.357693  0  0.987818  0  0  0.37063  0  0.973692  0  0  0.296408  0.348674  0  0.996953  0
H  H5  1  0.33730898  0.45765164  0.25166187  1  0  0.390523  0  0.904105  0  0  0.357718  0  0.986519  0  0  0.37067  0  0.973193  0  0  0.296314  0.348682  0  0.995678  0
H  H6  1  0.20878170  0.58761716  0.75253808  1  0  0.390236  0  0.905054  0  0  0.357617  0  0.987026  0  0  0.370561  0  0.973658  0  0  0.296444  0.348581  0  0.99619  0
H  H7  1  0.83634107  0.45700922  0.24809864  1  0  0.392602  0  0.902841  0  0  0.3591  0  0.986258  0  0  0.372051  0  0.971907  0  0  0.296765  0.350083  0  0.995408  0
H  H8  1  0.74603906  0.15733469  0.27437651  1  0  0.389878  0  0.907069  0  0  0.357347  0  0.985832  0  0  0.369411  0  0.972811  0  0  0.298024  0.348846  0  0.994968  0
H  H9  1  0.88266407  0.47088532  0.72593792  1  0  0.390027  0  0.906582  0  0  0.356605  0  0.98674  0  0  0.368639  0  0.973822  0  0  0.297946  0.348127  0  0.995809  0
H  H10  1  0.22063433  0.13205250  0.22532416  1  0  0.389738  0  0.906189  0  0  0.356375  0  0.986393  0  0  0.368429  0  0.973434  0  0  0.298009  0.347892  0  0.995471  0
H  H11  1  0.90591262  0.99464037  0.77422015  1  0  0.388575  0  0.908403  0  0  0.356489  0  0.986601  0  0  0.368455  0  0.973728  0  0  0.29799  0.348036  0  0.995653  0
H  H12  1  0.60362464  0.81284435  0.11169760  1  0  0.086539  0  0.905468  0  0  0.098707  0  0.963295  0  0  0.09956  0  0.962603  0  0  0.112685  0.098026  0  0.963991  0
H  H13  1  0.70041872  0.49149265  0.88836767  1  0  0.087055  0  0.905305  0  0  0.098712  0  0.96356  0  0  0.099564  0  0.962754  0  0  0.112699  0.098073  0  0.964176  0
H  H14  1  0.24386806  0.95180422  0.38913022  1  0  0.08658  0  0.904345  0  0  0.098215  0  0.96301  0  0  0.099081  0  0.962196  0  0  0.112796  0.097568  0  0.963616  0
H  H15  1  0.56170539  0.85373759  0.61071712  1  0  0.086509  0  0.904324  0  0  0.098372  0  0.962364  0  0  0.099223  0  0.961586  0  0  0.1129  0.097699  0  0.963073  0
H  H16  1  0.76387648  0.93837800  0.08733908  1  0  0.099158  0  0.926253  0  0  0.108334  0  0.987867  0  0  0.110725  0  0.985182  0  0  0.11411  0.10656  0  0.989979  0
H  H17  1  0.85009145  0.67611002  0.91264366  1  0  0.099279  0  0.925833  0  0  0.108435  0  0.987346  0  0  0.110782  0  0.984587  0  0  0.114082  0.106667  0  0.989478  0
H  H18  1  0.42742782  0.10180118  0.41204265  1  0  0.098758  0  0.925317  0  0  0.108032  0  0.987187  0  0  0.110374  0  0.98447  0  0  0.11383  0.106246  0  0.989309  0
H  H19  1  0.68806325  0.01434995  0.58738061  1  0  0.098172  0  0.926809  0  0  0.108475  0  0.987049  0  0  0.110809  0  0.984319  0  0  0.114233  0.10671  0  0.989184  0
C  C20  1  0.14875712  0.96620877  0.88723337  1  0  0.634078  0  3.91896  0  0  0.579927  0  4.218629  0  0  0.613953  0  4.210774  0  0  0.214487  0.556877  0  4.223227  0
C  C21  1  0.07933568  0.26173593  0.11235591  1  0  0.633344  0  3.920737  0  0  0.578849  0  4.220329  0  0  0.612875  0  4.212504  0  0  0.213674  0.55581  0  4.224846  0
C  C22  1  0.01274273  0.32995870  0.61305572  1  0  0.63444  0  3.91936  0  0  0.580558  0  4.218504  0  0  0.614641  0  4.21065  0  0  0.214473  0.557483  0  4.22304  0
C  C23  1  0.71815365  0.40042247  0.38741131  1  0  0.636247  0  3.915864  0  0  0.581995  0  4.215186  0  0  0.616114  0  4.207314  0  0  0.215137  0.558908  0  4.219788  0
C  C24  1  0.32251913  0.99776027  0.93062354  1  0  0.005203  0  3.81644  0  0  -0.007532  0  4.077565  0  0  -0.007915  0  4.097712  0  0  0.072365  -0.007331  0  4.064093  0
C  C25  1  0.06722043  0.39213567  0.06928290  1  0  0.00341  0  3.818138  0  0  -0.007734  0  4.078011  0  0  -0.008101  0  4.098148  0  0  0.07278  -0.007553  0  4.064464  0
C  C26  1  0.14329471  0.31786729  0.56989550  1  0  0.004702  0  3.815952  0  0  -0.008282  0  4.078067  0  0  -0.008687  0  4.098245  0  0  0.072545  -0.008076  0  4.06449  0
C  C27  1  0.74871113  0.57383786  0.43051147  1  0  0.003437  0  3.81812  0  0  -0.008568  0  4.078396  0  0  -0.009059  0  4.098631  0  0  0.072406  -0.008311  0  4.06488  0
C  C28  1  0.43734249  0.05958500  0.88589760  1  0  -0.02932  0  3.849894  0  0  -0.036419  0  4.104204  0  0  -0.040721  0  4.126806  0  0  0.066424  -0.033776  0  4.089191  0
C  C29  1  0.17369984  0.55161008  0.11402720  1  0  -0.02953  0  3.850818  0  0  -0.038585  0  4.106652  0  0  -0.042915  0  4.129232  0  0  0.064802  -0.035801  0  4.091518  0
C  C30  1  0.30295642  0.42421330  0.61477521  1  0  -0.028168  0  3.850024  0  0  -0.036795  0  4.105977  0  0  -0.041099  0  4.128607  0  0  0.06544  -0.034031  0  4.090805  0
C  C31  1  0.81001463  0.68859862  0.38564268  1  0  -0.029903  0  3.849884  0  0  -0.037312  0  4.104368  0  0  -0.041575  0  4.126951  0  0  0.065697  -0.034689  0  4.08937  0
C  C32  1  0.43143459  0.12058868  0.78256138  1  0  0.626789  0  3.880717  0  0  0.579351  0  4.1734  0  0  0.61367  0  4.164334  0  0  0.224469  0.556056  0  4.179015  0
C  C33  1  0.33829549  0.64894823  0.21713836  1  0  0.62722  0  3.88267  0  0  0.580859  0  4.174516  0  0  0.615262  0  4.165381  0  0  0.225852  0.557536  0  4.180097  0
C  C34  1  0.40024089  0.58876103  0.71786848  1  0  0.626588  0  3.882827  0  0  0.580317  0  4.174392  0  0  0.614635  0  4.165373  0  0  0.225662  0.557052  0  4.179892  0
C  C35  1  0.87142711  0.68280764  0.28247544  1  0  0.629209  0  3.879852  0  0  0.582116  0  4.172056  0  0  0.616468  0  4.162962  0  0  0.226043  0.558805  0  4.177686  0
C  C36  1  0.54725674  0.98036819  0.03658150  1  0  0.387423  0  3.657135  0  0  0.357125  0  3.935896  0  0  0.372053  0  3.949241  0  0  0.224692  0.347274  0  3.926683  0
C  C37  1  0.94343769  0.51075623  0.96361449  1  0  0.386168  0  3.659819  0  0  0.355843  0  3.938122  0  0  0.370641  0  3.951536  0  0  0.224184  0.346041  0  3.928715  0
C  C38  1  0.26183544  0.19425909  0.46377968  1  0  0.385564  0  3.66021  0  0  0.355471  0  3.938722  0  0  0.370308  0  3.952124  0  0  0.22349  0.345627  0  3.929325  0
C  C39  1  0.73008064  0.79787200  0.53618318  1  0  0.38416  0  3.659939  0  0  0.354751  0  3.937502  0  0  0.369635  0  3.9508  0  0  0.2238  0.344905  0  3.928289  0
C  C40  1  0.66583270  0.93555412  0.12112912  1  0  0.045124  0  3.624766  0  0  -0.01618  0  3.888973  0  0  -0.009722  0  3.890779  0  0  -0.060868  -0.02085  0  3.888167  0
C  C41  1  0.81378981  0.54444647  0.87900939  1  0  0.044472  0  3.626178  0  0  -0.016576  0  3.889454  0  0  -0.00985  0  3.890886  0  0  -0.060804  -0.021202  0  3.888479  0
C  C42  1  0.29566891  0.06481076  0.37901702  1  0  0.046303  0  3.624056  0  0  -0.01542  0  3.888841  0  0  -0.008806  0  3.890468  0  0  -0.060456  -0.01994  0  3.887691  0
C  C43  1  0.68476701  0.91603743  0.62069651  1  0  0.046625  0  3.624371  0  0  -0.014986  0  3.88742  0  0  -0.008334  0  3.888898  0  0  -0.060992  -0.019688  0  3.886657  0
N  N44  1  0.39314681  0.94943550  0.02551759  1  0  -0.438024  0  3.211983  0  0  -0.371165  0  3.505412  0  0  -0.391451  0  3.516009  0  0  -0.347957  -0.357476  0  3.49816  0
N  N45  1  0.92377668  0.36785160  0.97457507  1  0  -0.435896  0  3.211638  0  0  -0.369247  0  3.504254  0  0  -0.389495  0  3.514856  0  0  -0.347045  -0.355438  0  3.496889  0
N  N46  1  0.11882182  0.17459599  0.47483659  1  0  -0.437234  0  3.21232  0  0  -0.370232  0  3.505566  0  0  -0.39049  0  3.516218  0  0  -0.347016  -0.356426  0  3.498189  0
N  N47  1  0.69992019  0.64405779  0.52532435  1  0  -0.436043  0  3.214539  0  0  -0.369867  0  3.507437  0  0  -0.390133  0  3.518108  0  0  -0.347313  -0.356191  0  3.500152  0
N  N48  1  0.57799502  0.04864867  0.95388557  1  0  -0.434501  0  3.240604  0  0  -0.36573  0  3.535587  0  0  -0.386011  0  3.547655  0  0  -0.349099  -0.351917  0  3.527326  0
N  N49  1  0.09451102  0.62417538  0.04621014  1  0  -0.434228  0  3.242262  0  0  -0.365021  0  3.537662  0  0  -0.385303  0  3.549779  0  0  -0.348751  -0.351176  0  3.529278  0
N  N50  1  0.37545430  0.34515725  0.54663320  1  0  -0.434147  0  3.239553  0  0  -0.36463  0  3.534418  0  0  -0.384929  0  3.546564  0  0  -0.347966  -0.350785  0  3.526043  0
N  N51  1  0.79836637  0.82882836  0.45348599  1  0  -0.432682  0  3.239026  0  0  -0.364265  0  3.53376  0  0  -0.38457  0  3.545862  0  0  -0.348558  -0.350427  0  3.525464  0
O  O52  1  0.07156598  0.89180820  0.93886122  1  0  -0.572308  0  2.007523  0  0  -0.508228  0  2.253461  0  0  -0.533454  0  2.241165  0  0  -0.295042  -0.490798  0  2.261428  0
O  O53  1  0.95327533  0.13293948  0.06068499  1  0  -0.572116  0  2.008427  0  0  -0.507905  0  2.25426  0  0  -0.533134  0  2.242018  0  0  -0.294698  -0.490382  0  2.262163  0
O  O54  1  0.88366766  0.20410205  0.56106656  1  0  -0.572996  0  2.008237  0  0  -0.509086  0  2.254395  0  0  -0.534355  0  2.242082  0  0  -0.295397  -0.491551  0  2.262351  0
O  O55  1  0.64398336  0.32314005  0.43914443  1  0  -0.573339  0  2.007138  0  0  -0.509302  0  2.253414  0  0  -0.534528  0  2.24104  0  0  -0.295337  -0.491853  0  2.261386  0
O  O56  1  0.08567800  0.01488139  0.79868638  1  0  -0.600963  0  2.016102  0  0  -0.539131  0  2.227661  0  0  -0.565387  0  2.217465  0  0  -0.301346  -0.520914  0  2.234015  0
O  O57  1  0.21676016  0.28713813  0.20068260  1  0  -0.600941  0  2.01625  0  0  -0.538918  0  2.228352  0  0  -0.565192  0  2.21828  0  0  -0.301279  -0.520637  0  2.234711  0
O  O58  1  0.03830336  0.46716837  0.70176673  1  0  -0.601641  0  2.016486  0  0  -0.539476  0  2.227948  0  0  -0.56577  0  2.217873  0  0  -0.301364  -0.521177  0  2.234311  0
O  O59  1  0.76722559  0.33753655  0.29898828  1  0  -0.60333  0  2.013829  0  0  -0.541139  0  2.225686  0  0  -0.567541  0  2.215418  0  0  -0.302314  -0.522869  0  2.232056  0
O  O60  1  0.55400340  0.16311160  0.75877752  1  0  -0.549836  0  1.958966  0  0  -0.493691  0  2.193895  0  0  -0.517005  0  2.182569  0  0  -0.279788  -0.477693  0  2.201313  0
O  O61  1  0.40465959  0.79514915  0.24083191  1  0  -0.55104  0  1.960282  0  0  -0.494915  0  2.194358  0  0  -0.518233  0  2.183  0  0  -0.280672  -0.478792  0  2.201704  0
O  O62  1  0.54645903  0.65523645  0.74142514  1  0  -0.550288  0  1.961061  0  0  -0.494141  0  2.194955  0  0  -0.517422  0  2.183666  0  0  -0.279846  -0.47804  0  2.202261  0
O  O63  1  0.91396865  0.80529460  0.25876450  1  0  -0.550839  0  1.959358  0  0  -0.494778  0  2.194182  0  0  -0.51812  0  2.182877  0  0  -0.280519  -0.478761  0  2.201586  0
O  O64  1  0.29481201  0.12812954  0.71576098  1  0  -0.521091  0  2.1131  0  0  -0.471067  0  2.328374  0  0  -0.494118  0  2.315606  0  0  -0.317883  -0.455176  0  2.336231  0
O  O65  1  0.41278635  0.57919881  0.28382329  1  0  -0.519844  0  2.110549  0  0  -0.470533  0  2.325709  0  0  -0.493567  0  2.313581  0  0  -0.31759  -0.454596  0  2.333586  0
O  O66  1  0.33030434  0.66315864  0.78454315  1  0  -0.52052  0  2.110852  0  0  -0.471086  0  2.32555  0  0  -0.494103  0  2.313425  0  0  -0.31861  -0.455157  0  2.333403  0
O  O67  1  0.87947220  0.54643726  0.21591412  1  0  -0.52305  0  2.111817  0  0  -0.473032  0  2.327903  0  0  -0.496141  0  2.315003  0  0  -0.318371  -0.45712  0  2.335748  0
O  O68  1  0.73148792  0.04136662  0.26106422  1  0  -0.548699  0  2.20932  0  0  -0.471741  0  2.481438  0  0  -0.49189  0  2.462026  0  0  -0.391806  -0.457508  0  2.494663  0
O  O69  1  0.77986373  0.47010731  0.73909608  1  0  -0.549636  0  2.210437  0  0  -0.471227  0  2.481673  0  0  -0.4915  0  2.462321  0  0  -0.391898  -0.457041  0  2.494896  0
O  O70  1  0.21999150  0.02964372  0.23899298  1  0  -0.549709  0  2.209637  0  0  -0.470927  0  2.481033  0  0  -0.491207  0  2.461762  0  0  -0.391816  -0.456724  0  2.494154  0
O  O71  1  0.78995913  0.98095163  0.76068655  1  0  -0.547935  0  2.21  0  0  -0.47159  0  2.48193  0  0  -0.491796  0  2.462709  0  0  -0.392019  -0.457364  0  2.495071  0
