# generated using pymatgen
data_Al3H4C42O14F15
_symmetry_space_group_name_H-M   'P 1'
_cell_length_a   13.78681648
_cell_length_b   13.77645723
_cell_length_c   28.23363477
_cell_angle_alpha   90.05739788
_cell_angle_beta   90.03295079
_cell_angle_gamma   120.26756779
_symmetry_Int_Tables_number   1
_chemical_formula_structural   Al3H4C42O14F15
_chemical_formula_sum   'Al6 H8 C84 O28 F30'
_cell_volume   4631.49440148
_cell_formula_units_Z   2
loop_
 _symmetry_equiv_pos_site_id
 _symmetry_equiv_pos_as_xyz
  1  'x, y, z'
loop_
 _atom_site_type_symbol
 _atom_site_label
 _atom_site_symmetry_multiplicity
 _atom_site_fract_x
 _atom_site_fract_y
 _atom_site_fract_z
 _atom_site_occupancy
 _atom_site_pbe_bader_charge
 _atom_site_pbe_bader_spin_density
 _atom_site_pbe_cm5_charge
 _atom_site_pbe_ddec_charge
 _atom_site_pbe_ddec_spin_density
 _atom_site_pbe_ddec_sum_bond_order
 _atom_site_pbe_magmom
Al  Al0  1  0.48820303  0.23928506  0.49978282  1  2.493648  0  0.402531  1.682454  0  2.556783  0
Al  Al1  1  0.72745679  0.25146456  0.50082686  1  2.487649  0  0.511265  1.659985  0  2.512016  0
Al  Al2  1  0.72746425  0.46900335  0.50087987  1  2.483123  0  0.509257  1.660551  0  2.514649  0
Al  Al3  1  0.23875130  0.48839364  0.99985366  1  2.490546  0  0.402509  1.682591  0  2.556679  0
Al  Al4  1  0.25175928  0.72832562  0.00087328  1  2.484806  0  0.511346  1.660359  0  2.511433  0
Al  Al5  1  0.46863540  0.72726883  0.00080315  1  2.485163  0  0.509448  1.659538  0  2.516588  0
H  H6  1  0.02464339  0.34826236  0.71998470  1  0.123482  0  0.132786  0.167006  0  0.93829  0
H  H7  1  0.65841062  0.68316543  0.72031962  1  0.137686  0  0.131032  0.165085  0  0.940637  0
H  H8  1  0.32620182  0.97523100  0.72070723  1  0.160172  0  0.132906  0.167531  0  0.938065  0
H  H9  1  0.34850126  0.02549752  0.21966431  1  0.124227  0  0.132808  0.166739  0  0.93854  0
H  H10  1  0.68348171  0.65976795  0.22001528  1  0.132738  0  0.13102  0.165027  0  0.94077  0
H  H11  1  0.97421884  0.32570912  0.22049924  1  0.16011  0  0.132809  0.167574  0  0.937855  0
H  H12  1  0.30313223  0.16379218  0.52697837  1  0.570603  0  0.295926  0.388762  0  0.914311  0
H  H13  1  0.15045043  0.30351281  0.02856671  1  0.58064  0  0.295863  0.388424  0  0.914405  0
C  C14  1  0.56656164  0.43876187  0.56678865  1  1.72524  0  0.281214  0.7146  0  4.160986  0
C  C15  1  0.48784881  0.97932327  0.20010961  1  0.087588  0  0.002966  0.023259  0  3.835001  0
C  C16  1  0.49651643  0.51820129  0.20276227  1  0.073797  0  0.002432  0.029996  0  3.849153  0
C  C17  1  0.02111716  0.51381009  0.20536565  1  0.068484  0  0.002938  0.029687  0  3.844187  0
C  C18  1  0.93048376  0.41006753  0.77169547  1  0.649756  0  0.117004  0.228111  0  3.738166  0
C  C19  1  0.60141937  0.52870843  0.77286208  1  0.639768  0  0.115137  0.22526  0  3.740554  0
C  C20  1  0.47667507  0.06998167  0.77540677  1  0.650077  0  0.116523  0.225017  0  3.743528  0
C  C21  1  0.40910238  0.93056161  0.27154274  1  0.645458  0  0.116657  0.226368  0  3.740213  0
C  C22  1  0.52954398  0.60287653  0.27285122  1  0.648115  0  0.114654  0.224166  0  3.741807  0
C  C23  1  0.06933744  0.47605313  0.27529026  1  0.651702  0  0.116735  0.22597  0  3.742508  0
C  C24  1  0.89401876  0.48077978  0.74015932  1  0.64446  0  0.113249  0.138928  0  3.728193  0
C  C25  1  0.56775917  0.12562339  0.56881246  1  1.669581  0  0.280681  0.71216  0  4.159309  0
C  C26  1  0.52776553  0.41969529  0.74235497  1  0.633431  0  0.112436  0.137147  0  3.731552  0
C  C27  1  0.58744685  0.10677163  0.74627938  1  0.642669  0  0.112823  0.137462  0  3.733017  0
C  C28  1  0.48003434  0.89404246  0.24021334  1  0.642056  0  0.113404  0.138172  0  3.731687  0
C  C29  1  0.42039689  0.52877575  0.24250335  1  0.626365  0  0.11182  0.137071  0  3.73024  0
C  C30  1  0.10640563  0.58706241  0.24624834  1  0.645481  0  0.112721  0.137379  0  3.735283  0
C  C31  1  0.05069381  0.53877001  0.84476069  1  0.096967  0  -0.021037  0.006694  0  4.07735  0
C  C32  1  0.47811434  0.52466462  0.84725870  1  -0.361984  0  -0.021223  0.006934  0  4.085598  0
C  C33  1  0.47608523  0.94730812  0.84980798  1  0.118201  0  -0.010006  0.030462  0  4.057738  0
C  C34  1  0.53680879  0.05005800  0.34493152  1  -0.109812  0  -0.021046  0.007034  0  4.076814  0
C  C35  1  0.52630192  0.48001915  0.34725866  1  -0.193909  0  -0.02141  0.006534  0  4.085975  0
C  C36  1  0.86374819  0.42757789  0.56522440  1  1.680177  0  0.287074  0.721267  0  4.148664  0
C  C37  1  0.94701454  0.47579060  0.34980142  1  -0.431266  0  -0.009746  0.030091  0  4.057457  0
C  C38  1  0.94995214  0.47040866  0.65160478  1  -0.334228  0  -0.012486  0.009878  0  4.053841  0
C  C39  1  0.53100621  0.48366990  0.65405508  1  -0.365451  0  -0.023244  -0.01118  0  4.083115  0
C  C40  1  0.52960044  0.04868043  0.65681673  1  -0.316047  0  -0.024657  -0.015548  0  4.077934  0
C  C41  1  0.47083689  0.95027127  0.15165324  1  -0.33066  0  -0.012027  0.010049  0  4.054453  0
C  C42  1  0.48370069  0.53165740  0.15416152  1  -0.503191  0  -0.02334  -0.012524  0  4.082371  0
C  C43  1  0.04816794  0.52967948  0.15677412  1  -0.175539  0  -0.024424  -0.015006  0  4.076738  0
C  C44  1  0.56624508  0.43580166  0.43381307  1  1.689558  0  0.282751  0.709907  0  4.163499  0
C  C45  1  0.56843663  0.12255904  0.43364813  1  1.686104  0  0.285288  0.706003  0  4.161669  0
C  C46  1  0.86266432  0.43037001  0.43633362  1  1.640771  0  0.288758  0.722905  0  4.145279  0
C  C47  1  0.43721557  0.56617175  0.06703096  1  1.682652  0  0.280482  0.712848  0  4.161942  0
C  C48  1  0.43532276  0.56552568  0.93396804  1  1.672535  0  0.282988  0.708791  0  4.164337  0
C  C49  1  0.12354037  0.56978909  0.93338910  1  1.674979  0  0.284716  0.706774  0  4.164608  0
C  C50  1  0.42996670  0.86314674  0.93636842  1  1.638775  0  0.288441  0.721655  0  4.149039  0
C  C51  1  0.07386314  0.60078999  0.72382268  1  0.625348  0  0.109703  0.138097  0  3.728124  0
C  C52  1  0.40651675  0.47808524  0.72791595  1  0.62897  0  0.109406  0.133581  0  3.737134  0
C  C53  1  0.52893230  0.92705908  0.73065079  1  0.646174  0  0.109236  0.131867  0  3.737982  0
C  C54  1  0.60051694  0.07401765  0.22412640  1  0.62867  0  0.109902  0.132964  0  3.736497  0
C  C55  1  0.47894598  0.40758358  0.22804919  1  0.627633  0  0.110105  0.131875  0  3.739204  0
C  C56  1  0.92693569  0.52910445  0.23071335  1  0.646488  0  0.109323  0.13304  0  3.737765  0
C  C57  1  0.98899221  0.59271510  0.76304462  1  0.625932  0  0.106689  0.139364  0  3.764459  0
C  C58  1  0.12482375  0.56858236  0.06870481  1  1.671394  0  0.280565  0.712795  0  4.160642  0
C  C59  1  0.41801567  0.40275505  0.76690437  1  0.624974  0  0.10754  0.1425  0  3.759569  0
C  C60  1  0.60166637  0.01213965  0.77083651  1  0.612955  0  0.108188  0.142549  0  3.762561  0
C  C61  1  0.59168460  0.98872933  0.26333998  1  0.621913  0  0.107078  0.140801  0  3.763899  0
C  C62  1  0.40385931  0.41917617  0.26713295  1  0.637717  0  0.107981  0.142629  0  3.760836  0
C  C63  1  0.01210708  0.60159927  0.27089656  1  0.612657  0  0.10832  0.141469  0  3.76353  0
C  C64  1  0.07631288  0.55103644  0.88648658  1  -0.316075  0  -0.017765  -0.163516  0  3.920685  0
C  C65  1  0.46524500  0.54208470  0.88835554  1  0.205971  0  -0.01915  -0.166197  0  3.927022  0
C  C66  1  0.45857326  0.91735186  0.89100434  1  -0.25631  0  -0.021622  -0.178461  0  3.916713  0
C  C67  1  0.54888264  0.07533351  0.38670162  1  -0.062634  0  -0.017251  -0.163552  0  3.918968  0
C  C68  1  0.54363497  0.46685064  0.38831311  1  -0.03653  0  -0.01983  -0.166363  0  3.928254  0
C  C69  1  0.42847414  0.86392729  0.06527981  1  1.645857  0  0.28736  0.722045  0  4.15065  0
C  C70  1  0.91698846  0.45853678  0.39099354  1  0.294161  0  -0.022  -0.179027  0  3.917492  0
C  C71  1  0.91903552  0.45531872  0.61047138  1  0.098611  0  -0.025824  -0.182926  0  3.92756  0
C  C72  1  0.54403762  0.46804227  0.61273133  1  0.115494  0  -0.026256  -0.174211  0  3.941754  0
C  C73  1  0.54695598  0.07650327  0.61540163  1  0.10268  0  -0.024242  -0.169413  0  3.933097  0
C  C74  1  0.45587464  0.91907138  0.11055594  1  0.132067  0  -0.026288  -0.183474  0  3.929727  0
C  C75  1  0.46749697  0.54431532  0.11287192  1  0.288738  0  -0.026214  -0.173268  0  3.94199  0
C  C76  1  0.07597951  0.54734813  0.11535227  1  -0.021926  0  -0.02482  -0.170252  0  3.93205  0
C  C77  1  0.10813823  0.52860573  0.75557703  1  0.64469  0  0.118273  0.228239  0  3.734741  0
C  C78  1  0.48129710  0.58620847  0.75862241  1  0.638188  0  0.117295  0.23016  0  3.736045  0
C  C79  1  0.41860537  0.89219058  0.75987472  1  0.636836  0  0.118848  0.231775  0  3.732186  0
C  C80  1  0.97892332  0.48782426  0.70005353  1  0.094223  0  0.003105  0.022049  0  3.833759  0
C  C81  1  0.52815016  0.10838743  0.25572316  1  0.64337  0  0.118162  0.227674  0  3.736965  0
C  C82  1  0.58715186  0.48274719  0.25859058  1  0.638948  0  0.117178  0.229955  0  3.736321  0
C  C83  1  0.89180395  0.41851691  0.25985094  1  0.634564  0  0.119266  0.231543  0  3.7295  0
C  C84  1  0.02463918  0.52264702  0.79611186  1  0.079831  0  -0.003777  -0.063834  0  3.847123  0
C  C85  1  0.49129980  0.51066134  0.79881940  1  0.039187  0  -0.004112  -0.06301  0  3.856502  0
C  C86  1  0.49192157  0.97599354  0.80145647  1  0.042075  0  -0.003821  -0.068849  0  3.841877  0
C  C87  1  0.52136160  0.02447044  0.29623294  1  0.030926  0  -0.003683  -0.062079  0  3.845512  0
C  C88  1  0.51189599  0.49293802  0.29884526  1  0.088368  0  -0.004305  -0.062263  0  3.858459  0
C  C89  1  0.97573802  0.49161285  0.30144673  1  0.036828  0  -0.003832  -0.067673  0  3.839791  0
C  C90  1  0.01449970  0.41733314  0.73284369  1  -0.031173  0  -0.071455  -0.21422  0  3.611879  0
C  C91  1  0.51722204  0.49604229  0.70267238  1  0.078724  0  0.002775  0.028005  0  3.850347  0
C  C92  1  0.59066827  0.60415588  0.73435337  1  -0.05983  0  -0.072034  -0.215321  0  3.612916  0
C  C93  1  0.40386206  0.98556042  0.73565438  1  -0.076472  0  -0.071477  -0.214604  0  3.611495  0
C  C94  1  0.41718187  0.01502733  0.23271207  1  -0.033388  0  -0.07144  -0.212792  0  3.611704  0
C  C95  1  0.60476079  0.59203444  0.23425680  1  -0.057698  0  -0.072426  -0.215981  0  3.612867  0
C  C96  1  0.98483703  0.40348403  0.23552896  1  -0.073602  0  -0.07178  -0.214918  0  3.610666  0
C  C97  1  0.51394259  0.02154790  0.70540349  1  0.084217  0  0.002919  0.03052  0  3.842847  0
O  O98  1  0.49739280  0.15060351  0.55325909  1  -1.215127  0  -0.20525  -0.555257  0  2.297594  0
O  O99  1  0.34245100  0.49486619  0.05067736  1  -1.215856  0  -0.207128  -0.560019  0  2.290879  0
O  O100  1  0.14495016  0.66093826  0.04860280  1  -1.25479  0  -0.239643  -0.600564  0  2.22881  0
O  O101  1  0.49804158  0.83810282  0.04787215  1  -1.236075  0  -0.221723  -0.580403  0  2.248085  0
O  O102  1  0.49586620  0.14273502  0.45055734  1  -1.20322  0  -0.193404  -0.522423  0  2.27441  0
O  O103  1  0.83869444  0.33570725  0.45422682  1  -1.246155  0  -0.222285  -0.582502  0  2.246681  0
O  O104  1  0.65760474  0.50857035  0.45473203  1  -1.252776  0  -0.240148  -0.604796  0  2.233155  0
O  O105  1  0.14521143  0.49754515  0.94948475  1  -1.204174  0  -0.194536  -0.525715  0  2.277733  0
O  O106  1  0.33487897  0.83874286  0.95388070  1  -1.24952  0  -0.222244  -0.581831  0  2.246756  0
O  O107  1  0.50778520  0.65850090  0.95396250  1  -1.254789  0  -0.239217  -0.60313  0  2.233726  0
O  O108  1  0.49684294  0.33860971  0.44837252  1  -1.218189  0  -0.197786  -0.538336  0  2.295775  0
O  O109  1  0.83857009  0.33220541  0.54746650  1  -1.240464  0  -0.223848  -0.584078  0  2.247006  0
O  O110  1  0.66166519  0.14415310  0.45349563  1  -1.256459  0  -0.238177  -0.600553  0  2.231179  0
O  O111  1  0.83775757  0.50043716  0.45419610  1  -1.244369  0  -0.222578  -0.582988  0  2.243791  0
O  O112  1  0.33943537  0.49544305  0.94951414  1  -1.216596  0  -0.196373  -0.533847  0  2.291335  0
O  O113  1  0.14340797  0.66172397  0.95406032  1  -1.256816  0  -0.238677  -0.602049  0  2.232656  0
O  O114  1  0.49995096  0.83876930  0.95465020  1  -1.237346  0  -0.222501  -0.582868  0  2.248088  0
O  O115  1  0.64960679  0.32095120  0.50075007  1  -1.613214  0  -0.391089  -1.27602  0  2.293524  0
O  O116  1  0.32068216  0.64989568  0.00079243  1  -1.611716  0  -0.390998  -1.276166  0  2.293657  0
O  O117  1  0.66214474  0.50976457  0.54842553  1  -1.260582  0  -0.238238  -0.598705  0  2.232181  0
O  O118  1  0.14739652  0.49705593  0.05235931  1  -1.215594  0  -0.205848  -0.557509  0  2.298476  0
O  O119  1  0.33408231  0.84026761  0.04706299  1  -1.239741  0  -0.223896  -0.584458  0  2.250215  0
O  O120  1  0.50903010  0.66016266  0.04767358  1  -1.252959  0  -0.238868  -0.59943  0  2.233379  0
O  O121  1  0.49431713  0.34559113  0.54939957  1  -1.226461  0  -0.207929  -0.562336  0  2.290775  0
O  O122  1  0.65855916  0.14344162  0.54797950  1  -1.250385  0  -0.24026  -0.601785  0  2.228238  0
O  O123  1  0.83923803  0.49769894  0.54737883  1  -1.23492  0  -0.221553  -0.580614  0  2.249591  0
O  O124  1  0.34169038  0.16290931  0.49856726  1  -1.349872  0  -0.572753  -0.991459  0  1.788609  0
O  O125  1  0.16233271  0.34176823  0.99862715  1  -1.359843  0  -0.572623  -0.991109  0  1.788944  0
F  F126  1  0.97702501  0.67908446  0.77841221  1  -0.611399  0  -0.096144  -0.113951  0  1.324377  0
F  F127  1  0.69451358  0.14373774  0.19962536  1  -0.623116  0  -0.097516  -0.118792  0  1.339155  0
F  F128  1  0.45364468  0.31212978  0.20452402  1  -0.618244  0  -0.098678  -0.12006  0  1.346135  0
F  F129  1  0.85856621  0.55650463  0.20728871  1  -0.620828  0  -0.096896  -0.118868  0  1.350649  0
F  F130  1  0.78846380  0.45712446  0.73076901  1  -0.619271  0  -0.089338  -0.112489  0  1.406999  0
F  F131  1  0.55003589  0.33704234  0.73257818  1  -0.617568  0  -0.092125  -0.114946  0  1.397445  0
F  F132  1  0.67041090  0.21280685  0.73777156  1  -0.61919  0  -0.090663  -0.113482  0  1.408739  0
F  F133  1  0.45626444  0.78841508  0.23070312  1  -0.618041  0  -0.08939  -0.111541  0  1.407875  0
F  F134  1  0.33753506  0.55067554  0.23277199  1  -0.619687  0  -0.092279  -0.115333  0  1.398116  0
F  F135  1  0.21248395  0.66980940  0.23774784  1  -0.619026  0  -0.090548  -0.11343  0  1.41119  0
F  F136  1  0.86138136  0.31669677  0.79665028  1  -0.623414  0  -0.097009  -0.131796  0  1.343076  0
F  F137  1  0.33348909  0.30439268  0.78361160  1  -0.612949  0  -0.095304  -0.11294  0  1.322568  0
F  F138  1  0.69706643  0.55413842  0.79626413  1  -0.620668  0  -0.100812  -0.136157  0  1.336111  0
F  F139  1  0.45053535  0.13969045  0.79858711  1  -0.624011  0  -0.097743  -0.131731  0  1.334089  0
F  F140  1  0.31536721  0.86138522  0.29624726  1  -0.62154  0  -0.096727  -0.131064  0  1.34393  0
F  F141  1  0.55496645  0.69868669  0.29619339  1  -0.6216  0  -0.1007  -0.136126  0  1.337189  0
F  F142  1  0.13880510  0.44950886  0.29834586  1  -0.625216  0  -0.097642  -0.131919  0  1.333597  0
F  F143  1  0.21380594  0.55150667  0.76455312  1  -0.621342  0  -0.094269  -0.130643  0  1.392634  0
F  F144  1  0.45809167  0.66834609  0.76857992  1  -0.622023  0  -0.096596  -0.134857  0  1.38631  0
F  F145  1  0.33439123  0.78637593  0.76822728  1  -0.625101  0  -0.094386  -0.133565  0  1.392103  0
F  F146  1  0.55122148  0.21417779  0.26475234  1  -0.61656  0  -0.09399  -0.129752  0  1.392315  0
F  F147  1  0.66927263  0.45960723  0.26858149  1  -0.620204  0  -0.096568  -0.13574  0  1.387904  0
F  F148  1  0.69803823  0.02447887  0.78891967  1  -0.610945  0  -0.095113  -0.112439  0  1.323841  0
F  F149  1  0.78599631  0.33442374  0.26823177  1  -0.624563  0  -0.094641  -0.133739  0  1.391356  0
F  F150  1  0.67758755  0.97638514  0.27894558  1  -0.611489  0  -0.096453  -0.114284  0  1.323364  0
F  F151  1  0.30585396  0.33466694  0.28410563  1  -0.617  0  -0.095468  -0.112858  0  1.323565  0
F  F152  1  0.02464442  0.69804474  0.28907970  1  -0.610875  0  -0.094961  -0.111823  0  1.324535  0
F  F153  1  0.14350925  0.69446709  0.69910428  1  -0.621735  0  -0.09739  -0.1202  0  1.336541  0
F  F154  1  0.31111304  0.45269699  0.70439849  1  -0.619535  0  -0.098748  -0.120986  0  1.345657  0
F  F155  1  0.55590292  0.85842005  0.70713437  1  -0.621845  0  -0.096894  -0.118782  0  1.349608  0
