# generated using pymatgen
data_AgH3C7(NO3)2
_symmetry_space_group_name_H-M   'P 1'
_cell_length_a   5.19848755
_cell_length_b   6.57456688
_cell_length_c   27.33026641
_cell_angle_alpha   90.00015030
_cell_angle_beta   89.99990772
_cell_angle_gamma   108.77032913
_symmetry_Int_Tables_number   1
_chemical_formula_structural   AgH3C7(NO3)2
_chemical_formula_sum   'Ag4 H12 C28 N8 O24'
_cell_volume   884.40994674
_cell_formula_units_Z   4
loop_
 _symmetry_equiv_pos_site_id
 _symmetry_equiv_pos_as_xyz
  1  'x, y, z'
loop_
 _atom_site_type_symbol
 _atom_site_label
 _atom_site_symmetry_multiplicity
 _atom_site_fract_x
 _atom_site_fract_y
 _atom_site_fract_z
 _atom_site_occupancy
 _atom_site_pbe_bader_spin_density
 _atom_site_pbe_cm5_charge
 _atom_site_pbe_ddec_charge
 _atom_site_pbe_ddec_spin_density
 _atom_site_pbe_ddec_sum_bond_order
 _atom_site_pbe_magmom
Ag  Ag0  1  0.78185863  0.98304985  0.96836799  1  0  0.411862  0.44466  0  1.883305  0
Ag  Ag1  1  0.21814178  0.51695296  0.46836732  1  0  0.411877  0.444697  0  1.88329  0
Ag  Ag2  1  0.21814082  0.01695388  0.03163303  1  0  0.41187  0.444656  0  1.883328  0
Ag  Ag3  1  0.78185827  0.48304755  0.53163225  1  0  0.411863  0.444669  0  1.883345  0
H  H4  1  0.74903204  0.68941060  0.16736291  1  0  0.126328  0.146325  0  0.981467  0
H  H5  1  0.25096768  0.81057967  0.66736327  1  0  0.126334  0.146332  0  0.981396  0
H  H6  1  0.25097179  0.31058508  0.83263739  1  0  0.126354  0.146359  0  0.981407  0
H  H7  1  0.74903236  0.18942084  0.33263666  1  0  0.126337  0.146335  0  0.981389  0
H  H8  1  0.95453364  0.23370901  0.19717583  1  0  0.124872  0.143446  0  1.037429  0
H  H9  1  0.04545827  0.26629242  0.69717623  1  0  0.124848  0.143445  0  1.037474  0
H  H10  1  0.04546382  0.76628990  0.80282446  1  0  0.124867  0.143438  0  1.03745  0
H  H11  1  0.95453793  0.73370810  0.30282407  1  0  0.12485  0.143427  0  1.037472  0
H  H12  1  0.15559274  0.49945084  0.05187779  1  0  0.123078  0.137862  0  0.998563  0
H  H13  1  0.84440625  0.00055078  0.55187777  1  0  0.123084  0.137877  0  0.998548  0
H  H14  1  0.84441115  0.50054966  0.94812288  1  0  0.12308  0.137845  0  0.998568  0
H  H15  1  0.15559379  0.99944973  0.44812253  1  0  0.123099  0.137862  0  0.998533  0
C  C16  1  0.47361319  0.60874948  0.10566320  1  0  -0.003591  0.003895  0  3.917396  0
C  C17  1  0.52638176  0.89124663  0.60566353  1  0  -0.003584  0.003876  0  3.91739  0
C  C18  1  0.52638685  0.39125103  0.89433747  1  0  -0.003562  0.003962  0  3.917398  0
C  C19  1  0.47361702  0.10875549  0.39433640  1  0  -0.003574  0.003878  0  3.917417  0
C  C20  1  0.54797918  0.59543359  0.15437731  1  0  -0.051893  -0.103403  0  3.870155  0
C  C21  1  0.45202258  0.90456137  0.65437840  1  0  -0.051889  -0.103378  0  3.870194  0
C  C22  1  0.45202272  0.40456209  0.84562299  1  0  -0.05189  -0.103427  0  3.870117  0
C  C23  1  0.54797813  0.09544075  0.34562153  1  0  -0.051886  -0.10334  0  3.8701  0
C  C24  1  0.35880016  0.46080964  0.18618891  1  0  0.084158  0.079118  0  3.927026  0
C  C25  1  0.64119175  0.03918686  0.68618971  1  0  0.084186  0.079135  0  3.926971  0
C  C26  1  0.64120241  0.53918764  0.81381139  1  0  0.084207  0.079099  0  3.927038  0
C  C27  1  0.35880127  0.96081528  0.31381058  1  0  0.084194  0.079096  0  3.927091  0
C  C28  1  0.09866018  0.33831710  0.17176058  1  0  -0.05015  -0.124679  0  3.863141  0
C  C29  1  0.90133695  0.16168247  0.67176102  1  0  -0.050138  -0.1247  0  3.863161  0
C  C30  1  0.90134173  0.66167858  0.82823935  1  0  -0.05011  -0.12462  0  3.863132  0
C  C31  1  0.09866183  0.83831966  0.32823855  1  0  -0.050149  -0.124707  0  3.863225  0
C  C32  1  0.03312701  0.35529897  0.12282804  1  0  0.084212  0.074899  0  3.93239  0
C  C33  1  0.96686903  0.14469691  0.62282844  1  0  0.084231  0.074858  0  3.93257  0
C  C34  1  0.96687682  0.64469670  0.87717226  1  0  0.084147  0.074855  0  3.932322  0
C  C35  1  0.03313102  0.85530360  0.37717186  1  0  0.084248  0.074973  0  3.932396  0
C  C36  1  0.21418504  0.48803692  0.08966372  1  0  -0.055089  -0.103981  0  3.899083  0
C  C37  1  0.78581180  0.01196025  0.58966409  1  0  -0.055046  -0.103905  0  3.89903  0
C  C38  1  0.78581753  0.51196037  0.91033658  1  0  -0.055075  -0.103994  0  3.89899  0
C  C39  1  0.21418440  0.98804027  0.41033584  1  0  -0.055093  -0.103969  0  3.899003  0
C  C40  1  0.66921209  0.75008677  0.06964637  1  0  0.204068  0.561168  0  4.193256  0
C  C41  1  0.33078813  0.74990737  0.56964593  1  0  0.204026  0.561114  0  4.193183  0
C  C42  1  0.33079054  0.24991534  0.93035430  1  0  0.204037  0.561086  0  4.193205  0
C  C43  1  0.66921059  0.25008992  0.43035326  1  0  0.204067  0.561156  0  4.19322  0
N  N44  1  0.43974512  0.44561585  0.23731353  1  0  0.057892  0.509029  0  4.188181  0
N  N45  1  0.56025430  0.05438595  0.73731437  1  0  0.057927  0.509085  0  4.188158  0
N  N46  1  0.56026003  0.55438304  0.76268676  1  0  0.057981  0.50931  0  4.188049  0
N  N47  1  0.43974899  0.94561777  0.26268629  1  0  0.057844  0.508946  0  4.188315  0
N  N48  1  0.76122372  0.23232438  0.10551228  1  0  0.051881  0.505085  0  4.188034  0
N  N49  1  0.23877047  0.26767134  0.60551336  1  0  0.05196  0.505278  0  4.187916  0
N  N50  1  0.23877632  0.76767613  0.89448765  1  0  0.051905  0.505164  0  4.187904  0
N  N51  1  0.76122892  0.73232756  0.39448731  1  0  0.051957  0.505243  0  4.18791  0
O  O52  1  0.68692573  0.51093000  0.24651357  1  0  -0.117617  -0.323287  0  1.990144  0
O  O53  1  0.31306799  0.98907069  0.74651440  1  0  -0.117661  -0.323305  0  1.990058  0
O  O54  1  0.31307761  0.48907854  0.75348709  1  0  -0.117662  -0.323383  0  1.990079  0
O  O55  1  0.68693019  0.01093465  0.25348627  1  0  -0.117601  -0.323236  0  1.990188  0
O  O56  1  0.25832066  0.36765643  0.26776878  1  0  -0.117658  -0.306688  0  1.9368  0
O  O57  1  0.74167472  0.13234085  0.76776961  1  0  -0.117671  -0.306728  0  1.936824  0
O  O58  1  0.74168372  0.63233120  0.73223078  1  0  -0.117732  -0.306854  0  1.936777  0
O  O59  1  0.25832394  0.86765162  0.23223032  1  0  -0.117649  -0.306661  0  1.936785  0
O  O60  1  0.70750790  0.25668413  0.06177434  1  0  -0.123092  -0.336535  0  2.117374  0
O  O61  1  0.29248715  0.24331277  0.56177465  1  0  -0.123158  -0.336671  0  2.117292  0
O  O62  1  0.29249215  0.74331638  0.93822595  1  0  -0.123104  -0.336572  0  2.117326  0
O  O63  1  0.70751163  0.75668935  0.43822601  1  0  -0.123206  -0.336711  0  2.11724  0
O  O64  1  0.59800426  0.11365777  0.13450357  1  0  -0.108601  -0.308613  0  1.990891  0
O  O65  1  0.40199172  0.38633822  0.63450430  1  0  -0.108639  -0.308675  0  1.990829  0
O  O66  1  0.40199260  0.88634436  0.86549672  1  0  -0.108603  -0.308642  0  1.990881  0
O  O67  1  0.59800959  0.61366068  0.36549672  1  0  -0.108581  -0.308619  0  1.990917  0
O  O68  1  0.91726930  0.82158207  0.08238827  1  0  -0.318082  -0.492255  0  2.363135  0
O  O69  1  0.08272636  0.67841060  0.58238823  1  0  -0.318072  -0.49224  0  2.36302  0
O  O70  1  0.08272817  0.17841684  0.91761203  1  0  -0.31806  -0.492226  0  2.363042  0
O  O71  1  0.91727362  0.32158509  0.41761206  1  0  -0.318094  -0.492251  0  2.363045  0
O  O72  1  0.56521647  0.78422263  0.02953445  1  0  -0.322594  -0.506056  0  2.448833  0
O  O73  1  0.43478399  0.71577595  0.52953433  1  0  -0.32261  -0.506065  0  2.448909  0
O  O74  1  0.43478171  0.21578270  0.97046694  1  0  -0.322653  -0.506081  0  2.44884  0
O  O75  1  0.56521732  0.28422295  0.47046596  1  0  -0.322614  -0.506085  0  2.448852  0
