# generated using pymatgen
data_CdH14C18(NCl)2
_symmetry_space_group_name_H-M   'P 1'
_cell_length_a   7.42868339
_cell_length_b   14.96985069
_cell_length_c   15.07370000
_cell_angle_alpha   90.00000000
_cell_angle_beta   90.00000000
_cell_angle_gamma   90.00000000
_symmetry_Int_Tables_number   1
_chemical_formula_structural   CdH14C18(NCl)2
_chemical_formula_sum   'Cd4 H56 C72 N8 Cl8'
_cell_volume   1676.29011982
_cell_formula_units_Z   4
loop_
 _symmetry_equiv_pos_site_id
 _symmetry_equiv_pos_as_xyz
  1  'x, y, z'
loop_
 _atom_site_type_symbol
 _atom_site_label
 _atom_site_symmetry_multiplicity
 _atom_site_fract_x
 _atom_site_fract_y
 _atom_site_fract_z
 _atom_site_occupancy
 _atom_site_hle17_bader_spin_density
 _atom_site_hle17_ddec_charge
 _atom_site_hle17_ddec_spin_density
 _atom_site_hle17_ddec_sum_bond_order
 _atom_site_hle17_magmom
 _atom_site_hse06_10hf_bader_spin_density
 _atom_site_hse06_10hf_ddec_charge
 _atom_site_hse06_10hf_ddec_spin_density
 _atom_site_hse06_10hf_ddec_sum_bond_order
 _atom_site_hse06_10hf_magmom
 _atom_site_hse06_bader_spin_density
 _atom_site_hse06_ddec_charge
 _atom_site_hse06_ddec_spin_density
 _atom_site_hse06_ddec_sum_bond_order
 _atom_site_hse06_magmom
 _atom_site_pbe_bader_charge
 _atom_site_pbe_bader_spin_density
 _atom_site_pbe_cm5_charge
 _atom_site_pbe_ddec_charge
 _atom_site_pbe_ddec_spin_density
 _atom_site_pbe_ddec_sum_bond_order
 _atom_site_pbe_magmom
Cd  Cd0  1  0.21841152  0.50000031  0.00000000  1  0  0.935164  0  1.960079  0  0  0.770052  0  2.416357  0  0  0.81699  0  2.376474  0  1.141234  0  0.593674  0.736796  0  2.443772  0
Cd  Cd1  1  0.28158691  0.00000067  0.49999934  1  0  0.935148  0  1.960105  0  0  0.770031  0  2.41639  0  0  0.81697  0  2.376508  0  1.141236  0  0.593671  0.736776  0  2.443806  0
Cd  Cd2  1  0.71816495  0.50000098  0.99999867  1  0  0.935697  0  1.961578  0  0  0.770558  0  2.418639  0  0  0.817467  0  2.378703  0  1.142391  0  0.593645  0.737322  0  2.446095  0
Cd  Cd3  1  0.78183706  0.00000067  0.50000066  1  0  0.935696  0  1.961596  0  0  0.770567  0  2.418648  0  0  0.817477  0  2.378713  0  1.142401  0  0.593661  0.737331  0  2.446105  0
H  H4  1  0.19449341  0.50334036  0.20130957  1  0  0.068424  0  0.968122  0  0  0.075945  0  1.037411  0  0  0.07815  0  1.034546  0  0.115784  0  0.101183  0.074203  0  1.039596  0
H  H5  1  0.19449745  0.49665692  0.79869043  1  0  0.068453  0  0.968083  0  0  0.075951  0  1.037392  0  0  0.078161  0  1.034521  0  0.115721  0  0.10119  0.074208  0  1.039577  0
H  H6  1  0.30550232  0.00334138  0.29868911  1  0  0.068431  0  0.968136  0  0  0.075945  0  1.037414  0  0  0.078177  0  1.034521  0  0.11575  0  0.101198  0.074203  0  1.039598  0
H  H7  1  0.30550366  0.99665657  0.70131023  1  0  0.068425  0  0.968096  0  0  0.075922  0  1.037406  0  0  0.078133  0  1.034536  0  0.115725  0  0.101175  0.07418  0  1.039589  0
H  H8  1  0.69449184  0.70190146  0.00205391  1  0  0.067459  0  0.969011  0  0  0.075473  0  1.037645  0  0  0.077638  0  1.034884  0  0.136871  0  0.100853  0.073768  0  1.039775  0
H  H9  1  0.69448376  0.29810317  0.99794277  1  0  0.067404  0  0.969063  0  0  0.075422  0  1.0377  0  0  0.077585  0  1.034944  0  0.136864  0  0.100826  0.07373  0  1.039817  0
H  H10  1  0.80551286  0.79809747  0.50205789  1  0  0.06746  0  0.968993  0  0  0.075457  0  1.037646  0  0  0.077623  0  1.034885  0  0.136641  0  0.100816  0.073742  0  1.039785  0
H  H11  1  0.80551286  0.20190115  0.49794410  1  0  0.067471  0  0.968982  0  0  0.075521  0  1.037578  0  0  0.077689  0  1.034812  0  0.136692  0  0.100852  0.073793  0  1.039728  0
H  H12  1  0.13295761  0.41980713  0.34070600  1  0  0.090314  0  0.960786  0  0  0.102655  0  1.018678  0  0  0.105736  0  1.018098  0  0.075716  0  0.101264  0.100507  0  1.019151  0
H  H13  1  0.13296300  0.58018949  0.65929334  1  0  0.090276  0  0.960841  0  0  0.102697  0  1.01866  0  0  0.105763  0  1.018096  0  0.075676  0  0.101272  0.100548  0  1.019132  0
H  H14  1  0.36703947  0.91980744  0.15929201  1  0  0.090363  0  0.960705  0  0  0.10271  0  1.018601  0  0  0.105765  0  1.018049  0  0.075688  0  0.101269  0.100561  0  1.019074  0
H  H15  1  0.36703543  0.08018984  0.84070865  1  0  0.090336  0  0.960784  0  0  0.102717  0  1.01865  0  0  0.105773  0  1.018098  0  0.075639  0  0.101281  0.100567  0  1.019125  0
H  H16  1  0.63196932  0.84210793  0.91908821  1  0  0.09021  0  0.960858  0  0  0.103074  0  1.017914  0  0  0.106073  0  1.017392  0  0.05737  0  0.101773  0.100957  0  1.018381  0
H  H17  1  0.63196798  0.15789536  0.08090714  1  0  0.090212  0  0.960853  0  0  0.103066  0  1.017918  0  0  0.106066  0  1.017396  0  0.05748  0  0.101748  0.100949  0  1.018388  0
H  H18  1  0.86803134  0.65789100  0.41909020  1  0  0.090129  0  0.960857  0  0  0.103027  0  1.017889  0  0  0.106026  0  1.017365  0  0.057329  0  0.101746  0.10091  0  1.018358  0
H  H19  1  0.86803403  0.34210762  0.58091046  1  0  0.090177  0  0.960875  0  0  0.103085  0  1.017888  0  0  0.106082  0  1.017368  0  0.057337  0  0.101761  0.100967  0  1.018358  0
H  H20  1  0.10670128  0.25143337  0.33446864  1  0  0.104658  0  0.948909  0  0  0.11691  0  1.007849  0  0  0.11956  0  1.00586  0  0.109521  0  0.102803  0.11492  0  1.009351  0
H  H21  1  0.10670128  0.74856324  0.66552937  1  0  0.104695  0  0.948834  0  0  0.116958  0  1.007758  0  0  0.119606  0  1.005768  0  0.109395  0  0.102816  0.114956  0  1.009274  0
H  H22  1  0.39329446  0.75143368  0.16553069  1  0  0.104687  0  0.948846  0  0  0.116923  0  1.007815  0  0  0.119567  0  1.005823  0  0.109527  0  0.102797  0.114929  0  1.009313  0
H  H23  1  0.39329176  0.24856360  0.83447130  1  0  0.104704  0  0.948834  0  0  0.116937  0  1.007802  0  0  0.119583  0  1.005812  0  0.10955  0  0.102818  0.114943  0  1.009297  0
H  H24  1  0.60593510  0.83572711  0.75190497  1  0  0.104473  0  0.948703  0  0  0.116915  0  1.007449  0  0  0.119515  0  1.005529  0  0.105668  0  0.103173  0.114991  0  1.008855  0
H  H25  1  0.60594048  0.16427285  0.24809038  1  0  0.104457  0  0.948758  0  0  0.116884  0  1.007516  0  0  0.119484  0  1.005595  0  0.105837  0  0.103152  0.114959  0  1.008925  0
H  H26  1  0.89406556  0.66427316  0.25190763  1  0  0.104454  0  0.948716  0  0  0.116875  0  1.007484  0  0  0.119477  0  1.005564  0  0.105709  0  0.103161  0.114952  0  1.008889  0
H  H27  1  0.89406422  0.33572680  0.74809304  1  0  0.104458  0  0.948762  0  0  0.116893  0  1.007511  0  0  0.11949  0  1.00559  0  0.105669  0  0.103161  0.114969  0  1.008917  0
H  H28  1  0.11463673  0.11391897  0.24332513  1  0  0.099705  0  0.982293  0  0  0.10809  0  1.049608  0  0  0.110808  0  1.048342  0  0.112815  0  0.091445  0.106056  0  1.050632  0
H  H29  1  0.11462596  0.88607697  0.75667155  1  0  0.099724  0  0.98234  0  0  0.108081  0  1.049682  0  0  0.110806  0  1.048418  0  0.112922  0  0.091444  0.106044  0  1.050712  0
H  H30  1  0.38536035  0.61391995  0.25667354  1  0  0.099731  0  0.982306  0  0  0.108105  0  1.049628  0  0  0.110823  0  1.048359  0  0.112818  0  0.091463  0.106068  0  1.050656  0
H  H31  1  0.38536842  0.38607733  0.74333044  1  0  0.099715  0  0.982364  0  0  0.108077  0  1.049699  0  0  0.110799  0  1.048434  0  0.112842  0  0.091438  0.106039  0  1.05073  0
H  H32  1  0.61485323  0.74427062  0.61551179  1  0  0.099753  0  0.98457  0  0  0.108452  0  1.051469  0  0  0.11125  0  1.050145  0  0.127188  0  0.090828  0.106311  0  1.052634  0
H  H33  1  0.61486939  0.25572667  0.38448490  1  0  0.099739  0  0.984675  0  0  0.108399  0  1.051616  0  0  0.11118  0  1.050313  0  0.12716  0  0.09081  0.106282  0  1.052757  0
H  H34  1  0.88514339  0.75572898  0.11551776  1  0  0.099793  0  0.984629  0  0  0.108455  0  1.051552  0  0  0.111235  0  1.050251  0  0.12723  0  0.090877  0.106354  0  1.052679  0
H  H35  1  0.88513935  0.24427097  0.88448755  1  0  0.099793  0  0.984562  0  0  0.108496  0  1.051454  0  0  0.111299  0  1.050123  0  0.127192  0  0.090845  0.106354  0  1.052621  0
H  H36  1  0.15453209  0.04109927  0.09606600  1  0  0.080028  0  0.96486  0  0  0.093442  0  1.022832  0  0  0.095846  0  1.022528  0  0.078703  0  0.095039  0.091706  0  1.023165  0
H  H37  1  0.15452402  0.95890135  0.90392803  1  0  0.080186  0  0.964624  0  0  0.093561  0  1.022645  0  0  0.095967  0  1.022336  0  0.078779  0  0.095044  0.091826  0  1.022977  0
H  H38  1  0.34546768  0.54109892  0.40393201  1  0  0.079942  0  0.964863  0  0  0.093417  0  1.022772  0  0  0.095821  0  1.022467  0  0.078723  0  0.095009  0.09168  0  1.023106  0
H  H39  1  0.34547575  0.45890304  0.59607263  1  0  0.080187  0  0.964687  0  0  0.093553  0  1.022724  0  0  0.09596  0  1.022413  0  0.078747  0  0.095047  0.091818  0  1.023054  0
H  H40  1  0.65502859  0.59608677  0.54296490  1  0  0.081166  0  0.961509  0  0  0.094206  0  1.01969  0  0  0.096612  0  1.019385  0  0.031189  0  0.095255  0.092472  0  1.019993  0
H  H41  1  0.65503128  0.40391251  0.45703311  1  0  0.08117  0  0.961458  0  0  0.094199  0  1.019664  0  0  0.096609  0  1.019359  0  0.031325  0  0.095259  0.092465  0  1.019967  0
H  H42  1  0.84497207  0.90391416  0.04296954  1  0  0.081104  0  0.961431  0  0  0.094132  0  1.019649  0  0  0.096541  0  1.019344  0  0.031359  0  0.095236  0.092399  0  1.019949  0
H  H43  1  0.84496400  0.09608513  0.95703377  1  0  0.081134  0  0.961479  0  0  0.094168  0  1.019671  0  0  0.096577  0  1.019367  0  0.031233  0  0.095236  0.092434  0  1.019973  0
H  H44  1  0.21653904  0.13450034  0.96191114  1  0  0.07722  0  0.971033  0  0  0.089276  0  1.032458  0  0  0.091549  0  1.031928  0  0.054261  0  0.095071  0.087616  0  1.032899  0
H  H45  1  0.21653770  0.86550229  0.03808421  1  0  0.077312  0  0.970887  0  0  0.089257  0  1.032439  0  0  0.091546  0  1.031893  0  0.054352  0  0.095067  0.087597  0  1.03288  0
H  H46  1  0.28346207  0.63449998  0.53808753  1  0  0.077249  0  0.970961  0  0  0.089266  0  1.032433  0  0  0.091555  0  1.031888  0  0.054291  0  0.095061  0.087607  0  1.032873  0
H  H47  1  0.28346477  0.36550331  0.46191579  1  0  0.077307  0  0.970894  0  0  0.089249  0  1.032448  0  0  0.091537  0  1.031904  0  0.054274  0  0.095064  0.08759  0  1.032887  0
H  H48  1  0.71676093  0.46088436  0.63558649  1  0  0.076872  0  0.973673  0  0  0.088744  0  1.03544  0  0  0.090923  0  1.034997  0  0.051006  0  0.094729  0.087113  0  1.035849  0
H  H49  1  0.71675824  0.53911693  0.36441219  1  0  0.076899  0  0.973622  0  0  0.08877  0  1.035397  0  0  0.090949  0  1.034953  0  0.051031  0  0.09473  0.087139  0  1.035807  0
H  H50  1  0.78323839  0.03911796  0.13559179  1  0  0.076867  0  0.973648  0  0  0.088736  0  1.035428  0  0  0.090917  0  1.034981  0  0.051034  0  0.094701  0.087096  0  1.035844  0
H  H51  1  0.78323435  0.96088333  0.86441020  1  0  0.076913  0  0.973616  0  0  0.088786  0  1.035381  0  0  0.090965  0  1.034937  0  0.051026  0  0.094728  0.087154  0  1.035792  0
H  H52  1  0.24053522  0.29898495  0.97460013  1  0  0.101839  0  1.001652  0  0  0.109251  0  1.07018  0  0  0.112253  0  1.068237  0  0.090669  0  0.087157  0.107009  0  1.071769  0
H  H53  1  0.24053387  0.70101768  0.02539854  1  0  0.101876  0  1.001615  0  0  0.109264  0  1.070186  0  0  0.112267  0  1.068244  0  0.090764  0  0.087156  0.107022  0  1.071775  0
H  H54  1  0.25946590  0.79898459  0.52539987  1  0  0.101839  0  1.00164  0  0  0.109248  0  1.070177  0  0  0.11225  0  1.068234  0  0.090679  0  0.087148  0.107006  0  1.071766  0
H  H55  1  0.25946590  0.20101937  0.47460278  1  0  0.101895  0  1.001603  0  0  0.109282  0  1.070165  0  0  0.112282  0  1.068225  0  0.090797  0  0.087167  0.107041  0  1.071755  0
H  H56  1  0.74061307  0.47340218  0.79895115  1  0  0.101642  0  0.999753  0  0  0.109158  0  1.068278  0  0  0.11218  0  1.066375  0  0.118597  0  0.086898  0.106887  0  1.069886  0
H  H57  1  0.74061845  0.52659911  0.20104752  1  0  0.101589  0  0.999827  0  0  0.109137  0  1.068309  0  0  0.11216  0  1.066405  0  0.118527  0  0.086905  0.106857  0  1.069925  0
H  H58  1  0.75938490  0.02659679  0.29895712  1  0  0.101538  0  0.999926  0  0  0.109073  0  1.06842  0  0  0.112095  0  1.066516  0  0.118285  0  0.086886  0.106819  0  1.070008  0
H  H59  1  0.75938490  0.97340249  0.70104619  1  0  0.10161  0  0.999799  0  0  0.109159  0  1.068288  0  0  0.112182  0  1.066384  0  0.118578  0  0.086911  0.106882  0  1.0699  0
C  C60  1  0.18502202  0.43067230  0.20029455  1  0  0.154071  0  3.714432  0  0  0.120671  0  3.969086  0  0  0.130934  0  3.985379  0  0.472068  0  0.049694  0.11413  0  3.957866  0
C  C61  1  0.18502202  0.56932632  0.79970611  1  0  0.153967  0  3.714348  0  0  0.120593  0  3.969018  0  0  0.13085  0  3.985305  0  0.472052  0  0.049647  0.114054  0  3.957802  0
C  C62  1  0.31497641  0.93067261  0.29970478  1  0  0.154036  0  3.714563  0  0  0.120662  0  3.969196  0  0  0.130904  0  3.985475  0  0.472051  0  0.049701  0.114121  0  3.957977  0
C  C63  1  0.31497910  0.06932668  0.70029588  1  0  0.154046  0  3.714514  0  0  0.120681  0  3.969168  0  0  0.130941  0  3.985452  0  0.472054  0  0.049704  0.114141  0  3.957947  0
C  C64  1  0.68486429  0.70079056  0.92986858  1  0  0.154633  0  3.712192  0  0  0.120876  0  3.967232  0  0  0.131101  0  3.983503  0  0.460318  0  0.04978  0.114335  0  3.955994  0
C  C65  1  0.68486295  0.29921073  0.07012744  1  0  0.154641  0  3.712299  0  0  0.120874  0  3.967345  0  0  0.131099  0  3.983617  0  0.460515  0  0.049773  0.114323  0  3.956103  0
C  C66  1  0.81513906  0.79920971  0.42987256  1  0  0.154534  0  3.712137  0  0  0.1208  0  3.967176  0  0  0.131025  0  3.983447  0  0.460554  0  0.049783  0.114269  0  3.955943  0
C  C67  1  0.81513906  0.20079091  0.57013009  1  0  0.154632  0  3.712309  0  0  0.120854  0  3.967346  0  0  0.131078  0  3.983622  0  0.46046  0  0.049773  0.114334  0  3.956113  0
C  C68  1  0.15085446  0.38289293  0.27907614  1  0  -0.129334  0  3.765783  0  0  -0.14172  0  4.021287  0  0  -0.150026  0  4.043092  0  -0.013374  0  -0.09121  -0.13638  0  4.006519  0
C  C69  1  0.15085446  0.61710368  0.72092320  1  0  -0.129327  0  3.765682  0  0  -0.141785  0  4.021172  0  0  -0.15008  0  4.042983  0  -0.013391  0  -0.091257  -0.136446  0  4.006404  0
C  C70  1  0.34914262  0.88289391  0.22092253  1  0  -0.129451  0  3.765708  0  0  -0.141851  0  4.021198  0  0  -0.150136  0  4.043014  0  -0.013355  0  -0.091264  -0.136513  0  4.00643  0
C  C71  1  0.34914531  0.11710404  0.77907879  1  0  -0.12943  0  3.765674  0  0  -0.141864  0  4.021179  0  0  -0.150151  0  4.042989  0  -0.013403  0  -0.091272  -0.136525  0  4.006411  0
C  C72  1  0.65024847  0.78008260  0.88244956  1  0  -0.128463  0  3.764626  0  0  -0.14108  0  4.020354  0  0  -0.149271  0  4.042041  0  -0.005551  0  -0.091298  -0.135808  0  4.005655  0
C  C73  1  0.65024847  0.21991936  0.11754579  1  0  -0.128461  0  3.764563  0  0  -0.141072  0  4.020298  0  0  -0.149264  0  4.041982  0  -0.005971  0  -0.09129  -0.135802  0  4.005604  0
C  C74  1  0.84975219  0.71991700  0.38245155  1  0  -0.128297  0  3.764543  0  0  -0.140938  0  4.020257  0  0  -0.149126  0  4.041948  0  -0.005672  0  -0.091248  -0.135667  0  4.005558  0
C  C75  1  0.84975489  0.28008295  0.61754778  1  0  -0.128478  0  3.764583  0  0  -0.141146  0  4.02033  0  0  -0.149336  0  4.04202  0  -0.005567  0  -0.091293  -0.135872  0  4.005624  0
C  C76  1  0.13566738  0.29133557  0.27556605  1  0  -0.035623  0  3.678396  0  0  -0.060309  0  3.923734  0  0  -0.056513  0  3.941431  0  -0.042485  0  -0.06223  -0.062452  0  3.911666  0
C  C77  1  0.13566738  0.70866104  0.72443594  1  0  -0.035623  0  3.678423  0  0  -0.060321  0  3.923795  0  0  -0.056523  0  3.941485  0  -0.042248  0  -0.062218  -0.062453  0  3.911731  0
C  C78  1  0.36432836  0.79133521  0.22443461  1  0  -0.035611  0  3.678314  0  0  -0.060266  0  3.92369  0  0  -0.056456  0  3.941366  0  -0.042463  0  -0.062211  -0.062398  0  3.911627  0
C  C79  1  0.36432836  0.20866207  0.77556473  1  0  -0.035579  0  3.678278  0  0  -0.060221  0  3.923677  0  0  -0.056415  0  3.941358  0  -0.042453  0  -0.062226  -0.062352  0  3.911615  0
C  C80  1  0.63516235  0.77647869  0.79152431  1  0  -0.037133  0  3.682248  0  0  -0.061711  0  3.928266  0  0  -0.057884  0  3.94593  0  -0.044985  0  -0.06288  -0.063883  0  3.916193  0
C  C81  1  0.63517177  0.22352127  0.20847436  1  0  -0.037122  0  3.682171  0  0  -0.061676  0  3.928176  0  0  -0.05785  0  3.945836  0  -0.044983  0  -0.062855  -0.06385  0  3.916104  0
C  C82  1  0.86483562  0.72352225  0.29152696  1  0  -0.037173  0  3.682318  0  0  -0.061738  0  3.928352  0  0  -0.057915  0  3.946018  0  -0.04489  0  -0.062915  -0.063914  0  3.916282  0
C  C83  1  0.86483697  0.27647904  0.70847702  1  0  -0.037116  0  3.682162  0  0  -0.061679  0  3.928183  0  0  -0.057847  0  3.94584  0  -0.044965  0  -0.062884  -0.063852  0  3.916112  0
C  C84  1  0.15695513  0.24748811  0.19289624  1  0  0.016223  0  3.770069  0  0  0.036427  0  3.994113  0  0  0.032275  0  4.019308  0  -0.021288  0  -0.004253  0.038899  0  3.97725  0
C  C85  1  0.15694975  0.75250918  0.80710177  1  0  0.016218  0  3.770201  0  0  0.036409  0  3.994255  0  0  0.032265  0  4.019451  0  -0.02133  0  -0.0042  0.038878  0  3.977388  0
C  C86  1  0.34304195  0.74748842  0.30710376  1  0  0.016226  0  3.770127  0  0  0.036347  0  3.994275  0  0  0.03219  0  4.019472  0  -0.021281  0  -0.00427  0.038818  0  3.977408  0
C  C87  1  0.34304598  0.25251020  0.69289889  1  0  0.016218  0  3.770153  0  0  0.036291  0  3.994368  0  0  0.032134  0  4.019567  0  -0.021316  0  -0.004208  0.038761  0  3.977501  0
C  C88  1  0.65693606  0.69327679  0.74804660  1  0  0.016453  0  3.772243  0  0  0.035505  0  3.997942  0  0  0.031282  0  4.023156  0  -0.030777  0  -0.004  0.038021  0  3.981063  0
C  C89  1  0.65694683  0.30672317  0.25195075  1  0  0.01644  0  3.772369  0  0  0.035536  0  3.99805  0  0  0.031319  0  4.023253  0  -0.030779  0  -0.003976  0.038051  0  3.981174  0
C  C90  1  0.84306326  0.80672281  0.24804925  1  0  0.016334  0  3.772562  0  0  0.035473  0  3.998228  0  0  0.031253  0  4.023435  0  -0.030901  0  -0.003969  0.037988  0  3.981359  0
C  C91  1  0.84306056  0.19327714  0.75195141  1  0  0.01643  0  3.772375  0  0  0.035516  0  3.998081  0  0  0.031297  0  4.023289  0  -0.030803  0  -0.004001  0.038032  0  3.981205  0
C  C92  1  0.14419648  0.15329679  0.18413926  1  0  -0.103416  0  3.735809  0  0  -0.123472  0  3.981454  0  0  -0.125375  0  4.004496  0  -0.094655  0  -0.08906  -0.121877  0  3.965792  0
C  C93  1  0.14418840  0.84670050  0.81585676  1  0  -0.103435  0  3.735983  0  0  -0.123439  0  3.981573  0  0  -0.125346  0  4.004607  0  -0.09489  0  -0.089124  -0.121848  0  3.965925  0
C  C94  1  0.35579925  0.65329710  0.31585808  1  0  -0.103422  0  3.735823  0  0  -0.123428  0  3.981493  0  0  -0.125324  0  4.004527  0  -0.094742  0  -0.089078  -0.121832  0  3.965831  0
C  C95  1  0.35580598  0.34670085  0.68414523  1  0  -0.103423  0  3.735948  0  0  -0.123398  0  3.98158  0  0  -0.125297  0  4.004613  0  -0.094829  0  -0.08912  -0.121805  0  3.965926  0
C  C96  1  0.64434298  0.68457463  0.65449624  1  0  -0.102035  0  3.733743  0  0  -0.121937  0  3.979114  0  0  -0.123895  0  4.002176  0  -0.014205  0  -0.089107  -0.120295  0  3.963503  0
C  C97  1  0.64435510  0.31542265  0.34550110  1  0  -0.102021  0  3.733835  0  0  -0.121901  0  3.979213  0  0  -0.123848  0  4.002286  0  -0.014246  0  -0.089037  -0.120278  0  3.963583  0
C  C98  1  0.85565768  0.81542630  0.15450155  1  0  -0.10212  0  3.73401  0  0  -0.12201  0  3.979406  0  0  -0.123956  0  4.002477  0  -0.014111  0  -0.089162  -0.120402  0  3.963767  0
C  C99  1  0.85565230  0.18457566  0.84550177  1  0  -0.102106  0  3.733829  0  0  -0.12203  0  3.979208  0  0  -0.123993  0  4.002271  0  -0.014137  0  -0.08911  -0.120387  0  3.963597  0
C  C100  1  0.16615461  0.11348009  0.10234448  1  0  -0.089471  0  3.814759  0  0  -0.102579  0  4.064067  0  0  -0.106541  0  4.087686  0  -0.026219  0  -0.099637  -0.099943  0  4.047871  0
C  C101  1  0.16614788  0.88651853  0.89765154  1  0  -0.089655  0  3.815023  0  0  -0.102757  0  4.064292  0  0  -0.106721  0  4.087921  0  -0.026176  0  -0.099576  -0.100122  0  4.048094  0
C  C102  1  0.33384381  0.61348174  0.39765419  1  0  -0.089463  0  3.814787  0  0  -0.102633  0  4.06408  0  0  -0.106598  0  4.087705  0  -0.026192  0  -0.09962  -0.099999  0  4.047886  0
C  C103  1  0.33385055  0.38651955  0.60234846  1  0  -0.089658  0  3.815014  0  0  -0.102751  0  4.064261  0  0  -0.106719  0  4.087889  0  -0.026157  0  -0.099575  -0.100116  0  4.048063  0
C  C104  1  0.66651515  0.60227722  0.61486894  1  0  -0.090817  0  3.810971  0  0  -0.103447  0  4.060741  0  0  -0.107432  0  4.084322  0  -0.06048  0  -0.100041  -0.100779  0  4.04453  0
C  C105  1  0.66652053  0.39772007  0.38512907  1  0  -0.090813  0  3.81092  0  0  -0.103432  0  4.060683  0  0  -0.107422  0  4.084266  0  -0.060651  0  -0.100078  -0.100764  0  4.044477  0
C  C106  1  0.83348955  0.89772171  0.11487292  1  0  -0.090597  0  3.810825  0  0  -0.103204  0  4.060562  0  0  -0.107193  0  4.084146  0  -0.060722  0  -0.09998  -0.100537  0  4.044356  0
C  C107  1  0.83348148  0.10227691  0.88512907  1  0  -0.090706  0  3.810918  0  0  -0.10331  0  4.060664  0  0  -0.107301  0  4.084255  0  -0.060661  0  -0.099985  -0.100642  0  4.044452  0
C  C108  1  0.20120389  0.16632297  0.02652766  1  0  -0.061579  0  3.792669  0  0  -0.073571  0  4.039574  0  0  -0.074708  0  4.062141  0  -0.067462  0  -0.092905  -0.072481  0  4.023986  0
C  C109  1  0.20119716  0.83367966  0.97346836  1  0  -0.061511  0  3.792736  0  0  -0.073382  0  4.039581  0  0  -0.074532  0  4.062144  0  -0.067453  0  -0.092878  -0.072296  0  4.023998  0
C  C110  1  0.29879723  0.66632261  0.47347101  1  0  -0.061496  0  3.792602  0  0  -0.073454  0  4.039505  0  0  -0.074606  0  4.062068  0  -0.067435  0  -0.092859  -0.072364  0  4.023914  0
C  C111  1  0.29880261  0.33368001  0.52653164  1  0  -0.061503  0  3.792799  0  0  -0.073378  0  4.039627  0  0  -0.074528  0  4.062191  0  -0.067419  0  -0.092876  -0.072292  0  4.024043  0
C  C112  1  0.70148097  0.52587966  0.66728010  1  0  -0.062391  0  3.792669  0  0  -0.074391  0  4.039413  0  0  -0.075408  0  4.061962  0  -0.047647  0  -0.093275  -0.07334  0  4.023834  0
C  C113  1  0.70148635  0.47411896  0.33271725  1  0  -0.062441  0  3.792631  0  0  -0.074456  0  4.039387  0  0  -0.075472  0  4.061937  0  -0.04739  0  -0.093273  -0.073405  0  4.023804  0
C  C114  1  0.79851970  0.97411994  0.16728408  1  0  -0.062525  0  3.792731  0  0  -0.074544  0  4.039475  0  0  -0.075562  0  4.062025  0  -0.047372  0  -0.093271  -0.073487  0  4.023903  0
C  C115  1  0.79851431  0.02588002  0.83271659  1  0  -0.062496  0  3.792728  0  0  -0.074501  0  4.039478  0  0  -0.075517  0  4.062028  0  -0.047434  0  -0.093284  -0.073449  0  4.023898  0
C  C116  1  0.21346851  0.25809609  0.03270531  1  0  -0.1404  0  3.722709  0  0  -0.161716  0  3.972496  0  0  -0.16649  0  3.993959  0  -0.023194  0  -0.093052  -0.158576  0  3.958037  0
C  C117  1  0.21346448  0.74190386  0.96729204  1  0  -0.140553  0  3.722781  0  0  -0.161875  0  3.972578  0  0  -0.166647  0  3.99404  0  -0.023142  0  -0.093126  -0.158737  0  3.958121  0
C  C118  1  0.28653260  0.75809774  0.46729403  1  0  -0.140462  0  3.722689  0  0  -0.161783  0  3.97247  0  0  -0.166556  0  3.993934  0  -0.02285  0  -0.093069  -0.158642  0  3.958011  0
C  C119  1  0.28653664  0.24190555  0.53270862  1  0  -0.140572  0  3.722922  0  0  -0.161874  0  3.972682  0  0  -0.166648  0  3.994144  0  -0.023037  0  -0.093141  -0.158738  0  3.958228  0
C  C120  1  0.71368097  0.53200130  0.75844816  1  0  -0.140071  0  3.721179  0  0  -0.161509  0  3.970885  0  0  -0.166375  0  3.992292  0  -0.052513  0  -0.092238  -0.158313  0  3.956479  0
C  C121  1  0.71369174  0.46799866  0.24154985  1  0  -0.140074  0  3.721217  0  0  -0.161479  0  3.970917  0  0  -0.166343  0  3.992323  0  -0.052567  0  -0.092262  -0.158276  0  3.956517  0
C  C122  1  0.78631565  0.96800030  0.25845280  1  0  -0.139975  0  3.72117  0  0  -0.16133  0  3.970865  0  0  -0.166194  0  3.992272  0  -0.052294  0  -0.092227  -0.158148  0  3.95645  0
C  C123  1  0.78631296  0.03200166  0.74154985  1  0  -0.140078  0  3.721269  0  0  -0.161508  0  3.970987  0  0  -0.166373  0  3.992393  0  -0.052579  0  -0.092304  -0.158306  0  3.956584  0
C  C124  1  0.19158980  0.30094889  0.11577383  1  0  0.206472  0  3.741994  0  0  0.204603  0  3.976111  0  0  0.211078  0  3.999227  0  0.493347  0  0.109151  0.200323  0  3.960527  0
C  C125  1  0.19158980  0.69904906  0.88422551  1  0  0.206523  0  3.742029  0  0  0.204658  0  3.976153  0  0  0.21113  0  3.999268  0  0.493348  0  0.109178  0.200383  0  3.960571  0
C  C126  1  0.30840458  0.80094987  0.38422484  1  0  0.20648  0  3.741929  0  0  0.204632  0  3.976072  0  0  0.21111  0  3.999187  0  0.493004  0  0.109175  0.200353  0  3.960489  0
C  C127  1  0.30840862  0.19905008  0.61577516  1  0  0.206486  0  3.742091  0  0  0.204662  0  3.976224  0  0  0.211141  0  3.999338  0  0.49324  0  0.109186  0.200384  0  3.960638  0
C  C128  1  0.69167708  0.61559999  0.80109197  1  0  0.206558  0  3.74268  0  0  0.204875  0  3.977067  0  0  0.211473  0  4.000014  0  0.477112  0  0.109523  0.200514  0  3.96159  0
C  C129  1  0.69169054  0.38440130  0.19890870  1  0  0.206764  0  3.742541  0  0  0.204953  0  3.97708  0  0  0.211548  0  4.000031  0  0.477085  0  0.109589  0.200595  0  3.961595  0
C  C130  1  0.80832359  0.88439960  0.30109595  1  0  0.20678  0  3.7424  0  0  0.204902  0  3.977036  0  0  0.211499  0  3.999987  0  0.477128  0  0.109529  0.200542  0  3.961557  0
C  C131  1  0.80831820  0.11560035  0.69890936  1  0  0.206753  0  3.74251  0  0  0.204969  0  3.97704  0  0  0.211566  0  3.999989  0  0.477087  0  0.109616  0.200609  0  3.961561  0
N  N132  1  0.20358789  0.39229717  0.12152889  1  0  -0.35802  0  3.196555  0  0  -0.289428  0  3.456256  0  0  -0.310234  0  3.476413  0  -1.241281  0  -0.320236  -0.275281  0  3.442144  0
N  N133  1  0.20358789  0.60770212  0.87847178  1  0  -0.357993  0  3.196546  0  0  -0.289406  0  3.456244  0  0  -0.310217  0  3.47642  0  -1.241349  0  -0.320212  -0.275247  0  3.442096  0
N  N134  1  0.29641053  0.89229681  0.37847045  1  0  -0.357971  0  3.19662  0  0  -0.289388  0  3.456325  0  0  -0.310197  0  3.476496  0  -1.241294  0  -0.320231  -0.275238  0  3.4422  0
N  N135  1  0.29641188  0.10770315  0.62152955  1  0  -0.358004  0  3.196635  0  0  -0.289426  0  3.456323  0  0  -0.310233  0  3.476485  0  -1.241261  0  -0.320243  -0.275275  0  3.442202  0
N  N136  1  0.70363613  0.62144040  0.89183479  1  0  -0.358099  0  3.193872  0  0  -0.2895  0  3.453647  0  0  -0.31025  0  3.473666  0  -1.237455  0  -0.320354  -0.275402  0  3.439681  0
N  N137  1  0.70364420  0.37856089  0.10816322  1  0  -0.358186  0  3.193798  0  0  -0.289544  0  3.453623  0  0  -0.310294  0  3.473646  0  -1.237435  0  -0.320386  -0.275443  0  3.439655  0
N  N138  1  0.79636454  0.87856053  0.39183678  1  0  -0.358083  0  3.19374  0  0  -0.289469  0  3.453636  0  0  -0.310221  0  3.47366  0  -1.237513  0  -0.320345  -0.275368  0  3.439661  0
N  N139  1  0.79636184  0.12144076  0.60816322  1  0  -0.358174  0  3.193808  0  0  -0.28956  0  3.453657  0  0  -0.310313  0  3.473682  0  -1.237402  0  -0.320395  -0.275461  0  3.43968  0
Cl  Cl140  1  0.46605701  0.41403085  0.90962073  1  0  -0.548447  0  1.05732  0  0  -0.489297  0  1.346491  0  0  -0.506591  0  1.325475  0  -0.643388  0  -0.27697  -0.476564  0  1.361041  0
Cl  Cl141  1  0.46605971  0.58596977  0.09037927  1  0  -0.548454  0  1.057293  0  0  -0.489321  0  1.34649  0  0  -0.50661  0  1.32547  0  -0.643379  0  -0.276977  -0.476588  0  1.361039  0
Cl  Cl142  1  0.03394276  0.91403049  0.59037927  1  0  -0.548453  0  1.057301  0  0  -0.489307  0  1.346482  0  0  -0.506606  0  1.325476  0  -0.6434  0  -0.276979  -0.476569  0  1.361027  0
Cl  Cl143  1  0.03394276  0.08597013  0.40962073  1  0  -0.548455  0  1.057306  0  0  -0.489322  0  1.346512  0  0  -0.506614  0  1.325496  0  -0.643386  0  -0.27698  -0.476588  0  1.361061  0
Cl  Cl144  1  0.96583467  0.40892926  0.91501622  1  0  -0.548317  0  1.0608  0  0  -0.489168  0  1.350693  0  0  -0.506453  0  1.329624  0  -0.643134  0  -0.276531  -0.476408  0  1.365227  0
Cl  Cl145  1  0.96583467  0.59107203  0.08498245  1  0  -0.548306  0  1.060798  0  0  -0.489142  0  1.35066  0  0  -0.506438  0  1.32961  0  -0.643187  0  -0.276537  -0.476388  0  1.365204  0
Cl  Cl146  1  0.53416464  0.09107172  0.41501688  1  0  -0.548295  0  1.060782  0  0  -0.489143  0  1.350681  0  0  -0.50643  0  1.329615  0  -0.64314  0  -0.276524  -0.476385  0  1.365219  0
Cl  Cl147  1  0.53416464  0.90892891  0.58498245  1  0  -0.548321  0  1.060816  0  0  -0.489154  0  1.350689  0  0  -0.506446  0  1.329631  0  -0.643139  0  -0.276536  -0.476393  0  1.365221  0
