# generated using pymatgen
data_CdH9C6SN5O6
_symmetry_space_group_name_H-M   'P 1'
_cell_length_a   6.63624265
_cell_length_b   9.58830851
_cell_length_c   11.02025886
_cell_angle_alpha   108.36907744
_cell_angle_beta   108.58065150
_cell_angle_gamma   102.97552698
_symmetry_Int_Tables_number   1
_chemical_formula_structural   CdH9C6SN5O6
_chemical_formula_sum   'Cd2 H18 C12 S2 N10 O12'
_cell_volume   588.21210213
_cell_formula_units_Z   2
loop_
 _symmetry_equiv_pos_site_id
 _symmetry_equiv_pos_as_xyz
  1  'x, y, z'
loop_
 _atom_site_type_symbol
 _atom_site_label
 _atom_site_symmetry_multiplicity
 _atom_site_fract_x
 _atom_site_fract_y
 _atom_site_fract_z
 _atom_site_occupancy
 _atom_site_hle17_bader_spin_density
 _atom_site_hle17_ddec_charge
 _atom_site_hle17_ddec_spin_density
 _atom_site_hle17_ddec_sum_bond_order
 _atom_site_hle17_magmom
 _atom_site_hse06_10hf_bader_spin_density
 _atom_site_hse06_10hf_ddec_charge
 _atom_site_hse06_10hf_ddec_spin_density
 _atom_site_hse06_10hf_ddec_sum_bond_order
 _atom_site_hse06_10hf_magmom
 _atom_site_hse06_bader_spin_density
 _atom_site_hse06_ddec_charge
 _atom_site_hse06_ddec_spin_density
 _atom_site_hse06_ddec_sum_bond_order
 _atom_site_hse06_magmom
 _atom_site_pbe_bader_spin_density
 _atom_site_pbe_cm5_charge
 _atom_site_pbe_ddec_charge
 _atom_site_pbe_ddec_spin_density
 _atom_site_pbe_ddec_sum_bond_order
 _atom_site_pbe_magmom
Cd  Cd0  1  0.01853449  0.81880981  0.62812669  1  0  1.267684  0  1.607382  0  0  1.077115  0  2.076093  0  0  1.128634  0  2.017615  0  0  0.832836  1.039326  0  2.117066  0
Cd  Cd1  1  0.98146674  0.18118767  0.37187799  1  0  1.267706  0  1.607412  0  0  1.077158  0  2.07606  0  0  1.128651  0  2.017638  0  0  0.832853  1.039374  0  2.117037  0
H  H2  1  0.85767002  0.86117889  0.14269177  1  0  0.322308  0  0.91055  0  0  0.297686  0  0.975498  0  0  0.307532  0  0.967728  0  0  0.325241  0.29061  0  0.981193  0
H  H3  1  0.14232606  0.13881480  0.85730370  1  0  0.322321  0  0.910522  0  0  0.297661  0  0.975526  0  0  0.307504  0  0.967764  0  0  0.325256  0.290583  0  0.981221  0
H  H4  1  0.72565101  0.65101065  0.91356925  1  0  0.11887  0  0.968099  0  0  0.125985  0  1.032184  0  0  0.12956  0  1.0305  0  0  0.105383  0.123551  0  1.033425  0
H  H5  1  0.27433189  0.34898158  0.08643070  1  0  0.118875  0  0.968068  0  0  0.12598  0  1.032144  0  0  0.129554  0  1.030464  0  0  0.105385  0.123546  0  1.033389  0
H  H6  1  0.65973636  0.11979489  0.88355419  1  0  0.076945  0  0.970852  0  0  0.082476  0  1.037554  0  0  0.085534  0  1.034991  0  0  0.104657  0.080405  0  1.039327  0
H  H7  1  0.34026815  0.88021751  0.11644236  1  0  0.076983  0  0.970611  0  0  0.082466  0  1.037391  0  0  0.085526  0  1.034826  0  0  0.104623  0.080394  0  1.039164  0
H  H8  1  0.60884286  0.42435947  0.69021500  1  0  0.09387  0  0.932942  0  0  0.101053  0  0.995302  0  0  0.103967  0  0.992879  0  0  0.112991  0.098746  0  0.997448  0
H  H9  1  0.39115214  0.57564138  0.30979490  1  0  0.093856  0  0.932781  0  0  0.101006  0  0.99523  0  0  0.103919  0  0.992811  0  0  0.112962  0.098703  0  0.997369  0
H  H10  1  0.78089513  0.33477264  0.12095488  1  0  0.115405  0  0.948142  0  0  0.128095  0  1.005023  0  0  0.131069  0  1.003705  0  0  0.111045  0.125744  0  1.006316  0
H  H11  1  0.21910602  0.66522480  0.87904797  1  0  0.115366  0  0.948193  0  0  0.128054  0  1.005076  0  0  0.131025  0  1.003764  0  0  0.111023  0.125707  0  1.006359  0
H  H12  1  0.00707192  0.51737213  0.64190777  1  0  0.402945  0  0.90643  0  0  0.362624  0  0.989245  0  0  0.373549  0  0.973348  0  0  0.288783  0.354911  0  1.00044  0
H  H13  1  0.99292219  0.48262390  0.35809251  1  0  0.402976  0  0.90641  0  0  0.36266  0  0.989197  0  0  0.373584  0  0.9733  0  0  0.288821  0.354949  0  1.000388  0
H  H14  1  0.77422462  0.49489460  0.52189393  1  0  0.438648  0  0.860832  0  0  0.40871  0  0.921846  0  0  0.419589  0  0.90611  0  0  0.2917  0.400967  0  0.933035  0
H  H15  1  0.22577281  0.50510248  0.47809635  1  0  0.438706  0  0.860746  0  0  0.408747  0  0.921814  0  0  0.419628  0  0.906073  0  0  0.291721  0.401001  0  0.933012  0
H  H16  1  0.22552064  0.01971050  0.97900361  1  0  0.446141  0  0.840684  0  0  0.417681  0  0.897979  0  0  0.428414  0  0.882318  0  0  0.30321  0.409875  0  0.909321  0
H  H17  1  0.77447708  0.98028326  0.02099310  1  0  0.446106  0  0.840733  0  0  0.417637  0  0.898046  0  0  0.428371  0  0.882381  0  0  0.303169  0.40983  0  0.90939  0
H  H18  1  0.95951651  0.92867011  0.87263342  1  0  0.419592  0  0.896782  0  0  0.384434  0  0.967937  0  0  0.395505  0  0.952062  0  0  0.28713  0.376528  0  0.979262  0
H  H19  1  0.04049240  0.07133091  0.12736362  1  0  0.419552  0  0.896814  0  0  0.384422  0  0.967929  0  0  0.395494  0  0.952053  0  0  0.287107  0.376519  0  0.979251  0
C  C20  1  0.84036347  0.64057111  0.17533812  1  0  0.314422  0  3.718463  0  0  0.277262  0  3.986683  0  0  0.290047  0  4.001157  0  0  0.255106  0.268833  0  3.97667  0
C  C21  1  0.15963073  0.35942844  0.82466492  1  0  0.314314  0  3.718472  0  0  0.277283  0  3.98651  0  0  0.290069  0  4.000982  0  0  0.255091  0.26886  0  3.976483  0
C  C22  1  0.76823587  0.51252559  0.03849152  1  0  0.012121  0  3.838877  0  0  0.028745  0  4.072236  0  0  0.028  0  4.09607  0  0  0.001779  0.029225  0  4.056153  0
C  C23  1  0.23176379  0.48747533  0.96151470  1  0  0.012088  0  3.83881  0  0  0.028687  0  4.072109  0  0  0.02794  0  4.095945  0  0  0.001772  0.029173  0  4.056017  0
C  C24  1  0.71698664  0.53660032  0.91494975  1  0  -0.142233  0  3.688152  0  0  -0.165  0  3.939541  0  0  -0.170265  0  3.960744  0  0  -0.084889  -0.161416  0  3.925194  0
C  C25  1  0.28301675  0.46339839  0.08505565  1  0  -0.142128  0  3.688041  0  0  -0.164841  0  3.939392  0  0  -0.170108  0  3.960598  0  0  -0.084838  -0.161266  0  3.92506  0
C  C26  1  0.67979134  0.24028482  0.89627048  1  0  0.097158  0  3.742742  0  0  0.075142  0  4.008892  0  0  0.078444  0  4.027015  0  0  0.02817  0.07307  0  3.996445  0
C  C27  1  0.32021140  0.75971266  0.10373176  1  0  0.097051  0  3.74281  0  0  0.075058  0  4.008979  0  0  0.07836  0  4.027106  0  0  0.028116  0.072987  0  3.996532  0
C  C28  1  0.65028025  0.40797761  0.78763099  1  0  0.117578  0  3.704934  0  0  0.09207  0  3.975172  0  0  0.09654  0  3.991624  0  0  0.039762  0.08914  0  3.964416  0
C  C29  1  0.34972566  0.59202689  0.21237188  1  0  0.117595  0  3.704745  0  0  0.09204  0  3.975064  0  0  0.096509  0  3.991521  0  0  0.039763  0.089108  0  3.964314  0
C  C30  1  0.74634555  0.35974320  0.02822499  1  0  -0.139369  0  3.708216  0  0  -0.16096  0  3.953512  0  0  -0.166248  0  3.975743  0  0  -0.084288  -0.157268  0  3.938547  0
C  C31  1  0.25365551  0.64026462  0.97177788  1  0  -0.139296  0  3.708177  0  0  -0.160883  0  3.953466  0  0  -0.16617  0  3.975702  0  0  -0.084224  -0.157195  0  3.938488  0
S  S32  1  0.54277519  0.79237586  0.69489711  1  0  1.606834  0  5.800912  0  0  1.482067  0  6.335796  0  0  1.538836  0  6.300919  0  0  0.569168  1.442547  0  6.358522  0
S  S33  1  0.45723530  0.20762867  0.30510025  1  0  1.606893  0  5.800671  0  0  1.482108  0  6.335629  0  0  1.538884  0  6.300727  0  0  0.569136  1.44257  0  6.358378  0
N  N34  1  0.94183862  0.77424604  0.39541021  1  0  -0.087888  0  3.154865  0  0  -0.043238  0  3.459463  0  0  -0.050785  0  3.472552  0  0  -0.074094  -0.03794  0  3.450064  0
N  N35  1  0.05817054  0.22575512  0.60459327  1  0  -0.087861  0  3.155023  0  0  -0.043172  0  3.459576  0  0  -0.050713  0  3.472661  0  0  -0.074071  -0.037882  0  3.450181  0
N  N36  1  0.89028682  0.62937397  0.29889821  1  0  -0.258121  0  2.95007  0  0  -0.225454  0  3.217479  0  0  -0.236671  0  3.231253  0  0  -0.177921  -0.217702  0  3.208101  0
N  N37  1  0.10970184  0.37062416  0.70109982  1  0  -0.258142  0  2.949898  0  0  -0.22553  0  3.217267  0  0  -0.236745  0  3.231036  0  0  -0.177953  -0.21778  0  3.207888  0
N  N38  1  0.86552720  0.79242685  0.20186088  1  0  -0.217442  0  3.382011  0  0  -0.155375  0  3.618273  0  0  -0.170887  0  3.63419  0  0  -0.229449  -0.144988  0  3.607483  0
N  N39  1  0.13446865  0.20757625  0.79814433  1  0  -0.217397  0  3.382185  0  0  -0.155349  0  3.618432  0  0  -0.170868  0  3.634358  0  0  -0.229417  -0.144972  0  3.607645  0
N  N40  1  0.63350181  0.26229935  0.77718411  1  0  -0.278236  0  3.023763  0  0  -0.257544  0  3.303388  0  0  -0.265119  0  3.317095  0  0  -0.325255  -0.252891  0  3.294939  0
N  N41  1  0.36648589  0.73769996  0.22281679  1  0  -0.278162  0  3.023845  0  0  -0.257439  0  3.303447  0  0  -0.265014  0  3.317155  0  0  -0.325186  -0.252785  0  3.295003  0
N  N42  1  0.92817023  0.87448844  0.33885299  1  0  -0.023998  0  2.934403  0  0  -0.019376  0  3.22174  0  0  -0.018725  0  3.233957  0  0  -0.051706  -0.018923  0  3.212661  0
N  N43  1  0.07184283  0.12551753  0.66115520  1  0  -0.023965  0  2.934542  0  0  -0.019363  0  3.221872  0  0  -0.018718  0  3.234091  0  0  -0.051725  -0.018903  0  3.212788  0
O  O44  1  0.67646199  0.82689327  0.61493072  1  0  -0.741911  0  1.973778  0  0  -0.673163  0  2.246064  0  0  -0.699121  0  2.225949  0  0  -0.372809  -0.655088  0  2.25995  0
O  O45  1  0.32354968  0.17310672  0.38506837  1  0  -0.741899  0  1.97369  0  0  -0.673178  0  2.246022  0  0  -0.699133  0  2.225899  0  0  -0.372763  -0.655091  0  2.259906  0
O  O46  1  0.90233053  0.57245045  0.61525843  1  0  -0.855396  0  1.914429  0  0  -0.789492  0  2.129618  0  0  -0.812102  0  2.093747  0  0  -0.589549  -0.772755  0  2.154603  0
O  O47  1  0.09765795  0.42754065  0.38473407  1  0  -0.855477  0  1.914372  0  0  -0.789567  0  2.12951  0  0  -0.812168  0  2.093626  0  0  -0.589599  -0.77283  0  2.154501  0
O  O48  1  0.11765406  0.97610282  0.87826986  1  0  -0.845155  0  1.894436  0  0  -0.780277  0  2.085633  0  0  -0.803042  0  2.052679  0  0  -0.575424  -0.763888  0  2.109247  0
O  O49  1  0.88234270  0.02388864  0.12172877  1  0  -0.845112  0  1.894515  0  0  -0.780237  0  2.085606  0  0  -0.803034  0  2.052714  0  0  -0.575347  -0.763847  0  2.109219  0
O  O50  1  0.70613664  0.85214027  0.84789233  1  0  -0.77821  0  1.985867  0  0  -0.710851  0  2.226278  0  0  -0.733407  0  2.206134  0  0  -0.368602  -0.694297  0  2.239232  0
O  O51  1  0.29386100  0.14786734  0.15210533  1  0  -0.778185  0  1.985843  0  0  -0.71085  0  2.226258  0  0  -0.733404  0  2.206105  0  0  -0.368567  -0.69429  0  2.239218  0
O  O52  1  0.41495072  0.62244990  0.64015247  1  0  -0.723897  0  1.964953  0  0  -0.668295  0  2.21036  0  0  -0.690591  0  2.193575  0  0  -0.351124  -0.652713  0  2.221869  0
O  O53  1  0.58506213  0.37755686  0.35983775  1  0  -0.723966  0  1.964889  0  0  -0.668327  0  2.21026  0  0  -0.690623  0  2.193474  0  0  -0.351135  -0.652742  0  2.221775  0
O  O54  1  0.38793552  0.88377201  0.68873984  1  0  -0.758725  0  2.047204  0  0  -0.692164  0  2.338706  0  0  -0.718278  0  2.316877  0  0  -0.371907  -0.673659  0  2.353594  0
O  O55  1  0.61207548  0.11623368  0.31125701  1  0  -0.758742  0  2.04722  0  0  -0.692188  0  2.338742  0  0  -0.718298  0  2.316903  0  0  -0.371918  -0.673675  0  2.35363  0
