# generated using pymatgen
data_KH14C6IN4O
_symmetry_space_group_name_H-M   'P 1'
_cell_length_a   6.79915318
_cell_length_b   9.50977266
_cell_length_c   10.04389954
_cell_angle_alpha   65.29510358
_cell_angle_beta   70.22314810
_cell_angle_gamma   69.04386422
_symmetry_Int_Tables_number   1
_chemical_formula_structural   KH14C6IN4O
_chemical_formula_sum   'K2 H28 C12 I2 N8 O2'
_cell_volume   537.12987430
_cell_formula_units_Z   2
loop_
 _symmetry_equiv_pos_site_id
 _symmetry_equiv_pos_as_xyz
  1  'x, y, z'
loop_
 _atom_site_type_symbol
 _atom_site_label
 _atom_site_symmetry_multiplicity
 _atom_site_fract_x
 _atom_site_fract_y
 _atom_site_fract_z
 _atom_site_occupancy
 _atom_site_pbe_bader_spin_density
 _atom_site_pbe_cm5_charge
 _atom_site_pbe_ddec_charge
 _atom_site_pbe_ddec_spin_density
 _atom_site_pbe_ddec_sum_bond_order
 _atom_site_pbe_magmom
K  K0  1  0.97671234  0.33552867  0.71091171  1  0  0.570223  0.798453  0  0.657301  0
K  K1  1  0.02332297  0.66448266  0.28907488  1  0  0.570224  0.798453  0  0.657278  0
H  H2  1  0.04811106  0.28766988  0.38406724  1  0  0.269806  0.321947  0  1.048526  0
H  H3  1  0.71945767  0.71219379  0.61604209  1  0  0.269862  0.321768  0  1.048845  0
H  H4  1  0.95188805  0.71233437  0.61593228  1  0  0.269824  0.321976  0  1.048492  0
H  H5  1  0.28054540  0.28780683  0.38395426  1  0  0.269836  0.321708  0  1.048933  0
H  H6  1  0.93235973  0.88009863  0.98908222  1  0  0.106125  0.069117  0  1.02514  0
H  H7  1  0.80170126  0.12003107  0.01085864  1  0  0.106438  0.069924  0  1.02495  0
H  H8  1  0.06763494  0.11990441  0.01091628  1  0  0.106109  0.069087  0  1.025137  0
H  H9  1  0.19829341  0.87997197  0.98913986  1  0  0.106453  0.069934  0  1.024946  0
H  H10  1  0.89112637  0.68858880  0.91404772  1  0  0.108205  0.075792  0  1.003858  0
H  H11  1  0.49405658  0.31164455  0.08587606  1  0  0.108315  0.075751  0  1.005324  0
H  H12  1  0.10887332  0.31140945  0.08595205  1  0  0.1082  0.075787  0  1.003868  0
H  H13  1  0.50593694  0.68836093  0.91412669  1  0  0.108296  0.075735  0  1.005308  0
H  H14  1  0.12495809  0.54308638  0.85639887  1  0  0.107381  0.070556  0  1.027567  0
H  H15  1  0.52490518  0.45708695  0.14350942  1  0  0.107126  0.07043  0  1.027426  0
H  H16  1  0.87503944  0.45690951  0.14360465  1  0  0.107376  0.070573  0  1.027588  0
H  H17  1  0.47509877  0.54291371  0.85649232  1  0  0.107142  0.070455  0  1.02734  0
H  H18  1  0.02200294  0.02621721  0.58285035  1  0  0.115634  0.069888  0  1.018721  0
H  H19  1  0.63107722  0.97391947  0.41702101  1  0  0.115759  0.070952  0  1.017292  0
H  H20  1  0.97799554  0.97378104  0.41714906  1  0  0.115651  0.069933  0  1.018689  0
H  H21  1  0.36891727  0.02608118  0.58297927  1  0  0.11576  0.070967  0  1.017298  0
H  H22  1  0.83200833  0.96507701  0.75606091  1  0  0.105898  0.077929  0  1.009611  0
H  H23  1  0.55329783  0.03538980  0.24367743  1  0  0.106237  0.078289  0  1.01032  0
H  H24  1  0.16798898  0.03491886  0.24394127  1  0  0.105884  0.077946  0  1.009521  0
H  H25  1  0.44669724  0.96461564  0.75632065  1  0  0.106237  0.07832  0  1.010261  0
H  H26  1  0.37555852  0.62339184  0.62484357  1  0  0.11414  0.07346  0  1.010204  0
H  H27  1  0.62444367  0.37660526  0.37516231  1  0  0.114141  0.073469  0  1.010191  0
H  H28  1  0.33363497  0.82774283  0.50455352  1  0  0.109932  0.072099  0  1.007829  0
H  H29  1  0.66636198  0.17225546  0.49545057  1  0  0.109918  0.07207  0  1.007853  0
C  C30  1  0.10423064  0.85982208  0.93149220  1  0  -0.002705  -0.01195  0  3.938604  0
C  C31  1  0.89576542  0.14017976  0.06850569  1  0  -0.002652  -0.011902  0  3.938636  0
C  C32  1  0.06274421  0.66684075  0.85641085  1  0  0.016976  0.011738  0  3.87192  0
C  C33  1  0.58635281  0.33331859  0.14353257  1  0  0.017684  0.012154  0  3.871758  0
C  C34  1  0.93725629  0.33315870  0.14358887  1  0  0.016952  0.011678  0  3.87192  0
C  C35  1  0.41364831  0.66668327  0.85646807  1  0  0.017696  0.012222  0  3.871682  0
C  C36  1  0.00381371  0.94272595  0.69913414  1  0  0.013114  0.004441  0  3.904824  0
C  C37  1  0.64588940  0.05746774  0.30076802  1  0  0.012986  0.001655  0  3.904925  0
C  C38  1  0.99617875  0.05727350  0.30086583  1  0  0.013094  0.004341  0  3.904861  0
C  C39  1  0.35410549  0.94253172  0.69923265  1  0  0.012981  0.001653  0  3.904947  0
C  C40  1  0.31441861  0.74812839  0.62247310  1  0  0.021412  0.012414  0  3.868242  0
C  C41  1  0.68557932  0.25186989  0.37753000  1  0  0.021435  0.012449  0  3.868172  0
I  I42  1  0.47061733  0.25413867  0.80502781  1  0  -0.332879  -0.665329  0  0.928291  0
I  I43  1  0.52939202  0.74584761  0.19497490  1  0  -0.332883  -0.665322  0  0.928297  0
N  N44  1  0.12462764  0.97424411  0.77629191  1  0  -0.390522  -0.239263  0  3.42951  0
N  N45  1  0.87536685  0.02575654  0.22370837  1  0  -0.39055  -0.239252  0  3.429549  0
N  N46  1  0.18534925  0.69204444  0.93690217  1  0  -0.372372  -0.238785  0  3.411371  0
N  N47  1  0.81464806  0.30795503  0.06309919  1  0  -0.372368  -0.238706  0  3.411362  0
N  N48  1  0.08317532  0.77649791  0.69783694  1  0  -0.334982  -0.191902  0  3.366788  0
N  N49  1  0.55788414  0.22368986  0.30211173  1  0  -0.33518  -0.190202  0  3.365906  0
N  N50  1  0.91682279  0.22349916  0.30216520  1  0  -0.334942  -0.191884  0  3.366795  0
N  N51  1  0.44211398  0.77631081  0.69788960  1  0  -0.335207  -0.190321  0  3.366018  0
O  O52  1  0.12262918  0.33240352  0.42269528  1  0  -0.734593  -0.821318  0  2.039434  0
O  O53  1  0.87737227  0.66760189  0.57729952  1  0  -0.734625  -0.821376  0  2.03935  0
