# generated using pymatgen
data_Zr3H19C26BrN5O16
_symmetry_space_group_name_H-M   'P 1'
_cell_length_a   14.78994526
_cell_length_b   14.77701169
_cell_length_c   14.78304441
_cell_angle_alpha   60.10633924
_cell_angle_beta   60.05341262
_cell_angle_gamma   60.17652045
_symmetry_Int_Tables_number   1
_chemical_formula_structural   Zr3H19C26BrN5O16
_chemical_formula_sum   'Zr6 H38 C52 Br2 N10 O32'
_cell_volume   2290.35386618
_cell_formula_units_Z   2
loop_
 _symmetry_equiv_pos_site_id
 _symmetry_equiv_pos_as_xyz
  1  'x, y, z'
loop_
 _atom_site_type_symbol
 _atom_site_label
 _atom_site_symmetry_multiplicity
 _atom_site_fract_x
 _atom_site_fract_y
 _atom_site_fract_z
 _atom_site_occupancy
 _atom_site_pbe_bader_charge
 _atom_site_pbe_bader_spin_density
 _atom_site_pbe_cm5_charge
 _atom_site_pbe_ddec_charge
 _atom_site_pbe_ddec_spin_density
 _atom_site_pbe_ddec_sum_bond_order
 _atom_site_pbe_magmom
Zr  Zr0  1  0.87707819  0.88432083  0.61769947  1  2.630744  0  1.633051  2.363199  0  2.790563  0
Zr  Zr1  1  0.12016843  0.11668920  0.38406801  1  2.628353  0  1.624563  2.36286  0  2.778444  0
Zr  Zr2  1  0.11618541  0.87833544  0.62371401  1  2.629572  0  1.624269  2.37324  0  2.741514  0
Zr  Zr3  1  0.88050402  0.12128241  0.38068905  1  2.634989  0  1.629673  2.370436  0  2.760974  0
Zr  Zr4  1  0.11846007  0.88092168  0.38278377  1  2.6295  0  1.627333  2.360993  0  2.782803  0
Zr  Zr5  1  0.88069156  0.11956328  0.62013336  1  2.634603  0  1.626972  2.364281  0  2.772499  0
H  H6  1  0.09148849  0.71758044  0.59554009  1  0.591407  0  0.329116  0.4213  0  0.860074  0
H  H7  1  0.09808956  0.09309176  0.21896447  1  0.61253  0  0.328845  0.420306  0  0.863402  0
H  H8  1  0.09422378  0.09130018  0.59743854  1  0.59576  0  0.333652  0.428294  0  0.847125  0
H  H9  1  0.71707584  0.09735785  0.59263505  1  0.630096  0  0.335445  0.429999  0  0.84585  0
H  H10  1  0.15527606  0.57380832  0.38208527  1  0.093916  0  0.1024  0.115816  0  1.015946  0
H  H11  1  0.84042196  0.43282422  0.61114090  1  0.087232  0  0.102401  0.11572  0  1.016354  0
H  H12  1  0.58745149  0.14294670  0.90863456  1  0.068029  0  0.100329  0.111763  0  1.019941  0
H  H13  1  0.41572814  0.85348041  0.09782260  1  0.06737  0  0.100986  0.111539  0  1.019286  0
H  H14  1  0.84816851  0.12602477  0.10493988  1  0.032643  0  0.103563  0.115023  0  1.012862  0
H  H15  1  0.14179594  0.86291071  0.90741768  1  0.092947  0  0.104259  0.119535  0  1.010264  0
H  H16  1  0.59465680  0.41364288  0.35846979  1  0.059629  0  0.10553  0.120117  0  1.0069  0
H  H17  1  0.40945201  0.59210031  0.64172372  1  0.069946  0  0.102508  0.115251  0  1.012302  0
H  H18  1  0.99392075  0.57521401  0.74032145  1  0.076908  0  0.098173  0.102662  0  1.044531  0
H  H19  1  0.01561651  0.40261982  0.73403002  1  0.074402  0  0.101328  0.102598  0  1.004215  0
H  H20  1  0.00837337  0.23523895  0.07183496  1  0.072171  0  0.098571  0.101763  0  1.043375  0
H  H21  1  0.02258506  0.23141628  0.90131396  1  0.082021  0  0.100651  0.103116  0  1.007678  0
H  H22  1  0.59123080  0.86239097  0.64009526  1  0.102407  0  0.102282  0.114959  0  1.017122  0
H  H23  1  0.40979353  0.13346303  0.35913809  1  0.104676  0  0.100743  0.111868  0  1.021061  0
H  H24  1  0.18707828  0.33933395  0.33784099  1  0.475399  0  0.296842  0.303195  0  0.995915  0
H  H25  1  0.24343990  0.43689171  0.29921048  1  0.401938  0  0.302932  0.29502  0  0.951441  0
H  H26  1  0.79215708  0.69278325  0.62280756  1  0.460367  0  0.296046  0.302662  0  0.995244  0
H  H27  1  0.73243171  0.60462830  0.64718163  1  0.401362  0  0.298053  0.287686  0  0.961382  0
H  H28  1  0.35438723  0.16841794  0.15895719  1  0.500179  0  0.298285  0.306627  0  0.99945  0
H  H29  1  0.46027211  0.21993740  0.05112519  1  0.430354  0  0.302025  0.293146  0  0.960045  0
H  H30  1  0.66497256  0.81319158  0.86421535  1  0.481077  0  0.297379  0.305088  0  0.99495  0
H  H31  1  0.56810247  0.75606398  0.97761921  1  0.412861  0  0.301035  0.291332  0  0.955621  0
H  H32  1  0.80217746  0.14388607  0.87740886  1  0.484677  0  0.296033  0.302664  0  0.998181  0
H  H33  1  0.74471201  0.18113609  0.99338829  1  0.418437  0  0.299107  0.288798  0  0.959117  0
H  H34  1  0.16747654  0.81892603  0.15774093  1  0.494496  0  0.297727  0.303367  0  0.996395  0
H  H35  1  0.21610280  0.76895563  0.05207454  1  0.408096  0  0.304005  0.295633  0  0.950425  0
H  H36  1  0.36170096  0.66197193  0.31699203  1  0.490849  0  0.295354  0.300855  0  1.001796  0
H  H37  1  0.47244589  0.56114856  0.26308265  1  0.406394  0  0.301065  0.291178  0  0.955904  0
H  H38  1  0.66219085  0.36251555  0.66376025  1  0.488085  0  0.296466  0.303275  0  1.00112  0
H  H39  1  0.55854620  0.47084530  0.71168289  1  0.406338  0  0.299944  0.289753  0  0.960792  0
H  H40  1  0.35832636  0.81487341  0.67089046  1  0.478633  0  0.299238  0.30739  0  0.994425  0
H  H41  1  0.46480686  0.76778402  0.72007084  1  0.433911  0  0.302085  0.29316  0  0.957597  0
H  H42  1  0.65609990  0.16735078  0.31598924  1  0.479498  0  0.298628  0.306146  0  0.996024  0
H  H43  1  0.55377959  0.21067334  0.26316891  1  0.419787  0  0.30017  0.289764  0  0.96089  0
C  C44  1  0.99318598  0.70097686  0.49654723  1  1.513033  0  0.233519  0.649744  0  4.078479  0
C  C45  1  0.30873257  0.99707792  0.20086387  1  1.490288  0  0.232945  0.649546  0  4.071332  0
C  C46  1  0.00209845  0.30589047  0.49631244  1  1.51086  0  0.229171  0.6458  0  4.082554  0
C  C47  1  0.69538085  0.99875489  0.80689731  1  1.497575  0  0.23294  0.648169  0  4.077765  0
C  C48  1  0.98318427  0.70524933  0.81266352  1  1.578907  0  0.234838  0.657389  0  4.115804  0
C  C49  1  0.69683645  0.00184182  0.49308810  1  1.512322  0  0.233724  0.649932  0  4.073596  0
C  C50  1  0.99326319  0.30964775  0.20370291  1  1.576401  0  0.234463  0.657902  0  4.112434  0
C  C51  1  0.30761485  0.99073962  0.50240144  1  1.494833  0  0.234378  0.653157  0  4.068584  0
C  C52  1  0.30505051  0.69616835  0.49998390  1  1.519219  0  0.233865  0.650703  0  4.065957  0
C  C53  1  0.99293646  0.99593975  0.81108966  1  1.520849  0  0.230361  0.645321  0  4.083334  0
C  C54  1  0.69929727  0.30999685  0.49938230  1  1.498036  0  0.233647  0.64844  0  4.075455  0
C  C55  1  0.99870192  0.99504671  0.19945038  1  1.51724  0  0.232758  0.648298  0  4.073911  0
C  C56  1  0.00297893  0.40755135  0.49252375  1  -0.03876  0  -0.029662  -0.138858  0  3.953278  0
C  C57  1  0.99128256  0.60095294  0.49811407  1  -0.035428  0  -0.026206  -0.137257  0  3.955837  0
C  C58  1  0.09521006  0.44667103  0.42432938  1  0.407573  0  0.09147  0.27509  0  4.094925  0
C  C59  1  0.89807976  0.56329522  0.56451276  1  0.434019  0  0.092126  0.272408  0  4.086455  0
C  C60  1  0.08588528  0.54241463  0.43088540  1  -0.012006  0  -0.100492  -0.20379  0  3.964839  0
C  C61  1  0.90853295  0.46601474  0.56003196  1  0.029702  0  -0.102523  -0.206271  0  3.970196  0
C  C62  1  0.40821154  0.00000704  0.10052939  1  0.014067  0  -0.027241  -0.139165  0  3.946974  0
C  C63  1  0.59670919  0.99461391  0.90811696  1  0.031916  0  -0.026491  -0.137014  0  3.954643  0
C  C64  1  0.45593567  0.08523346  0.04756298  1  0.43774  0  0.09536  0.284453  0  4.091021  0
C  C65  1  0.54898476  0.90944486  0.96077601  1  0.442282  0  0.093458  0.27754  0  4.078044  0
C  C66  1  0.54934720  0.07885809  0.95238761  1  -0.020558  0  -0.102906  -0.20797  0  3.974318  0
C  C67  1  0.45554547  0.91593277  0.05586501  1  -0.032512  0  -0.100485  -0.201475  0  3.96831  0
C  C68  1  0.98991782  0.99737809  0.91205597  1  0.028217  0  -0.029404  -0.138874  0  3.953721  0
C  C69  1  0.99937885  0.99059076  0.10123914  1  0.012081  0  -0.026912  -0.139646  0  3.948208  0
C  C70  1  0.90259949  0.07374724  0.96823384  1  0.419615  0  0.09087  0.270832  0  4.087751  0
C  C71  1  0.08504196  0.91225822  0.04686868  1  0.401733  0  0.095397  0.280828  0  4.080132  0
C  C72  1  0.91166818  0.06780096  0.06096209  1  -0.015275  0  -0.101127  -0.206419  0  3.980915  0
C  C73  1  0.07725550  0.91979361  0.95259822  1  -0.012727  0  -0.101323  -0.205941  0  3.975139  0
C  C74  1  0.40622776  0.59741508  0.49655781  1  -0.038662  0  -0.026099  -0.13574  0  3.947697  0
C  C75  1  0.59878972  0.40948137  0.50248978  1  0.053897  0  -0.026054  -0.136509  0  3.948673  0
C  C76  1  0.45791520  0.54764087  0.41333728  1  0.447803  0  0.093854  0.278152  0  4.076095  0
C  C77  1  0.54726291  0.45931649  0.58565708  1  0.448614  0  0.093159  0.278129  0  4.086158  0
C  C78  1  0.55306210  0.45460384  0.41989789  1  -0.061521  0  -0.098417  -0.200077  0  3.962089  0
C  C79  1  0.45191508  0.55214174  0.57933743  1  0.033991  0  -0.10173  -0.20619  0  3.970777  0
C  C80  1  0.97732417  0.60601176  0.91634192  1  0.078243  0  -0.01539  -0.110703  0  3.924285  0
C  C81  1  0.99197215  0.50593297  0.90987726  1  -0.00963  0  -0.001903  0.066576  0  3.95755  0
C  C82  1  0.95948276  0.61047770  0.01556469  1  -0.093315  0  -0.022113  0.031311  0  3.972924  0
C  C83  1  0.00087313  0.50054839  0.81218027  1  -0.065311  0  -0.09543  -0.135656  0  3.972828  0
C  C84  1  0.01181218  0.40384677  0.80904912  1  -0.03186  0  -0.088605  -0.069093  0  4.016174  0
C  C85  1  0.98550297  0.41348863  0.10462426  1  0.056132  0  -0.01343  -0.107459  0  3.916634  0
C  C86  1  0.96377910  0.51344658  0.11038147  1  -0.035881  0  -0.022007  0.031579  0  3.968239  0
C  C87  1  0.99612950  0.40798856  0.00563711  1  0.015313  0  -0.002108  0.066765  0  3.953616  0
C  C88  1  0.00878722  0.30934639  0.99892962  1  -0.089531  0  -0.094696  -0.131618  0  3.968206  0
C  C89  1  0.01577731  0.30741901  0.90329162  1  0.002324  0  -0.090338  -0.076271  0  4.018147  0
C  C90  1  0.40710825  0.99041389  0.50385031  1  0.042065  0  -0.026154  -0.137361  0  3.94909  0
C  C91  1  0.59628801  0.00323115  0.49296860  1  0.000609  0  -0.026675  -0.135792  0  3.952654  0
C  C92  1  0.45697329  0.91109787  0.58713867  1  0.404565  0  0.094544  0.281189  0  4.095381  0
C  C93  1  0.54488279  0.08406633  0.41124429  1  0.415945  0  0.093725  0.278881  0  4.090485  0
C  C94  1  0.55095893  0.92064468  0.57788171  1  -0.034171  0  -0.102685  -0.210307  0  3.971104  0
C  C95  1  0.45171020  0.07368147  0.41974887  1  -0.008819  0  -0.100434  -0.20197  0  3.971358  0
Br  Br96  1  0.93496036  0.52100056  0.24738713  1  -0.025484  0  0.043735  -0.029532  0  1.545796  0
Br  Br97  1  0.92542639  0.74808360  0.02503389  1  -0.019736  0  0.046969  -0.023807  0  1.551749  0
N  N98  1  0.19246804  0.39245562  0.35796607  1  -1.191742  0  -0.603402  -0.623637  0  3.340826  0
N  N99  1  0.80110176  0.61575364  0.63334822  1  -1.195949  0  -0.605521  -0.628126  0  3.331245  0
N  N100  1  0.41272693  0.17329632  0.08289290  1  -1.268625  0  -0.604453  -0.62837  0  3.362301  0
N  N101  1  0.58773402  0.82502949  0.92102583  1  -1.217778  0  -0.605617  -0.62597  0  3.328  0
N  N102  1  0.81350817  0.15382344  0.93382337  1  -1.251947  0  -0.606219  -0.625505  0  3.332057  0
N  N103  1  0.17515700  0.83401862  0.07975727  1  -1.205037  0  -0.602664  -0.621361  0  3.330455  0
N  N104  1  0.41684757  0.58398083  0.33055579  1  -1.243727  0  -0.606326  -0.629059  0  3.329448  0
N  N105  1  0.58452535  0.41814856  0.67233242  1  -1.229228  0  -0.606851  -0.630051  0  3.343899  0
N  N106  1  0.41502439  0.83016967  0.67599292  1  -1.25675  0  -0.603967  -0.628534  0  3.351304  0
N  N107  1  0.58006479  0.17189562  0.32881983  1  -1.250621  0  -0.603295  -0.625713  0  3.345536  0
O  O108  1  0.91546480  0.74373576  0.57190252  1  -1.187007  0  -0.358272  -0.625444  0  2.31548  0
O  O109  1  0.26622933  0.07365059  0.24304323  1  -1.185503  0  -0.361423  -0.623585  0  2.318304  0
O  O110  1  0.08005506  0.26190328  0.42183970  1  -1.186368  0  -0.361186  -0.6302  0  2.338166  0
O  O111  1  0.73536238  0.92479987  0.76253898  1  -1.18665  0  -0.359058  -0.61876  0  2.33313  0
O  O112  1  0.06473931  0.73778549  0.77293281  1  -1.169069  0  -0.348406  -0.614388  0  2.271874  0
O  O113  1  0.73909173  0.07810925  0.41674777  1  -1.186804  0  -0.356034  -0.621095  0  2.303712  0
O  O114  1  0.91731358  0.26880723  0.24368341  1  -1.168875  0  -0.358399  -0.618292  0  2.301364  0
O  O115  1  0.26552293  0.91439016  0.57883031  1  -1.179946  0  -0.355747  -0.620666  0  2.302157  0
O  O116  1  0.26392621  0.73919436  0.42272315  1  -1.18982  0  -0.359304  -0.623314  0  2.315424  0
O  O117  1  0.91709613  0.07248492  0.76885126  1  -1.190913  0  -0.35964  -0.622371  0  2.320532  0
O  O118  1  0.74238287  0.26834469  0.57494607  1  -1.191262  0  -0.361122  -0.626305  0  2.317859  0
O  O119  1  0.07504325  0.91940045  0.24136205  1  -1.18417  0  -0.357902  -0.619805  0  2.321191  0
O  O120  1  0.07080808  0.92047351  0.77000769  1  -1.183281  0  -0.359455  -0.628689  0  2.305019  0
O  O121  1  0.73754837  0.26917200  0.42377662  1  -1.182835  0  -0.354487  -0.619747  0  2.281036  0
O  O122  1  0.92384769  0.07411359  0.23690017  1  -1.193423  0  -0.357787  -0.62962  0  2.282607  0
O  O123  1  0.26251373  0.73361759  0.57935817  1  -1.192338  0  -0.358513  -0.626844  0  2.26757  0
O  O124  1  0.90863356  0.74508920  0.77055402  1  -1.17797  0  -0.350374  -0.615948  0  2.293494  0
O  O125  1  0.26743942  0.06780028  0.42598411  1  -1.186306  0  -0.362544  -0.628193  0  2.295737  0
O  O126  1  0.07407318  0.26932223  0.23698347  1  -1.17565  0  -0.341594  -0.613506  0  2.258438  0
O  O127  1  0.73694286  0.92509445  0.56970820  1  -1.192012  0  -0.36302  -0.62983  0  2.295531  0
O  O128  1  0.73554452  0.07550583  0.76734453  1  -1.187021  0  -0.360729  -0.631867  0  2.277104  0
O  O129  1  0.07232269  0.73847955  0.42246422  1  -1.190172  0  -0.359051  -0.625632  0  2.285765  0
O  O130  1  0.26821801  0.92057398  0.24068473  1  -1.185303  0  -0.358978  -0.629418  0  2.274975  0
O  O131  1  0.92512524  0.26639240  0.57318777  1  -1.190965  0  -0.356501  -0.623896  0  2.279797  0
O  O132  1  0.79725384  0.07003728  0.56607838  1  -1.255046  0  -0.698528  -1.070151  0  2.369287  0
O  O133  1  0.06712300  0.06489263  0.57054371  1  -1.218649  0  -0.695164  -1.065173  0  2.359322  0
O  O134  1  0.06811626  0.06788216  0.29917242  1  -1.243587  0  -0.695017  -1.066671  0  2.362192  0
O  O135  1  0.06332325  0.79778349  0.57033581  1  -1.221749  0  -0.694686  -1.067754  0  2.357601  0
O  O136  1  0.14744275  0.94860521  0.45430978  1  -1.192761  0  -0.795629  -1.145269  0  2.15064  0
O  O137  1  0.94987589  0.95246607  0.44988289  1  -1.198988  0  -0.796594  -1.147086  0  2.146778  0
O  O138  1  0.95141325  0.14863100  0.45139165  1  -1.197484  0  -0.794055  -1.142535  0  2.139547  0
O  O139  1  0.94824407  0.95097107  0.64947391  1  -1.198084  0  -0.793784  -1.142372  0  2.139111  0
