# generated using pymatgen
data_CuH12C7N2O3
_symmetry_space_group_name_H-M   'P 1'
_cell_length_a   8.76154687
_cell_length_b   9.84977817
_cell_length_c   10.64829319
_cell_angle_alpha   89.99984067
_cell_angle_beta   89.99979569
_cell_angle_gamma   90.00012782
_symmetry_Int_Tables_number   1
_chemical_formula_structural   CuH12C7N2O3
_chemical_formula_sum   'Cu4 H48 C28 N8 O12'
_cell_volume   918.94017518
_cell_formula_units_Z   4
loop_
 _symmetry_equiv_pos_site_id
 _symmetry_equiv_pos_as_xyz
  1  'x, y, z'
loop_
 _atom_site_type_symbol
 _atom_site_label
 _atom_site_symmetry_multiplicity
 _atom_site_fract_x
 _atom_site_fract_y
 _atom_site_fract_z
 _atom_site_occupancy
 _atom_site_hle17_ddec_charge
 _atom_site_hle17_ddec_spin_density
 _atom_site_hle17_ddec_sum_bond_order
 _atom_site_hle17_magmom
 _atom_site_hse06_10hf_ddec_charge
 _atom_site_hse06_10hf_ddec_spin_density
 _atom_site_hse06_10hf_ddec_sum_bond_order
 _atom_site_hse06_10hf_magmom
 _atom_site_hse06_ddec_charge
 _atom_site_hse06_ddec_spin_density
 _atom_site_hse06_ddec_sum_bond_order
 _atom_site_hse06_magmom
 _atom_site_pbe_cm5_charge
 _atom_site_pbe_ddec_charge
 _atom_site_pbe_ddec_spin_density
 _atom_site_pbe_ddec_sum_bond_order
 _atom_site_pbe_magmom
Cu  Cu0  1  0.03300841  0.19855315  0.39196768  1  0.842616  0.660863  1.860145  0.49  0.829339  0.758137  2.259786  0.607  0.917645  0.820846  2.189485  0.689  0.729872  0.771556  0.713931  2.312995  0.554
Cu  Cu1  1  0.53300425  0.30144904  0.60802773  1  0.84263  0.660811  1.85996  0.49  0.829289  0.758111  2.259735  0.607  0.917631  0.820824  2.189355  0.689  0.729839  0.771595  0.7139  2.312813  0.554
Cu  Cu2  1  0.96699769  0.69855562  0.10802627  1  0.842704  0.660817  1.859775  0.49  0.829348  0.758127  2.259525  0.607  0.917701  0.820827  2.189092  0.689  0.729829  0.771516  0.713895  2.312772  0.554
Cu  Cu3  1  0.46699194  0.80144560  0.89196847  1  0.842538  0.660856  1.860212  0.49  0.829294  0.758139  2.259864  0.607  0.917571  0.820833  2.189556  0.689  0.72985  0.771528  0.713935  2.313059  0.554
H  H4  1  0.77579362  0.67669885  0.27508058  1  0.306307  -0.001869  0.889961  -0.002  0.296924  4e-06  0.949087  -0.001  0.303378  -0.000503  0.945617  -0.001  0.30197  0.291621  0.000469  0.953058  0.0
H  H5  1  0.27578980  0.82330503  0.72492035  1  0.306298  -0.001869  0.889985  -0.002  0.296934  5e-06  0.949099  -0.001  0.303389  -0.000503  0.945631  -0.001  0.301988  0.291632  0.00047  0.95307  0.0
H  H6  1  0.22421014  0.17669523  0.22492000  1  0.306286  -0.001873  0.890004  -0.002  0.296922  5e-06  0.949121  -0.001  0.303379  -0.000502  0.94565  -0.001  0.301987  0.291619  0.00047  0.953093  0.0
H  H7  1  0.72420417  0.32330227  0.77508049  1  0.306325  -0.001874  0.889977  -0.002  0.296951  4e-06  0.949097  -0.001  0.303406  -0.000503  0.945625  -0.001  0.301993  0.29165  0.000469  0.953073  0.0
H  H8  1  0.69453651  0.62602676  0.13982153  1  0.303187  -0.001576  0.910688  -0.002  0.291255  -2.7e-05  0.974007  -0.001  0.297035  -0.000531  0.97156  -0.001  0.29609  0.286735  0.000379  0.976775  0.0
H  H9  1  0.19453565  0.87397188  0.86017776  1  0.303206  -0.001576  0.910633  -0.002  0.291299  -2.7e-05  0.973933  -0.001  0.29708  -0.000531  0.971486  -0.001  0.296097  0.286778  0.000379  0.976698  0.0
H  H10  1  0.30546598  0.12602697  0.36017542  1  0.303156  -0.001579  0.910682  -0.002  0.291214  -2.7e-05  0.974019  -0.001  0.296995  -0.00053  0.971577  -0.001  0.296087  0.286694  0.00038  0.976781  0.0
H  H11  1  0.80546301  0.37397374  0.63982201  1  0.303218  -0.001584  0.910651  -0.002  0.291289  -2.8e-05  0.973973  -0.001  0.297072  -0.000531  0.971522  -0.001  0.2961  0.286768  0.000379  0.976745  0.0
H  H12  1  0.83214629  0.46689916  0.33654320  1  0.076195  0.000897  0.920885  0.001  0.088293  0.000587  0.979166  0.001  0.088646  0.000379  0.979856  0.001  0.118312  0.087787  0.000749  0.979013  0.001
H  H13  1  0.33214543  0.03310465  0.66345416  1  0.076194  0.000899  0.920898  0.001  0.088267  0.000587  0.979144  0.001  0.088621  0.000379  0.979838  0.001  0.118348  0.087763  0.000749  0.97899  0.001
H  H14  1  0.16785592  0.96689581  0.16345382  1  0.076181  0.000901  0.920911  0.001  0.088257  0.000587  0.979159  0.001  0.088612  0.000379  0.979853  0.001  0.118346  0.087753  0.000749  0.979005  0.001
H  H15  1  0.66785238  0.53310075  0.83654461  1  0.076166  0.000914  0.920877  0.001  0.088262  0.000587  0.979187  0.001  0.088614  0.000379  0.97988  0.001  0.118304  0.087757  0.000749  0.979035  0.001
H  H16  1  0.72815323  0.27294968  0.22596531  1  0.053857  0.000362  0.920593  0.001  0.067101  0.00031  0.977784  0.0  0.067077  0.00016  0.978989  0.0  0.097307  0.067008  0.000557  0.977161  0.001
H  H17  1  0.22815238  0.22705189  0.77403422  1  0.053836  0.000352  0.920591  0.001  0.067077  0.000309  0.977802  0.0  0.067052  0.000161  0.979007  0.0  0.097314  0.066984  0.000558  0.97718  0.001
H  H18  1  0.27184392  0.77294518  0.27403596  1  0.05383  0.000346  0.920578  0.001  0.06709  0.000309  0.977751  0.0  0.067061  0.00016  0.978961  0.0  0.09729  0.066996  0.000558  0.977128  0.001
H  H19  1  0.77184820  0.72705057  0.72596499  1  0.05386  0.00037  0.920596  0.001  0.067097  0.000309  0.977772  0.0  0.067073  0.00016  0.978977  0.0  0.097308  0.067003  0.000558  0.977152  0.001
H  H20  1  0.56824470  0.29580718  0.03350557  1  0.107058  1.4e-05  0.955316  0.0  0.128938  1.9e-05  1.015908  0.0  0.131045  1.1e-05  1.015236  0.0  0.086289  0.127282  6.2e-05  1.016536  0.0
H  H21  1  0.06824410  0.20419407  0.96649819  1  0.107036  1.9e-05  0.955331  0.0  0.128918  1.9e-05  1.015915  0.0  0.131027  1.1e-05  1.015242  0.0  0.086269  0.127261  6.2e-05  1.016543  0.0
H  H22  1  0.43175479  0.79580547  0.46649752  1  0.107026  1.8e-05  0.955234  0.0  0.128912  1.9e-05  1.015822  0.0  0.13102  1e-05  1.01515  0.0  0.086247  0.127253  6.2e-05  1.01645  0.0
H  H23  1  0.93175756  0.70419263  0.53350389  1  0.107051  1.1e-05  0.95531  0.0  0.128938  1.9e-05  1.015894  0.0  0.131047  1e-05  1.01522  0.0  0.086279  0.127281  6.2e-05  1.016521  0.0
H  H24  1  0.75600735  0.35423411  0.00400190  1  0.094743  -3.3e-05  0.949584  0.0  0.117086  6.9e-05  1.011548  0.0  0.11878  2.7e-05  1.010945  0.0  0.084437  0.115684  0.000106  1.012091  0.0
H  H25  1  0.25600647  0.14576447  0.99599662  1  0.094753  -3.2e-05  0.94956  0.0  0.117096  6.9e-05  1.011519  0.0  0.118789  2.7e-05  1.010917  0.0  0.084454  0.115695  0.000106  1.012059  0.0
H  H26  1  0.24399115  0.85423498  0.49599916  1  0.094741  -3.3e-05  0.949583  0.0  0.117073  6.9e-05  1.011558  0.0  0.118767  2.7e-05  1.010956  0.0  0.084426  0.115672  0.000106  1.012098  0.0
H  H27  1  0.74399391  0.64576478  0.50400092  1  0.094749  -3.4e-05  0.949578  0.0  0.117088  6.9e-05  1.011547  0.0  0.118783  2.7e-05  1.010944  0.0  0.084443  0.115685  0.000106  1.012089  0.0
H  H28  1  0.60263042  0.47115533  0.02690329  1  0.103448  0.000172  0.968785  0.0  0.124119  0.000208  1.032586  0.0  0.125904  0.000123  1.03209  0.0  0.085785  0.122603  0.000245  1.033418  0.0
H  H29  1  0.10263048  0.02884396  0.97309943  1  0.103442  0.000171  0.96877  0.0  0.12407  0.000208  1.032629  0.0  0.125855  0.000123  1.032134  0.0  0.085783  0.122555  0.000246  1.033457  0.0
H  H30  1  0.39736723  0.97115658  0.47309747  1  0.103476  0.000173  0.968777  0.0  0.124106  0.000208  1.032622  0.0  0.125892  0.000123  1.032128  0.0  0.085809  0.122593  0.000245  1.033447  0.0
H  H31  1  0.89737188  0.52884247  0.52690311  1  0.103421  0.000167  0.968805  0.0  0.124105  0.000207  1.032596  0.0  0.125889  0.000123  1.032106  0.0  0.085788  0.12259  0.000245  1.033424  0.0
H  H32  1  0.56713355  0.40276541  0.37794749  1  0.088809  -0.000805  0.988578  0.0  0.095199  -0.000782  1.078324  0.0  0.097477  -0.000838  1.075452  0.0  0.079001  0.093324  -0.000674  1.080402  0.0
H  H33  1  0.06713646  0.09723279  0.62205346  1  0.088796  -0.00081  0.988522  0.0  0.095181  -0.000782  1.078273  0.0  0.097461  -0.000838  1.075397  0.0  0.078994  0.093312  -0.000674  1.080342  0.0
H  H34  1  0.43286164  0.90276576  0.12205345  1  0.088806  -0.000806  0.988573  0.0  0.095188  -0.000782  1.078331  0.0  0.097468  -0.000838  1.075457  0.0  0.078997  0.093319  -0.000674  1.080406  0.0
H  H35  1  0.93286493  0.59723235  0.87794702  1  0.088819  -0.000811  0.988568  0.0  0.09521  -0.000782  1.078304  0.0  0.097486  -0.000838  1.075436  0.0  0.079002  0.093343  -0.000674  1.080374  0.0
H  H36  1  0.45259231  0.33004709  0.25800552  1  0.09316  -8e-06  0.956811  0.0  0.11645  0.000155  1.014809  0.0  0.117937  9.5e-05  1.015261  0.0  0.083706  0.114952  0.000231  1.015372  0.0
H  H37  1  0.95258724  0.16995493  0.74199618  1  0.093117  -2.2e-05  0.956854  0.0  0.116414  0.000155  1.014849  0.0  0.117894  9.5e-05  1.015309  0.0  0.083678  0.114912  0.000231  1.015416  0.0
H  H38  1  0.54741070  0.83004324  0.24199560  1  0.093165  -1.6e-05  0.95686  0.0  0.116449  0.000155  1.014859  0.0  0.117945  9.5e-05  1.015303  0.0  0.083711  0.11495  0.000231  1.015422  0.0
H  H39  1  0.04740863  0.66995308  0.75800506  1  0.093163  -1.6e-05  0.956829  0.0  0.116445  0.000155  1.014836  0.0  0.117938  9.5e-05  1.015283  0.0  0.083709  0.114951  0.000231  1.015397  0.0
H  H40  1  0.49552445  0.50575160  0.25401117  1  0.090363  0.000319  0.949809  0.0  0.11324  0.000518  1.007963  0.0  0.115125  0.000371  1.007922  0.0  0.082789  0.112124  0.000615  1.007532  0.0
H  H41  1  0.99552474  0.99424459  0.74599006  1  0.090359  0.000325  0.949812  0.0  0.113216  0.000518  1.007994  0.0  0.115103  0.000371  1.007949  0.0  0.082785  0.112101  0.000615  1.00756  0.0
H  H42  1  0.50447204  0.00575255  0.24598985  1  0.090311  0.000323  0.949798  0.0  0.113197  0.000518  1.007947  0.0  0.115077  0.000371  1.007912  0.0  0.082766  0.112083  0.000615  1.007515  0.0
H  H43  1  0.00447650  0.49424655  0.75401034  1  0.090362  0.000323  0.949843  0.0  0.113232  0.000518  1.008004  0.0  0.115118  0.000371  1.007962  0.0  0.082789  0.112117  0.000615  1.007574  0.0
H  H44  1  0.19208433  0.41945587  0.98650470  1  0.10036  0.001402  0.90912  0.002  0.120399  0.001042  0.959976  0.001  0.121185  0.000815  0.959736  0.001  0.115771  0.119364  0.00125  0.961036  0.001
H  H45  1  0.69208905  0.08054360  0.01349588  1  0.100365  0.001403  0.909109  0.002  0.120403  0.001043  0.959977  0.001  0.12119  0.000816  0.959738  0.001  0.115782  0.119367  0.001251  0.961034  0.001
H  H46  1  0.80790988  0.91945830  0.51349777  1  0.100386  0.00139  0.90911  0.002  0.120431  0.001043  0.959962  0.001  0.12122  0.000816  0.959718  0.001  0.115786  0.119395  0.00125  0.961023  0.001
H  H47  1  0.30791676  0.58054158  0.48650400  1  0.100399  0.001396  0.909119  0.002  0.120446  0.001042  0.959961  0.001  0.121232  0.000815  0.959719  0.001  0.11578  0.11941  0.00125  0.961021  0.001
H  H48  1  0.27652908  0.45846522  0.13222583  1  0.093117  0.000294  0.923762  0.0  0.110221  0.000366  0.983055  0.0  0.111485  0.000311  0.981925  0.0  0.111839  0.109106  0.000426  0.984171  0.0
H  H49  1  0.77653114  0.04153847  0.86777450  1  0.093129  0.000294  0.92382  0.0  0.110226  0.000367  0.983132  0.0  0.111491  0.000311  0.982003  0.0  0.111848  0.109109  0.000427  0.984247  0.0
H  H50  1  0.72346854  0.95846439  0.36777684  1  0.093158  0.000278  0.923745  0.0  0.110242  0.000367  0.983061  0.0  0.111507  0.000311  0.981931  0.0  0.111842  0.109127  0.000427  0.984177  0.0
H  H51  1  0.22347240  0.54153329  0.63222612  1  0.093146  0.000287  0.923775  0.0  0.110249  0.000367  0.983066  0.0  0.111513  0.000311  0.981935  0.0  0.111858  0.109135  0.000427  0.984182  0.0
C  C52  1  0.81633766  0.47135321  0.23412680  1  0.05011  -0.005332  3.562102  -0.005  0.032343  -0.00116  3.799054  -0.002  0.033299  -0.001472  3.814327  -0.002  0.005838  0.032364  -0.000484  3.788444  -0.002
C  C53  1  0.31634776  0.02864549  0.76587435  1  0.049894  -0.005362  3.562121  -0.005  0.032334  -0.001158  3.798821  -0.002  0.033287  -0.00147  3.814092  -0.002  0.005733  0.032356  -0.000483  3.788214  -0.002
C  C54  1  0.18365085  0.97135364  0.26587396  1  0.049892  -0.005398  3.56212  -0.005  0.032308  -0.001162  3.798863  -0.002  0.033258  -0.001469  3.814137  -0.002  0.005727  0.032333  -0.000483  3.788252  -0.002
C  C55  1  0.68366259  0.52864701  0.73412724  1  0.050183  -0.005439  3.562084  -0.005  0.032366  -0.001157  3.799045  -0.002  0.033321  -0.00147  3.814319  -0.002  0.005876  0.032388  -0.000483  3.788444  -0.002
C  C56  1  0.96852775  0.42353409  0.17761336  1  0.511408  -0.008683  3.865055  -0.003  0.476999  -0.000829  4.16338  0.002  0.508848  -0.002214  4.166889  0.0  0.215138  0.454847  -0.00012  4.159351  0.002
C  C57  1  0.46853658  0.07646288  0.82238454  1  0.51157  -0.008703  3.864909  -0.003  0.477108  -0.000828  4.163218  0.002  0.508959  -0.002213  4.166718  0.0  0.215172  0.454957  -0.000119  4.159202  0.002
C  C58  1  0.03146065  0.92353710  0.32238377  1  0.511578  -0.008669  3.864975  -0.003  0.477099  -0.000829  4.163322  0.002  0.508952  -0.002213  4.166824  0.0  0.215177  0.454947  -0.00012  4.159295  0.002
C  C59  1  0.53146819  0.57646427  0.67761506  1  0.511444  -0.008686  3.865093  -0.003  0.477134  -0.000827  4.163268  0.002  0.508983  -0.002212  4.166773  0.0  0.215197  0.454982  -0.000118  4.159251  0.002
C  C60  1  0.68539156  0.37417125  0.19956477  1  0.063279  0.002172  3.663156  0.002  0.071949  0.001356  3.896368  0.001  0.071415  0.000846  3.915921  0.001  -0.092878  0.072391  0.001873  3.882532  0.002
C  C61  1  0.18539490  0.12582719  0.80043395  1  0.063388  0.002196  3.663107  0.002  0.072005  0.001357  3.896294  0.001  0.071471  0.000845  3.915848  0.001  -0.09286  0.07245  0.001873  3.882456  0.002
C  C62  1  0.31460242  0.87416980  0.30043436  1  0.063394  0.002224  3.663104  0.002  0.072028  0.001358  3.896267  0.001  0.071497  0.000845  3.915821  0.001  -0.092845  0.072471  0.001872  3.882431  0.002
C  C63  1  0.81460884  0.62582908  0.69956552  1  0.063241  0.002157  3.663121  0.002  0.071978  0.001358  3.896238  0.001  0.071446  0.000846  3.915792  0.001  -0.09289  0.07242  0.001873  3.882404  0.002
C  C64  1  0.65180533  0.37424554  0.05862956  1  -0.323078  -0.00015  3.67291  0.0  -0.402829  0.000121  3.915305  0.0  -0.405381  6e-06  3.9244  0.0  -0.250119  -0.400235  0.000186  3.908804  0.0
C  C65  1  0.15180464  0.12575486  0.94136926  1  -0.323073  -0.000168  3.672925  0.0  -0.402786  0.000121  3.915338  0.0  -0.405339  7e-06  3.924435  0.0  -0.250115  -0.400191  0.000186  3.90883  0.0
C  C66  1  0.34819321  0.87424475  0.44136957  1  -0.323055  -0.000174  3.672809  0.0  -0.402767  0.000121  3.91521  0.0  -0.405322  6e-06  3.924306  0.0  -0.250064  -0.400173  0.000186  3.908703  0.0
C  C67  1  0.84819682  0.62575318  0.55862927  1  -0.323051  -0.000132  3.672902  0.0  -0.402831  0.000121  3.915266  0.0  -0.405389  7e-06  3.924361  0.0  -0.250121  -0.40024  0.000185  3.908763  0.0
C  C68  1  0.54261185  0.40501737  0.27674914  1  -0.308663  0.000423  3.691178  0.0  -0.384608  0.000896  3.937029  0.001  -0.387537  0.000579  3.947598  0.0  -0.249059  -0.381781  0.001072  3.929351  0.001
C  C69  1  0.04260975  0.09498282  0.72325188  1  -0.308598  0.000438  3.691116  0.0  -0.384521  0.000895  3.93697  0.001  -0.387446  0.000578  3.947541  0.0  -0.249014  -0.381689  0.001072  3.929284  0.001
C  C70  1  0.45738791  0.90501543  0.22325085  1  -0.308634  0.000414  3.691149  0.0  -0.384581  0.000894  3.937026  0.001  -0.387514  0.000578  3.947592  0.0  -0.249045  -0.381747  0.001072  3.929326  0.001
C  C71  1  0.95738936  0.59498171  0.77674955  1  -0.30866  0.000443  3.691211  0.0  -0.384606  0.000895  3.937041  0.001  -0.387539  0.000576  3.947609  0.0  -0.249051  -0.381778  0.001073  3.929347  0.001
C  C72  1  0.19318212  0.49557877  0.06250393  1  -0.098774  0.005519  3.74284  0.003  -0.148647  0.005342  3.997351  0.003  -0.145911  0.003852  4.007273  0.002  -0.067086  -0.150602  0.006224  3.991546  0.004
C  C73  1  0.69318378  0.00442070  0.93749571  1  -0.098716  0.005516  3.742993  0.003  -0.14867  0.005343  3.997494  0.003  -0.14594  0.003853  4.00742  0.002  -0.067131  -0.150613  0.006224  3.991676  0.004
C  C74  1  0.80681559  0.99558196  0.43749676  1  -0.098805  0.005581  3.743012  0.003  -0.148724  0.005341  3.997483  0.003  -0.145989  0.003852  4.007403  0.002  -0.067125  -0.150681  0.006224  3.991681  0.004
C  C75  1  0.30682080  0.50442097  0.56250502  1  -0.098918  0.005542  3.742953  0.003  -0.148786  0.00534  3.99749  0.003  -0.146045  0.003852  4.007403  0.002  -0.067108  -0.150746  0.006223  3.9917  0.004
C  C76  1  0.25152028  0.62910273  0.00898148  1  0.664736  -0.005547  3.8182  -0.004  0.628985  0.000239  4.111042  0.0  0.665761  -0.00074  4.104641  0.0  0.214779  0.604153  0.000945  4.113774  0.001
C  C77  1  0.75152148  0.87089907  0.99101482  1  0.664395  -0.005534  3.818502  -0.004  0.628857  0.000242  4.111069  0.0  0.665634  -0.00074  4.104671  0.0  0.214721  0.60402  0.000947  4.113801  0.001
C  C78  1  0.74847880  0.12910444  0.49101358  1  0.664629  -0.005566  3.81836  -0.004  0.629029  0.000242  4.110986  0.0  0.665806  -0.000739  4.104583  0.0  0.21481  0.604198  0.000946  4.113726  0.001
C  C79  1  0.24848402  0.37089616  0.50898496  1  0.664909  -0.005537  3.818056  -0.004  0.629092  0.000241  4.110974  0.0  0.665867  -0.000739  4.104569  0.0  0.214823  0.604261  0.000946  4.11371  0.001
N  N80  1  0.78558079  0.61416558  0.19897737  1  -0.603959  0.106097  3.147799  0.134  -0.592121  0.073464  3.420269  0.096  -0.624594  0.057446  3.424131  0.082  -0.630781  -0.572518  0.082344  3.420815  0.102
N  N81  1  0.28558935  0.88582918  0.80102729  1  -0.60384  0.106105  3.147868  0.134  -0.592158  0.073461  3.420401  0.096  -0.624613  0.057446  3.42424  0.082  -0.63079  -0.572591  0.082337  3.421021  0.102
N  N82  1  0.21441140  0.11416984  0.30102713  1  -0.603779  0.106113  3.147903  0.134  -0.592054  0.073463  3.420479  0.096  -0.624515  0.057444  3.42433  0.082  -0.630785  -0.572486  0.082336  3.421097  0.102
N  N83  1  0.71441733  0.38583576  0.69897809  1  -0.60398  0.106134  3.147919  0.134  -0.592189  0.073465  3.420473  0.096  -0.624659  0.057447  3.424334  0.082  -0.630821  -0.572612  0.082342  3.421023  0.102
N  N84  1  0.04469798  0.51891815  0.11641041  1  -0.502939  0.116934  3.336812  0.15  -0.472657  0.073615  3.670102  0.099  -0.51706  0.058607  3.688417  0.085  -0.444497  -0.444685  0.081152  3.659913  0.104
N  N85  1  0.54470107  0.98108019  0.88359589  1  -0.502947  0.116939  3.336719  0.15  -0.472653  0.073611  3.670012  0.099  -0.517036  0.058603  3.688335  0.085  -0.44447  -0.444693  0.081148  3.659825  0.104
N  N86  1  0.95529854  0.01891958  0.38359620  1  -0.502984  0.116929  3.336798  0.15  -0.47269  0.073615  3.670092  0.099  -0.517087  0.058601  3.688429  0.085  -0.444481  -0.444726  0.08115  3.659905  0.104
N  N87  1  0.45530242  0.48108447  0.61641018  1  -0.502914  0.116926  3.337022  0.15  -0.472646  0.073615  3.670257  0.099  -0.517052  0.058605  3.688586  0.085  -0.444532  -0.444704  0.081148  3.660078  0.104
O  O88  1  0.01237905  0.30225831  0.19229051  1  -0.602841  0.031458  1.982546  0.043  -0.582742  0.010227  2.244165  0.016  -0.614282  0.002861  2.23577  0.007  -0.328416  -0.557389  0.020247  2.249174  0.028
O  O89  1  0.51237035  0.19774182  0.80770685  1  -0.602917  0.03145  1.982411  0.043  -0.582826  0.010219  2.244088  0.016  -0.61437  0.002857  2.235684  0.007  -0.32846  -0.557491  0.020236  2.249099  0.028
O  O90  1  0.98762616  0.80225920  0.30770599  1  -0.602925  0.031447  1.982482  0.043  -0.582816  0.010219  2.244156  0.016  -0.61436  0.002857  2.235742  0.007  -0.328462  -0.557462  0.020236  2.249167  0.028
O  O91  1  0.48762559  0.69774308  0.69229056  1  -0.602887  0.031478  1.982458  0.043  -0.582846  0.010227  2.244063  0.016  -0.614384  0.002861  2.23566  0.007  -0.328478  -0.557495  0.020247  2.249075  0.028
O  O92  1  0.38028430  0.62835218  0.95429148  1  -0.589098  0.041931  2.069754  0.056  -0.547874  0.031921  2.333604  0.045  -0.583164  0.02474  2.320946  0.038  -0.32686  -0.523357  0.036884  2.342756  0.05
O  O93  1  0.88028961  0.87165902  0.04570069  1  -0.588992  0.041911  2.069682  0.056  -0.54782  0.031918  2.333423  0.045  -0.583134  0.024739  2.320771  0.038  -0.3268  -0.523292  0.03688  2.342574  0.05
O  O94  1  0.61971374  0.12834583  0.54570423  1  -0.589069  0.041921  2.069665  0.056  -0.547885  0.031919  2.33345  0.045  -0.583197  0.024738  2.320807  0.038  -0.32684  -0.523383  0.036882  2.342593  0.05
O  O95  1  0.11972035  0.37164740  0.45429657  1  -0.589138  0.041918  2.069507  0.056  -0.547883  0.03192  2.333379  0.045  -0.583188  0.024739  2.32075  0.038  -0.326869  -0.523362  0.036884  2.342526  0.05
O  O96  1  0.16896533  0.73572127  0.02160227  1  -0.613444  0.055203  2.056194  0.077  -0.577347  0.044214  2.334117  0.066  -0.61412  0.034241  2.322581  0.056  -0.319171  -0.552293  0.051357  2.343221  0.073
O  O97  1  0.66896175  0.76428239  0.97839428  1  -0.613268  0.055207  2.056235  0.077  -0.577271  0.044211  2.334075  0.066  -0.614025  0.034238  2.322548  0.056  -0.319183  -0.552228  0.051354  2.343177  0.073
O  O98  1  0.83103972  0.23572115  0.47839252  1  -0.6134  0.055205  2.056226  0.077  -0.577364  0.044211  2.334075  0.066  -0.614126  0.034238  2.322556  0.056  -0.31923  -0.552322  0.051355  2.343179  0.073
O  O99  1  0.33104006  0.26427859  0.52160296  1  -0.613528  0.055206  2.056292  0.077  -0.577402  0.044216  2.334238  0.066  -0.61417  0.034242  2.322711  0.056  -0.319225  -0.552372  0.051358  2.343334  0.073
