# generated using pymatgen
data_CuH8C12(N2O)2
_symmetry_space_group_name_H-M   'P 1'
_cell_length_a   6.33180539
_cell_length_b   8.46186137
_cell_length_c   11.58769784
_cell_angle_alpha   109.13610210
_cell_angle_beta   90.00015688
_cell_angle_gamma   89.99995078
_symmetry_Int_Tables_number   1
_chemical_formula_structural   CuH8C12(N2O)2
_chemical_formula_sum   'Cu2 H16 C24 N8 O4'
_cell_volume   586.54873096
_cell_formula_units_Z   2
loop_
 _symmetry_equiv_pos_site_id
 _symmetry_equiv_pos_as_xyz
  1  'x, y, z'
loop_
 _atom_site_type_symbol
 _atom_site_label
 _atom_site_symmetry_multiplicity
 _atom_site_fract_x
 _atom_site_fract_y
 _atom_site_fract_z
 _atom_site_occupancy
 _atom_site_hle17_ddec_charge
 _atom_site_hle17_ddec_spin_density
 _atom_site_hle17_ddec_sum_bond_order
 _atom_site_hle17_magmom
 _atom_site_hse06_10hf_ddec_charge
 _atom_site_hse06_10hf_ddec_spin_density
 _atom_site_hse06_10hf_ddec_sum_bond_order
 _atom_site_hse06_10hf_magmom
 _atom_site_hse06_ddec_charge
 _atom_site_hse06_ddec_spin_density
 _atom_site_hse06_ddec_sum_bond_order
 _atom_site_hse06_magmom
 _atom_site_pbe_cm5_charge
 _atom_site_pbe_ddec_charge
 _atom_site_pbe_ddec_spin_density
 _atom_site_pbe_ddec_sum_bond_order
 _atom_site_pbe_magmom
Cu  Cu0  1  0.14279475  0.51283045  0.01091960  1  0.850312  -0.623622  1.902265  -0.441  0.852709  -0.746869  2.316462  -0.589  0.952682  -0.845465  2.238007  -0.694  0.736581  0.794939  -0.668019  2.369276  -0.512
Cu  Cu1  1  0.64279981  0.48716604  0.98907986  1  0.850328  0.623629  1.902237  0.441  0.852698  0.746869  2.316459  0.589  0.952699  0.845471  2.237975  0.694  0.736585  0.794954  0.668019  2.369225  0.512
H  H2  1  0.61080035  0.80353012  0.76585119  1  0.105005  0.000174  0.949775  0.0  0.113588  0.000111  1.014037  0.0  0.116983  8.3e-05  1.011915  0.0  0.106058  0.111263  0.000135  1.015448  0.0
H  H3  1  0.11080298  0.19647638  0.23414801  1  0.104935  -0.000171  0.949813  0.0  0.113529  -0.00011  1.014064  0.0  0.116925  -8.3e-05  1.011942  0.0  0.10602  0.111205  -0.000135  1.015474  0.0
H  H4  1  0.59273393  0.86984363  0.57320681  1  0.084479  -0.000102  0.987134  0.0  0.095182  -7.4e-05  1.050147  0.0  0.0972  -4.8e-05  1.050762  0.0  0.094769  0.093633  -9.6e-05  1.050029  0.0
H  H5  1  0.09272805  0.13016537  0.42679210  1  0.084485  0.000104  0.98716  0.0  0.095197  7.4e-05  1.050163  0.0  0.097214  4.8e-05  1.050778  0.0  0.094781  0.093651  9.6e-05  1.050047  0.0
H  H6  1  0.18386303  0.61218120  0.45768519  1  0.091181  9.2e-05  0.966794  0.0  0.100842  8.4e-05  1.029981  0.0  0.102864  5.6e-05  1.031071  0.0  0.099479  0.099366  0.000107  1.029416  0.0
H  H7  1  0.68386608  0.38781654  0.54231290  1  0.091164  -9.2e-05  0.966915  0.0  0.100837  -8.4e-05  1.030084  0.0  0.10286  -5.6e-05  1.031173  0.0  0.099479  0.09936  -0.000107  1.029518  0.0
H  H8  1  0.20229745  0.55094992  0.65200472  1  0.097942  -0.000158  0.969893  0.0  0.106721  -0.000151  1.034375  0.0  0.10921  -0.000101  1.03352  0.0  0.102206  0.104907  -0.000193  1.035094  0.0
H  H9  1  0.70229793  0.44904156  0.34799018  1  0.097996  0.000159  0.969974  0.0  0.106746  0.000151  1.03448  0.0  0.109222  0.0001  1.03364  0.0  0.102223  0.104933  0.000193  1.035198  0.0
H  H10  1  0.69874017  0.01487604  0.45635495  1  0.089135  -0.0  0.969268  0.0  0.099046  1e-06  1.03319  0.0  0.101472  1e-06  1.032024  0.0  0.101776  0.097292  4e-06  1.03405  0.0
H  H11  1  0.19874664  0.98512047  0.54364719  1  0.089184  -0.0  0.969231  0.0  0.099093  -1e-06  1.033151  0.0  0.10152  -1e-06  1.031985  0.0  0.101788  0.097338  -4e-06  1.034019  0.0
H  H12  1  0.69340312  0.06663020  0.25594410  1  0.103124  -2.3e-05  0.969208  0.0  0.113267  -3.9e-05  1.028619  0.0  0.115673  -2.8e-05  1.029752  0.0  0.104993  0.111665  -4.3e-05  1.02785  0.0
H  H13  1  0.19341217  0.93337254  0.74405347  1  0.103137  2.4e-05  0.969255  0.0  0.113252  3.9e-05  1.028683  0.0  0.115658  2.8e-05  1.029817  0.0  0.105014  0.111648  4.3e-05  1.027919  0.0
H  H14  1  0.87459549  0.86489709  0.07708225  1  0.08411  -3e-06  0.962968  0.0  0.089257  -1.2e-05  1.034077  0.0  0.092288  -8e-06  1.031222  0.0  0.114075  0.087219  -3e-06  1.036066  0.0
H  H15  1  0.37459828  0.13509814  0.92291728  1  0.084075  2e-06  0.963041  0.0  0.089291  1.3e-05  1.034077  0.0  0.092314  7e-06  1.031231  0.0  0.114102  0.087252  3e-06  1.036066  0.0
H  H16  1  0.03383117  0.55541599  0.27533737  1  0.082639  8e-05  0.963268  0.0  0.088681  6.3e-05  1.03237  0.0  0.092043  6.9e-05  1.029442  0.0  0.112668  0.086318  6.2e-05  1.034446  0.0
H  H17  1  0.53382871  0.44458301  0.72466079  1  0.082652  -8.2e-05  0.96325  0.0  0.088698  -6.3e-05  1.032345  0.0  0.092057  -6.9e-05  1.02942  0.0  0.112678  0.086332  -6.2e-05  1.034421  0.0
C  C18  1  0.91239547  0.62464488  0.83425026  1  0.659529  0.002513  3.85467  0.003  0.620482  0.002024  4.14029  0.003  0.662137  0.001847  4.131857  0.003  0.222057  0.592452  0.002228  4.145257  0.003
C  C19  1  0.41238970  0.37535661  0.16575081  1  0.659465  -0.002512  3.854553  -0.003  0.620506  -0.002022  4.140072  -0.003  0.662162  -0.001845  4.131639  -0.003  0.222158  0.592479  -0.002228  4.145034  -0.003
C  C20  1  0.90658957  0.67116122  0.72034070  1  -0.070497  -0.001608  3.758508  -0.002  -0.047124  -0.000839  3.9865  -0.001  -0.055927  -0.000511  4.006402  -0.001  -0.016933  -0.041202  -0.001097  3.97274  -0.001
C  C21  1  0.40659701  0.32883902  0.27965920  1  -0.070407  0.001608  3.758386  0.002  -0.04701  0.000843  3.986283  0.001  -0.055813  0.000513  4.006179  0.001  -0.016906  -0.041096  0.001097  3.972531  0.001
C  C22  1  0.73543291  0.76212219  0.69772128  1  -0.060408  -0.00141  3.733766  -0.001  -0.084713  -0.001057  3.981448  -0.001  -0.083104  -0.00079  4.000235  -0.001  -0.080672  -0.085589  -0.001239  3.968608  -0.001
C  C23  1  0.23543424  0.23788557  0.30228273  1  -0.06043  0.001404  3.733721  0.001  -0.084738  0.001056  3.98141  0.001  -0.083133  0.000789  4.0002  0.001  -0.080667  -0.085613  0.001239  3.968576  0.001
C  C24  1  0.72677950  0.79947979  0.58965366  1  -0.112363  -0.000333  3.731169  0.0  -0.129032  -0.000261  3.975751  0.0  -0.133915  -0.00013  3.998467  0.0  -0.090213  -0.125837  -0.000383  3.960632  0.0
C  C25  1  0.22677822  0.20052671  0.41034918  1  -0.11236  0.000327  3.731217  0.0  -0.129037  0.000261  3.975828  0.0  -0.13392  0.000127  3.998545  0.0  -0.090236  -0.125844  0.000383  3.960715  0.0
C  C26  1  0.88537389  0.74480837  0.50035147  1  0.054837  -0.00053  3.797744  0.0  0.06526  -0.000325  4.032316  0.0  0.066892  -0.000234  4.056909  0.0  -0.007383  0.064194  -0.00039  4.015626  0.0
C  C27  1  0.38537772  0.25519687  0.49965045  1  0.054852  0.000527  3.797608  0.0  0.065226  0.000326  4.032242  0.0  0.066858  0.000238  4.056837  0.0  -0.007415  0.064165  0.00039  4.015549  0.0
C  C28  1  0.05673355  0.65418793  0.52421972  1  -0.120375  0.00062  3.732196  0.001  -0.137275  0.000319  3.981886  0.0  -0.142478  0.000232  4.004334  0.0  -0.089396  -0.133796  0.000382  3.966779  0.0
C  C29  1  0.55673790  0.34581857  0.47578112  1  -0.120322  -0.000617  3.732121  -0.001  -0.137217  -0.00032  3.981814  0.0  -0.142421  -0.000235  4.00426  0.0  -0.08937  -0.13374  -0.000382  3.966706  0.0
C  C30  1  0.06819502  0.61943478  0.63347657  1  -0.066726  0.000588  3.740768  0.001  -0.088179  0.000503  3.983819  0.001  -0.086277  0.000358  4.002641  0.001  -0.083634  -0.089276  0.000602  3.971056  0.001
C  C31  1  0.56819881  0.38056671  0.36652137  1  -0.066791  -0.000587  3.740889  -0.001  -0.088227  -0.000503  3.983948  -0.001  -0.086315  -0.000359  4.002776  -0.001  -0.083624  -0.089322  -0.000602  3.971191  -0.001
C  C32  1  0.87240731  0.78211281  0.38463808  1  -0.011096  -8.7e-05  3.784207  0.0  0.00938  -0.000122  4.013246  0.0  0.005155  -0.000137  4.03575  0.0  -0.008541  0.012167  -8.1e-05  3.997629  0.0
C  C33  1  0.37241646  0.21788493  0.61536204  1  -0.011164  7.4e-05  3.784132  0.0  0.009353  0.000126  4.013151  0.0  0.005125  0.00014  4.035658  0.0  -0.008555  0.012134  8.1e-05  3.997529  0.0
C  C34  1  0.77146761  0.92563226  0.37600282  1  -0.061625  0.000182  3.711066  0.0  -0.082791  0.000141  3.94954  0.0  -0.079373  0.000161  3.965681  0.0  -0.071314  -0.08453  9e-05  3.938092  0.0
C  C35  1  0.27147220  0.07436423  0.62399598  1  -0.06163  -0.000162  3.71107  0.0  -0.082801  -0.000143  3.949541  0.0  -0.079384  -0.000162  3.965684  0.0  -0.071323  -0.08454  -9e-05  3.938093  0.0
C  C36  1  0.76953897  0.95592185  0.26500076  1  -0.107417  -0.000271  3.735062  0.0  -0.114282  -0.000302  3.973075  0.0  -0.120117  -0.000268  3.993198  0.0  -0.083802  -0.110367  -0.000282  3.958854  0.0
C  C37  1  0.26954096  0.04408089  0.73499866  1  -0.107414  0.000249  3.735164  0.0  -0.114257  0.000304  3.973219  0.0  -0.120092  0.000269  3.993341  0.0  -0.083812  -0.110344  0.000282  3.958994  0.0
C  C38  1  0.86947395  0.84280519  0.16449651  1  0.121935  -0.000266  3.704891  0.0  0.09337  -0.000145  3.966889  0.0  0.100877  -9.8e-05  3.98362  0.0  0.042577  0.088852  -0.000148  3.955687  0.0
C  C39  1  0.36946998  0.15719755  0.83550394  1  0.121907  0.000282  3.704972  0.0  0.093294  0.000146  3.966956  0.0  0.100807  9.9e-05  3.983692  0.0  0.042542  0.088776  0.000148  3.955746  0.0
C  C40  1  0.96164706  0.67318496  0.27705858  1  0.096164  6.4e-05  3.66881  0.0  0.06606  8.3e-05  3.921603  0.0  0.073376  0.000148  3.937855  0.0  0.04535  0.061026  -1e-05  3.911774  0.0
C  C41  1  0.46164871  0.32681528  0.72294227  1  0.096093  -4.3e-05  3.668755  0.0  0.065965  -8.6e-05  3.92156  0.0  0.07329  -0.00015  3.937798  0.0  0.045296  0.06093  1e-05  3.911724  0.0
N  N42  1  0.96174629  0.70236286  0.17014629  1  -0.336856  0.002365  3.271541  0.002  -0.297482  0.000556  3.569837  0.0  -0.319417  0.000309  3.586157  0.0  -0.33118  -0.284034  0.001286  3.56065  0.001
N  N43  1  0.46174216  0.29763738  0.82985457  1  -0.336783  -0.002377  3.271476  -0.002  -0.297398  -0.000555  3.569802  0.0  -0.319339  -0.000309  3.586119  0.0  -0.331175  -0.283955  -0.001285  3.560602  -0.001
N  N44  1  0.40737650  0.65386315  0.05117918  1  -0.538353  0.002956  2.882146  0.004  -0.599929  0.000434  3.283134  0.001  -0.663511  -0.000102  3.302436  0.0  -0.366693  -0.563499  0.00159  3.274546  0.002
N  N45  1  0.90737677  0.34612958  0.94881980  1  -0.538307  -0.002955  2.881899  -0.004  -0.599869  -0.000438  3.282855  -0.001  -0.663445  9.9e-05  3.302138  0.0  -0.366674  -0.563438  -0.001592  3.274264  -0.002
N  N46  1  0.40746799  0.78639899  0.03118163  1  0.411858  -0.001099  4.106515  -0.002  0.46157  0.000153  4.418425  0.0  0.484579  0.000309  4.454943  0.0  0.099414  0.447115  5.1e-05  4.394935  0.0
N  N47  1  0.90747007  0.21359500  0.96881937  1  0.411896  0.001132  4.106324  0.002  0.461616  -0.000147  4.418205  0.0  0.484626  -0.000307  4.454721  0.0  0.099462  0.447163  -5e-05  4.394712  0.0
N  N48  1  0.40802855  0.91549977  0.01663526  1  -0.262201  0.005468  2.319646  0.006  -0.285823  0.000888  2.546463  0.001  -0.296228  0.000175  2.558768  0.0  -0.126481  -0.280088  0.002303  2.538693  0.003
N  N49  1  0.90803714  0.08449548  0.98336691  1  -0.262265  -0.005516  2.319691  -0.006  -0.285885  -0.000895  2.546496  -0.001  -0.29629  -0.00018  2.5588  0.0  -0.126534  -0.280151  -0.002304  2.538725  -0.003
O  O50  1  0.73376249  0.61667276  0.88280087  1  -0.606884  0.05655  2.156063  0.073  -0.567343  0.04174  2.435543  0.059  -0.609452  0.033615  2.426888  0.05  -0.315753  -0.53987  0.046268  2.441505  0.063
O  O51  1  0.23375648  0.38332623  0.11720019  1  -0.606815  -0.056551  2.155963  -0.073  -0.567348  -0.041744  2.435447  -0.059  -0.609457  -0.033618  2.426801  -0.05  -0.315783  -0.53987  -0.046268  2.441411  -0.063
O  O52  1  0.09269097  0.59600352  0.87177023  1  -0.577506  -0.067227  2.102063  -0.087  -0.541486  -0.048825  2.374295  -0.071  -0.583688  -0.039154  2.366124  -0.06  -0.310016  -0.514365  -0.053859  2.379955  -0.075
O  O53  1  0.59268730  0.40399923  0.12823150  1  -0.577425  0.067234  2.10203  0.087  -0.54147  0.048826  2.374267  0.071  -0.583672  0.039154  2.366082  0.06  -0.310048  -0.514364  0.05386  2.379952  0.075
