# generated using pymatgen
data_InH24C40(NO4)2
_symmetry_space_group_name_H-M   'P 1'
_cell_length_a   20.68403714
_cell_length_b   20.68437667
_cell_length_c   22.75726602
_cell_angle_alpha   103.15472967
_cell_angle_beta   105.17499207
_cell_angle_gamma   117.49510565
_symmetry_Int_Tables_number   1
_chemical_formula_structural   InH24C40(NO4)2
_chemical_formula_sum   'In4 H96 C160 N8 O32'
_cell_volume   7613.92552476
_cell_formula_units_Z   4
loop_
 _symmetry_equiv_pos_site_id
 _symmetry_equiv_pos_as_xyz
  1  'x, y, z'
loop_
 _atom_site_type_symbol
 _atom_site_label
 _atom_site_symmetry_multiplicity
 _atom_site_fract_x
 _atom_site_fract_y
 _atom_site_fract_z
 _atom_site_occupancy
 _atom_site_pbe_bader_charge
 _atom_site_pbe_bader_spin_density
 _atom_site_pbe_cm5_charge
 _atom_site_pbe_ddec_charge
 _atom_site_pbe_ddec_spin_density
 _atom_site_pbe_ddec_sum_bond_order
 _atom_site_pbe_magmom
In  In0  1  0.00269231  0.06176814  0.81341174  1  1.869924  0  0.731625  1.382373  0  2.556634  0
In  In1  1  0.74842968  0.18932958  0.68658129  1  1.872979  0  0.730847  1.381277  0  2.559234  0
In  In2  1  0.99732816  0.93827888  0.18663203  1  1.870147  0  0.731523  1.382283  0  2.556852  0
In  In3  1  0.25158082  0.81063879  0.31334795  1  1.872652  0  0.730811  1.381438  0  2.559174  0
H  H4  1  0.47323442  0.79675192  0.41117563  1  0.093862  0  0.113307  0.121248  0  0.986835  0
H  H5  1  0.88549369  0.06191222  0.08878889  1  0.088888  0  0.113975  0.122066  0  0.987259  0
H  H6  1  0.52673666  0.20324089  0.58876504  1  0.094831  0  0.113631  0.121731  0  0.986781  0
H  H7  1  0.11456499  0.93813763  0.91125128  1  0.089206  0  0.11396  0.122202  0  0.987302  0
H  H8  1  0.72703339  0.96895752  0.68341135  1  0.146267  0  0.117363  0.130248  0  0.994093  0
H  H9  1  0.78543253  0.04355912  0.81655000  1  0.144036  0  0.116899  0.129529  0  0.993835  0
H  H10  1  0.27297694  0.03107211  0.31659304  1  0.146808  0  0.117348  0.130246  0  0.993798  0
H  H11  1  0.21462981  0.95648396  0.18347114  1  0.140714  0  0.116829  0.129332  0  0.994145  0
H  H12  1  0.28857975  0.70071090  0.47863520  1  0.120523  0  0.114634  0.121835  0  0.982049  0
H  H13  1  0.72183605  0.80981984  0.02137671  1  0.102914  0  0.113316  0.120742  0  0.982592  0
H  H14  1  0.71141550  0.29927478  0.52132002  1  0.120222  0  0.114787  0.122162  0  0.981775  0
H  H15  1  0.27819999  0.19020815  0.97865511  1  0.102388  0  0.113297  0.120783  0  0.982583  0
H  H16  1  0.13446070  0.02924918  0.68794624  1  0.098311  0  0.114047  0.123464  0  0.980075  0
H  H17  1  0.84124204  0.44653807  0.81211732  1  0.099293  0  0.114835  0.124261  0  0.981361  0
H  H18  1  0.86545089  0.97068593  0.31201896  1  0.09926  0  0.114173  0.123741  0  0.979852  0
H  H19  1  0.15870855  0.55339270  0.18790705  1  0.099077  0  0.114918  0.124228  0  0.981449  0
H  H20  1  0.37213488  0.42957050  0.67240004  1  0.047886  0  0.107866  0.106771  0  0.996015  0
H  H21  1  0.25715160  0.69994574  0.82755763  1  0.075694  0  0.107432  0.107612  0  0.996812  0
H  H22  1  0.62783354  0.57040527  0.32757726  1  0.048309  0  0.107936  0.106968  0  0.996057  0
H  H23  1  0.74285787  0.30005342  0.17244342  1  0.075833  0  0.107462  0.107537  0  0.997009  0
H  H24  1  0.55697565  0.76773187  0.48954850  1  0.06521  0  0.102351  0.106425  0  1.032414  0
H  H25  1  0.77817285  0.06729409  0.01033499  1  0.084045  0  0.101672  0.104469  0  1.033397  0
H  H26  1  0.44302661  0.23229547  0.51038880  1  0.068486  0  0.102221  0.106264  0  1.032314  0
H  H27  1  0.22190456  0.93276231  0.98971675  1  0.083935  0  0.101744  0.10459  0  1.033371  0
H  H28  1  0.58178787  0.86230500  0.61520694  1  0.105672  0  0.113539  0.128375  0  0.988192  0
H  H29  1  0.74690149  0.96644003  0.88468365  1  0.103722  0  0.113898  0.128362  0  0.987369  0
H  H30  1  0.41825396  0.13773222  0.38476749  1  0.10557  0  0.113496  0.128566  0  0.987933  0
H  H31  1  0.25316322  0.03362116  0.11535183  1  0.103326  0  0.113798  0.128282  0  0.987715  0
H  H32  1  0.10833119  0.01308376  0.47164627  1  0.068317  0  0.110749  0.119098  0  0.991297  0
H  H33  1  0.04142548  0.63664798  0.02842214  1  0.086436  0  0.111143  0.119428  0  0.99196  0
H  H34  1  0.89161830  0.98682259  0.52833280  1  0.069153  0  0.110757  0.11904  0  0.991378  0
H  H35  1  0.95853541  0.36333411  0.97162399  1  0.086196  0  0.111181  0.119623  0  0.991823  0
H  H36  1  0.29631386  0.29407562  0.66668365  1  0.089051  0  0.114246  0.126048  0  0.98746  0
H  H37  1  0.12741235  0.62972777  0.83330694  1  0.08722  0  0.113728  0.126139  0  0.98655  0
H  H38  1  0.70365883  0.70589641  0.33328419  1  0.088994  0  0.114218  0.125865  0  0.987639  0
H  H39  1  0.87260500  0.37023941  0.16671737  1  0.085993  0  0.113921  0.126424  0  0.986377  0
H  H40  1  0.37734532  0.06712313  0.49607726  1  0.115797  0  0.114554  0.122886  0  0.991737  0
H  H41  1  0.07110686  0.88123352  0.00392838  1  0.125464  0  0.112738  0.120098  0  0.992809  0
H  H42  1  0.62261257  0.93281037  0.50390848  1  0.11571  0  0.114571  0.122746  0  0.99197  0
H  H43  1  0.92887110  0.11877070  0.99609490  1  0.124944  0  0.112684  0.11992  0  0.993202  0
H  H44  1  0.63367394  0.68416369  0.62653715  1  0.035167  0  0.101263  0.105888  0  1.019042  0
H  H45  1  0.55775254  0.00741143  0.87367833  1  0.045956  0  0.102533  0.106444  0  1.019296  0
H  H46  1  0.36638028  0.31587632  0.37344727  1  0.034637  0  0.101361  0.106034  0  1.01884  0
H  H47  1  0.44231062  0.99267325  0.12635329  1  0.045541  0  0.102384  0.106519  0  1.018988  0
H  H48  1  0.37150229  0.67201337  0.55775897  1  0.072765  0  0.107682  0.115454  0  0.990386  0
H  H49  1  0.61408164  0.81363240  0.94216459  1  0.054905  0  0.107226  0.1153  0  0.990401  0
H  H50  1  0.62852576  0.32802077  0.44221006  1  0.071669  0  0.107803  0.115666  0  0.990117  0
H  H51  1  0.38596193  0.18638735  0.05786161  1  0.054522  0  0.107276  0.11544  0  0.990286  0
H  H52  1  0.77873411  0.79315259  0.69745238  1  0.101418  0  0.113271  0.12242  0  0.984104  0
H  H53  1  0.59583717  0.08155809  0.80272954  1  0.114238  0  0.113329  0.122621  0  0.983261  0
H  H54  1  0.22130183  0.20689706  0.30254661  1  0.10052  0  0.113204  0.122379  0  0.984131  0
H  H55  1  0.40423635  0.91852386  0.19731122  1  0.115494  0  0.113172  0.122357  0  0.983431  0
H  H56  1  0.21496595  0.05917690  0.62089172  1  0.099074  0  0.111033  0.120696  0  0.990991  0
H  H57  1  0.93835458  0.59409979  0.87922984  1  0.091392  0  0.110842  0.120637  0  0.991023  0
H  H58  1  0.78498659  0.94077451  0.37909947  1  0.099517  0  0.111051  0.1207  0  0.991023  0
H  H59  1  0.06160646  0.40583105  0.12078586  1  0.092732  0  0.11099  0.12069  0  0.991127  0
H  H60  1  0.34717840  0.33292366  0.47209949  1  0.068559  0  0.098009  0.092192  0  1.046588  0
H  H61  1  0.36079499  0.87523008  0.02789985  1  0.052158  0  0.098623  0.093961  0  1.045829  0
H  H62  1  0.65278359  0.66705195  0.52787081  1  0.069444  0  0.09799  0.092117  0  1.046287  0
H  H63  1  0.63922963  0.12482943  0.97212365  1  0.052493  0  0.098686  0.095759  0  1.044279  0
H  H64  1  0.11980877  0.90926946  0.40132766  1  0.116044  0  0.121713  0.132148  0  0.976245  0
H  H65  1  0.00789545  0.71846283  0.09867407  1  0.144065  0  0.121755  0.132837  0  0.974313  0
H  H66  1  0.88013749  0.09065011  0.59864227  1  0.116765  0  0.121666  0.132153  0  0.976694  0
H  H67  1  0.99205875  0.28151857  0.90136300  1  0.143781  0  0.12156  0.132617  0  0.97448  0
H  H68  1  0.36724793  0.17155633  0.56759469  1  0.065647  0  0.107477  0.114775  0  0.999594  0
H  H69  1  0.10403763  0.79961198  0.93247397  1  0.063753  0  0.107602  0.11585  0  0.998154  0
H  H70  1  0.63270027  0.82837404  0.43238257  1  0.064062  0  0.107285  0.114509  0  0.999663  0
H  H71  1  0.89594210  0.20039433  0.06755644  1  0.062779  0  0.107595  0.115604  0  0.998206  0
H  H72  1  0.41405403  0.56820410  0.46777007  1  0.077685  0  0.11377  0.124449  0  0.986069  0
H  H73  1  0.60045408  0.94636902  0.03221854  1  0.079217  0  0.112453  0.12311  0  0.986519  0
H  H74  1  0.58590934  0.43178804  0.53219270  1  0.077601  0  0.113745  0.124471  0  0.985806  0
H  H75  1  0.39957274  0.05369700  0.96782506  1  0.080225  0  0.112388  0.122867  0  0.986766  0
H  H76  1  0.34953272  0.43374182  0.46626388  1  0.083708  0  0.107758  0.108868  0  0.996762  0
H  H77  1  0.46747933  0.88345039  0.03373240  1  0.08343  0  0.106943  0.10937  0  0.995929  0
H  H78  1  0.65043943  0.56626403  0.53371903  1  0.084069  0  0.107698  0.108968  0  0.996608  0
H  H79  1  0.53252923  0.11659482  0.96628815  1  0.083748  0  0.106955  0.109351  0  0.996377  0
H  H80  1  0.06400947  0.18568064  0.64875324  1  0.113298  0  0.117402  0.124943  0  0.977462  0
H  H81  1  0.03677726  0.41511049  0.85098612  1  0.123948  0  0.116544  0.124958  0  0.977327  0
H  H82  1  0.93589330  0.81424948  0.35117631  1  0.115064  0  0.11734  0.125031  0  0.977482  0
H  H83  1  0.96320607  0.58481266  0.14907507  1  0.113643  0  0.116608  0.125  0  0.977426  0
H  H84  1  0.14003914  0.21297022  0.57803208  1  0.070711  0  0.110884  0.121329  0  0.986847  0
H  H85  1  0.13485016  0.56182532  0.92178960  1  0.056147  0  0.10984  0.119398  0  0.988186  0
H  H86  1  0.85992202  0.78698307  0.42194089  1  0.071886  0  0.110832  0.121155  0  0.986915  0
H  H87  1  0.86513851  0.43809484  0.07825902  1  0.056387  0  0.10983  0.119376  0  0.988468  0
H  H88  1  0.27102092  0.19808108  0.46604939  1  0.099866  0  0.112764  0.124585  0  1.002562  0
H  H89  1  0.23202875  0.80499183  0.03397190  1  0.118289  0  0.112222  0.123151  0  1.003186  0
H  H90  1  0.72896795  0.80189872  0.53392806  1  0.100578  0  0.112699  0.124598  0  1.002743  0
H  H91  1  0.76799464  0.19503813  0.96606459  1  0.118045  0  0.112444  0.123493  0  1.003308  0
H  H92  1  0.53825255  0.67002049  0.68223173  1  0.091998  0  0.112231  0.123431  0  0.985412  0
H  H93  1  0.48782719  0.85596075  0.81773762  1  0.07727  0  0.112137  0.123764  0  0.98454  0
H  H94  1  0.46174324  0.32998545  0.31773364  1  0.091829  0  0.112316  0.123755  0  0.985252  0
H  H95  1  0.51221643  0.14408779  0.18226845  1  0.077277  0  0.112121  0.123918  0  0.984527  0
H  H96  1  0.47323518  0.53571764  0.68119092  1  0.036165  0  0.106633  0.106138  0  0.998391  0
H  H97  1  0.35454369  0.79205716  0.81877522  1  0.072066  0  0.106967  0.107382  0  0.997152  0
H  H98  1  0.52675093  0.46429239  0.31877791  1  0.035649  0  0.10666  0.106013  0  0.998443  0
H  H99  1  0.64548337  0.20795977  0.18122674  1  0.071603  0  0.107004  0.107437  0  0.997437  0
C  C100  1  0.76108919  0.88685758  0.69418035  1  0.00361  0  -0.007357  -0.012036  0  3.950993  0
C  C101  1  0.69273422  0.06706568  0.80592516  1  -0.009493  0  -0.007878  -0.011299  0  3.950698  0
C  C102  1  0.23892840  0.11317496  0.30581220  1  0.004803  0  -0.007451  -0.012486  0  3.950813  0
C  C103  1  0.30734372  0.93301245  0.19410690  1  -0.00858  0  -0.00783  -0.011816  0  3.951166  0
C  C104  1  0.84817488  0.94995867  0.73573953  1  1.550627  0  0.201697  0.527676  0  4.266952  0
C  C105  1  0.71429782  0.11252146  0.76431036  1  1.555071  0  0.202668  0.530149  0  4.265439  0
C  C106  1  0.15182444  0.05008395  0.26429267  1  1.549318  0  0.201732  0.528048  0  4.266305  0
C  C107  1  0.28575121  0.88750743  0.23567361  1  1.555654  0  0.203125  0.531055  0  4.26579  0
C  C108  1  0.37666993  0.75036849  0.44090472  1  0.001661  0  -0.000918  0.000232  0  3.931254  0
C  C109  1  0.80929944  0.93562815  0.05910128  1  -0.018128  0  -0.001065  -0.000251  0  3.931113  0
C  C110  1  0.62330882  0.24960629  0.55903758  1  0.000739  0  -0.000703  0.000476  0  3.931149  0
C  C111  1  0.19072498  0.06440622  0.94094401  1  -0.018356  0  -0.000928  -0.000221  0  3.931484  0
C  C112  1  0.48089724  0.62857016  0.57502094  1  0.295368  0  0.103955  0.177008  0  4.019756  0
C  C113  1  0.55353490  0.90590234  0.92496378  1  0.315382  0  0.102278  0.173784  0  4.023048  0
C  C114  1  0.51911346  0.37144736  0.42494264  1  0.316416  0  0.103545  0.176868  0  4.020744  0
C  C115  1  0.44650845  0.09416986  0.07506474  1  0.342357  0  0.102086  0.173899  0  4.023239  0
C  C116  1  0.32881962  0.77002236  0.39559564  1  1.560622  0  0.208398  0.543028  0  4.246288  0
C  C117  1  0.87424480  0.93308739  0.10444874  1  1.562102  0  0.206253  0.540026  0  4.247754  0
C  C118  1  0.67114352  0.22992256  0.60433040  1  1.560831  0  0.208144  0.543361  0  4.245704  0
C  C119  1  0.12576925  0.06694358  0.89559632  1  1.56288  0  0.206409  0.54011  0  4.247733  0
C  C120  1  0.45216378  0.76931497  0.44363794  1  -0.004362  0  -0.071808  -0.071937  0  3.949739  0
C  C121  1  0.82558099  0.00839066  0.05632702  1  -0.038617  0  -0.072481  -0.073516  0  3.950569  0
C  C122  1  0.54782096  0.23068130  0.55630802  1  -0.002215  0  -0.072118  -0.072572  0  3.950131  0
C  C123  1  0.17447072  0.99165450  0.94372169  1  -0.037035  0  -0.072618  -0.073925  0  3.950843  0
C  C124  1  0.70565585  0.90634861  0.67079981  1  -0.034707  0  -0.070642  -0.070495  0  3.94433  0
C  C125  1  0.73550669  0.03489420  0.82922983  1  -0.025258  0  -0.069588  -0.069335  0  3.943939  0
C  C126  1  0.29436469  0.09368148  0.32918794  1  -0.039778  0  -0.07088  -0.070514  0  3.944097  0
C  C127  1  0.26457059  0.96518038  0.17080871  1  -0.023327  0  -0.069711  -0.068974  0  3.944394  0
C  C128  1  0.59792083  0.76579214  0.61594277  1  0.305008  0  0.097061  0.168997  0  4.020188  0
C  C129  1  0.64985360  0.98209528  0.88412237  1  0.29188  0  0.098761  0.172084  0  4.019725  0
C  C130  1  0.40210996  0.23423021  0.38401524  1  0.323854  0  0.097045  0.169441  0  4.020523  0
C  C131  1  0.35022941  0.01800002  0.11593447  1  0.299748  0  0.098753  0.172075  0  4.019346  0
C  C132  1  0.46890122  0.71863047  0.52805178  1  0.308172  0  0.093853  0.159299  0  4.036684  0
C  C133  1  0.69049942  0.94074790  0.97187191  1  0.295428  0  0.092696  0.155712  0  4.037054  0
C  C134  1  0.53112267  0.28139722  0.47191127  1  0.307836  0  0.093856  0.159027  0  4.03709  0
C  C135  1  0.30954834  0.05929848  0.02816748  1  0.294714  0  0.092602  0.15573  0  4.037175  0
C  C136  1  0.34716332  0.71437505  0.48139595  1  -0.050145  0  -0.075098  -0.074977  0  3.960536  0
C  C137  1  0.73278854  0.86564725  0.01859531  1  0.075793  0  -0.072911  -0.071906  0  3.957993  0
C  C138  1  0.65283303  0.28561594  0.51855740  1  -0.043943  0  -0.075313  -0.075312  0  3.960294  0
C  C139  1  0.26724045  0.13438422  0.98144319  1  0.076898  0  -0.07306  -0.071968  0  3.958567  0
C  C140  1  0.25504042  0.92199308  0.40149804  1  1.569559  0  0.211419  0.542698  0  4.232317  0
C  C141  1  0.02050949  0.85358601  0.09845501  1  1.56081  0  0.211817  0.544569  0  4.232151  0
C  C142  1  0.74491785  0.07793828  0.59842846  1  1.570077  0  0.211518  0.542341  0  4.232337  0
C  C143  1  0.97953813  0.14646030  0.90161763  1  1.563299  0  0.211662  0.544221  0  4.23271  0
C  C144  1  0.13646493  0.06921488  0.66341206  1  -0.038863  0  -0.074088  -0.075986  0  3.960773  0
C  C145  1  0.90573886  0.47303097  0.83659796  1  0.057789  0  -0.074951  -0.077744  0  3.962267  0
C  C146  1  0.86346060  0.93072973  0.33655813  1  0.017734  0  -0.074117  -0.076456  0  3.961404  0
C  C147  1  0.09422163  0.52689594  0.16342434  1  0.056901  0  -0.074957  -0.077404  0  3.96277  0
C  C148  1  0.23731046  0.09843196  0.52269287  1  0.323952  0  0.093528  0.164331  0  4.037051  0
C  C149  1  0.07575380  0.71453585  0.97734844  1  0.280067  0  0.094453  0.165332  0  4.039209  0
C  C150  1  0.76264185  0.90150518  0.47728315  1  0.322834  0  0.093384  0.16451  0  4.037438  0
C  C151  1  0.92423392  0.28545132  0.02268632  1  0.278366  0  0.094401  0.164976  0  4.03942  0
C  C152  1  0.35047263  0.37931939  0.62697804  1  0.006517  0  -0.084453  -0.108085  0  3.983134  0
C  C153  1  0.25232845  0.72368095  0.87299335  1  0.004677  0  -0.084714  -0.111489  0  3.987995  0
C  C154  1  0.64949681  0.62066105  0.37299375  1  0.007625  0  -0.084468  -0.108422  0  3.983602  0
C  C155  1  0.74768407  0.27632911  0.12701615  1  0.004251  0  -0.08467  -0.111239  0  3.988269  0
C  C156  1  0.40596331  0.47319947  0.57359213  1  -0.015656  0  -0.008018  0.059912  0  4.006507  0
C  C157  1  0.39961561  0.83251853  0.92638969  1  0.001726  0  -0.007033  0.06095  0  4.004775  0
C  C158  1  0.59401239  0.52680167  0.42638118  1  -0.017327  0  -0.008354  0.05932  0  4.007385  0
C  C159  1  0.60041217  0.16754359  0.07361968  1  0.001098  0  -0.006903  0.060795  0  4.00603  0
C  C160  1  0.49820534  0.75334683  0.48679831  1  -0.042227  0  -0.092073  -0.174544  0  4.001576  0
C  C161  1  0.76649328  0.01128073  0.01312900  1  -0.060604  0  -0.090899  -0.169154  0  3.998991  0
C  C162  1  0.50179923  0.24666971  0.51315140  1  -0.044611  0  -0.091891  -0.174084  0  4.000866  0
C  C163  1  0.23356244  0.98876604  0.98691596  1  -0.060769  0  -0.090756  -0.169079  0  3.998708  0
C  C164  1  0.24908194  0.98286234  0.44509710  1  -0.007918  0  0.002231  0.002257  0  3.925633  0
C  C165  1  0.03775127  0.80395937  0.05488712  1  0.012686  0  0.001778  0.000686  0  3.927356  0
C  C166  1  0.75086881  0.01705754  0.55485286  1  -0.008228  0  0.002455  0.002167  0  3.9259  0
C  C167  1  0.96225901  0.19605853  0.94516727  1  -0.041221  0  0.001971  0.000979  0  3.927843  0
C  C168  1  0.36495778  0.39298707  0.57223007  1  -0.001844  0  -0.00612  0.060486  0  4.002361  0
C  C169  1  0.32074770  0.79291681  0.92774696  1  -0.038017  0  -0.006368  0.06381  0  3.999028  0
C  C170  1  0.63501454  0.60700499  0.42774283  1  -0.009702  0  -0.005954  0.060883  0  4.002958  0
C  C171  1  0.67926782  0.20711975  0.07226203  1  -0.037468  0  -0.00634  0.06429  0  4.000567  0
C  C172  1  0.62455500  0.84656793  0.63255462  1  -0.032171  0  -0.086759  -0.168536  0  3.959402  0
C  C173  1  0.71392838  0.99199720  0.86743101  1  -0.055318  0  -0.087721  -0.170094  0  3.960915  0
C  C174  1  0.37547508  0.15345611  0.36741162  1  -0.02623  0  -0.086468  -0.168844  0  3.959316  0
C  C175  1  0.28615462  0.00809126  0.13262162  1  -0.053642  0  -0.087446  -0.17008  0  3.961532  0
C  C176  1  0.09555389  0.10630864  0.67254786  1  0.023089  0  -0.002886  -0.001731  0  3.936248  0
C  C177  1  0.93361643  0.42292507  0.82735629  1  -0.032816  0  -0.001669  0.001025  0  3.930776  0
C  C178  1  0.90436162  0.89363204  0.32741588  1  -0.032861  0  -0.002511  -0.001014  0  3.937082  0
C  C179  1  0.06635505  0.57700306  0.17267877  1  -0.039151  0  -0.001704  0.00082  0  3.9321  0
C  C180  1  0.16697871  0.02421312  0.47721502  1  -0.01774  0  -0.081914  -0.159054  0  3.966325  0
C  C181  1  0.04699878  0.68972492  0.02283448  1  -0.035905  0  -0.082462  -0.159196  0  3.969797  0
C  C182  1  0.83297724  0.97570959  0.52276338  1  -0.018816  0  -0.081546  -0.158751  0  3.965957  0
C  C183  1  0.95297017  0.31026164  0.97720122  1  -0.03661  0  -0.082233  -0.159088  0  3.969733  0
C  C184  1  0.30711014  0.30297345  0.62396356  1  -0.032713  0  -0.087207  -0.165198  0  3.981484  0
C  C185  1  0.17902084  0.68324668  0.87603516  1  -0.002832  0  -0.085488  -0.163932  0  3.98212  0
C  C186  1  0.69286413  0.69700040  0.37600528  1  -0.034261  0  -0.08713  -0.164802  0  3.982083  0
C  C187  1  0.82099226  0.31674239  0.12398856  1  -0.00239  0  -0.085567  -0.164292  0  3.982731  0
C  C188  1  0.31914871  0.05664189  0.49136286  1  -0.017082  0  -0.073629  -0.077934  0  3.961759  0
C  C189  1  0.06528760  0.82772346  0.00862600  1  -0.018087  0  -0.071993  -0.072836  0  3.962907  0
C  C190  1  0.68079880  0.94328257  0.50860058  1  -0.017192  0  -0.07355  -0.077308  0  3.961815  0
C  C191  1  0.93470950  0.17228681  0.99141521  1  -0.018622  0  -0.072112  -0.072737  0  3.963449  0
C  C192  1  0.65387261  0.74645844  0.63958295  1  -0.025183  0  -0.100455  -0.192363  0  4.029364  0
C  C193  1  0.60698282  0.01455011  0.86060143  1  -0.04937  0  -0.102685  -0.195593  0  4.027157  0
C  C194  1  0.34616452  0.25357354  0.36038440  1  -0.020502  0  -0.100653  -0.192751  0  4.029397  0
C  C195  1  0.39309643  0.98554209  0.13944627  1  -0.052395  0  -0.102898  -0.195871  0  4.026941  0
C  C196  1  0.27684227  0.23605339  0.56566561  1  0.335017  0  0.111023  0.189956  0  4.002714  0
C  C197  1  0.17040628  0.71118309  0.93435957  1  0.330461  0  0.109651  0.188512  0  4.005371  0
C  C198  1  0.72312755  0.76390965  0.43430710  1  0.337456  0  0.110952  0.189766  0  4.003571  0
C  C199  1  0.82960165  0.28880852  0.06566973  1  0.330086  0  0.109886  0.188666  0  4.006618  0
C  C200  1  0.18382324  0.13931589  0.59671213  1  0.27659  0  0.098921  0.172321  0  4.022143  0
C  C201  1  0.04259343  0.58701869  0.90327522  1  0.316082  0  0.096389  0.171583  0  4.02489  0
C  C202  1  0.81613368  0.86064015  0.40326914  1  0.301239  0  0.098963  0.173431  0  4.021473  0
C  C203  1  0.95739404  0.41293128  0.09676752  1  0.311203  0  0.096273  0.171297  0  4.026374  0
C  C204  1  0.39296760  0.69847968  0.52495414  1  -0.013629  0  -0.092269  -0.172194  0  3.997061  0
C  C205  1  0.67336613  0.86789711  0.97498982  1  -0.040045  0  -0.091423  -0.171924  0  3.995534  0
C  C206  1  0.60705526  0.30154428  0.47501087  1  -0.020121  0  -0.092279  -0.172333  0  3.997278  0
C  C207  1  0.32666869  0.13213798  0.02504260  1  -0.041285  0  -0.091458  -0.172175  0  3.99623  0
C  C208  1  0.73436135  0.80661614  0.67863688  1  -0.051482  0  -0.078841  -0.077747  0  3.981322  0
C  C209  1  0.62809945  0.05598254  0.82154018  1  0.000162  0  -0.078303  -0.077411  0  3.976407  0
C  C210  1  0.26566925  0.19342074  0.32134662  1  -0.049181  0  -0.078698  -0.077411  0  3.980912  0
C  C211  1  0.37198314  0.94410508  0.17850191  1  0.002381  0  -0.077847  -0.076647  0  3.976186  0
C  C212  1  0.18079954  0.08569509  0.62616550  1  -0.013617  0  -0.088311  -0.166966  0  3.983306  0
C  C213  1  0.95952838  0.55460363  0.87387022  1  -0.080575  0  -0.08822  -0.167845  0  3.984926  0
C  C214  1  0.81914323  0.91425256  0.37381356  1  -0.039597  0  -0.088648  -0.167417  0  3.983724  0
C  C215  1  0.04044469  0.44533150  0.12616049  1  -0.075991  0  -0.088459  -0.16811  0  3.985773  0
C  C216  1  0.33589172  0.32541604  0.51496533  1  -0.074696  0  -0.084833  -0.106032  0  3.979848  0
C  C217  1  0.31043084  0.82107361  0.98502274  1  -0.015232  0  -0.086581  -0.109608  0  3.977313  0
C  C218  1  0.66407288  0.67456645  0.48500819  1  -0.067393  0  -0.084884  -0.106001  0  3.979846  0
C  C219  1  0.68958820  0.17896585  0.01499871  1  -0.015041  0  -0.086675  -0.111241  0  3.97815  0
C  C220  1  0.17317463  0.96670945  0.43848596  1  0.003564  0  -0.063421  -0.059361  0  3.921614  0
C  C221  1  0.02820636  0.73466839  0.06152883  1  -0.03548  0  -0.062637  -0.060108  0  3.920504  0
C  C222  1  0.82677928  0.03321158  0.56148208  1  0.00531  0  -0.063684  -0.059607  0  3.922017  0
C  C223  1  0.97177444  0.26533099  0.93851755  1  0.019501  0  -0.062234  -0.059745  0  3.920994  0
C  C224  1  0.31351061  0.11434024  0.53036455  1  -0.057273  0  -0.092781  -0.178867  0  4.004516  0
C  C225  1  0.08399678  0.78306304  0.96966345  1  -0.03053  0  -0.093987  -0.183273  0  4.006421  0
C  C226  1  0.68643881  0.88558819  0.46960439  1  -0.058084  0  -0.092512  -0.178725  0  4.004756  0
C  C227  1  0.91599454  0.21693572  0.03037375  1  -0.028965  0  -0.094068  -0.183071  0  4.00692  0
C  C228  1  0.42699969  0.56059247  0.51436227  1  -0.03999  0  -0.087768  -0.161684  0  3.989054  0
C  C229  1  0.54623569  0.91271502  0.98563056  1  -0.029108  0  -0.08569  -0.160132  0  3.988533  0
C  C230  1  0.57298824  0.43941635  0.48560718  1  -0.040131  0  -0.087624  -0.16174  0  3.989088  0
C  C231  1  0.45379743  0.08735697  0.01440027  1  -0.029201  0  -0.085403  -0.159574  0  3.988666  0
C  C232  1  0.39134028  0.48500729  0.51392216  1  0.002474  0  -0.084767  -0.109514  0  3.981291  0
C  C233  1  0.47109120  0.87755486  0.98607126  1  -0.035206  0  -0.084165  -0.109866  0  3.980565  0
C  C234  1  0.60863684  0.51500260  0.48605560  1  0.003199  0  -0.084672  -0.10944  0  3.980986  0
C  C235  1  0.52893382  0.12251582  0.01395209  1  -0.036367  0  -0.084326  -0.110312  0  3.98175  0
C  C236  1  0.09677227  0.15796063  0.64148262  1  -0.018084  0  -0.072973  -0.078494  0  3.9646  0
C  C237  1  0.01633086  0.45513973  0.85833413  1  -0.002365  0  -0.07281  -0.078759  0  3.962525  0
C  C238  1  0.90313754  0.84196843  0.35846527  1  -0.01661  0  -0.073131  -0.079038  0  3.965129  0
C  C239  1  0.98364709  0.54478827  0.14171752  1  0.01107  0  -0.072934  -0.078667  0  3.963139  0
C  C240  1  0.13976682  0.17383712  0.60310277  1  -0.048698  0  -0.093243  -0.177333  0  3.991047  0
C  C241  1  0.07064656  0.53650978  0.89676036  1  -0.042126  0  -0.089226  -0.173336  0  3.991801  0
C  C242  1  0.86017320  0.82610563  0.39686518  1  -0.0548  0  -0.092914  -0.177142  0  3.990581  0
C  C243  1  0.92933831  0.46342754  0.10329345  1  -0.03813  0  -0.088944  -0.173205  0  3.992344  0
C  C244  1  0.29332155  0.24878364  0.51134844  1  0.024671  0  -0.087947  -0.161221  0  3.96413  0
C  C245  1  0.23743563  0.78202975  0.98866435  1  -0.048511  0  -0.085307  -0.158005  0  3.963449  0
C  C246  1  0.70665295  0.75119307  0.48862779  1  0.022124  0  -0.087852  -0.161168  0  3.964613  0
C  C247  1  0.76257996  0.21798965  0.01136373  1  -0.047639  0  -0.085548  -0.158468  0  3.965094  0
C  C248  1  0.49702518  0.61795778  0.63502231  1  -0.067748  0  -0.089752  -0.16832  0  4.000641  0
C  C249  1  0.48294669  0.86202256  0.86494664  1  0.038231  0  -0.088519  -0.166819  0  3.998144  0
C  C250  1  0.50297057  0.38205208  0.36494063  1  -0.066904  0  -0.089728  -0.168738  0  4.001243  0
C  C251  1  0.51709911  0.13804478  0.13506643  1  0.037481  0  -0.088458  -0.166967  0  3.999129  0
C  C252  1  0.45975243  0.54200594  0.63399970  1  0.049536  0  -0.084597  -0.112487  0  3.989276  0
C  C253  1  0.40802080  0.82582132  0.86597485  1  -0.089435  0  -0.08495  -0.114058  0  3.986788  0
C  C254  1  0.54023252  0.45800270  0.36596857  1  0.049141  0  -0.084513  -0.112125  0  3.989475  0
C  C255  1  0.59201525  0.17423383  0.13403202  1  -0.089563  0  -0.085122  -0.114355  0  3.988047  0
C  C256  1  0.05587387  0.09502785  0.71906341  1  1.572448  0  0.205859  0.536939  0  4.265863  0
C  C257  1  0.87567988  0.33675212  0.78084162  1  1.564774  0  0.204969  0.535266  0  4.266556  0
C  C258  1  0.94406775  0.90494545  0.28092888  1  1.574805  0  0.205574  0.536496  0  4.266398  0
C  C259  1  0.12431377  0.66318029  0.21915416  1  1.564896  0  0.204872  0.534887  0  4.268324  0
N  N260  1  0.51657482  0.70465469  0.57437242  1  -1.181652  0  -0.228018  -0.08374  0  3.636894  0
N  N261  1  0.63025787  0.94220381  0.92560797  1  -1.180709  0  -0.229223  -0.084119  0  3.63961  0
N  N262  1  0.48345205  0.29536631  0.42558525  1  -1.228758  0  -0.227623  -0.083391  0  3.636968  0
N  N263  1  0.36980251  0.05787058  0.07443694  1  -1.214768  0  -0.229037  -0.08383  0  3.638956  0
N  N264  1  0.23198182  0.15863402  0.56141428  1  -1.20242  0  -0.22039  -0.092882  0  3.660654  0
N  N265  1  0.09725838  0.67048645  0.93864143  1  -1.225718  0  -0.220023  -0.09245  0  3.662573  0
N  N266  1  0.76798124  0.84132097  0.43856358  1  -1.20111  0  -0.220557  -0.093613  0  3.661958  0
N  N267  1  0.90273636  0.32948853  0.06139195  1  -1.226287  0  -0.220593  -0.092421  0  3.663964  0
O  O268  1  0.89435788  0.92978795  0.76195609  1  -1.138454  0  -0.296912  -0.534836  0  2.151473  0
O  O269  1  0.66799317  0.13258910  0.73813546  1  -1.141141  0  -0.296017  -0.534874  0  2.151752  0
O  O270  1  0.10564626  0.07025914  0.23807557  1  -1.138997  0  -0.296849  -0.534713  0  2.150987  0
O  O271  1  0.33204324  0.86741261  0.26181737  1  -1.14154  0  -0.296069  -0.535162  0  2.151746  0
O  O272  1  0.36158371  0.80940323  0.36441415  1  -1.138002  0  -0.293941  -0.53062  0  2.158885  0
O  O273  1  0.94483133  0.99703535  0.13562882  1  -1.135418  0  -0.292585  -0.528286  0  2.155988  0
O  O274  1  0.63839485  0.19054690  0.63551894  1  -1.138494  0  -0.293886  -0.530792  0  2.158676  0
O  O275  1  0.05517740  0.00300111  0.86441275  1  -1.135237  0  -0.292619  -0.528245  0  2.156027  0
O  O276  1  0.32108110  0.94225360  0.39671136  1  -1.144532  0  -0.301104  -0.548019  0  2.104302  0
O  O277  1  0.04544942  0.92436491  0.10314521  1  -1.1471  0  -0.30274  -0.549427  0  2.10593  0
O  O278  1  0.67888653  0.05770089  0.60322395  1  -1.145092  0  -0.301238  -0.54796  0  2.104073  0
O  O279  1  0.95461726  0.07568745  0.89693514  1  -1.147037  0  -0.302621  -0.549266  0  2.106035  0
O  O280  1  0.25801107  0.74807142  0.38942170  1  -1.143877  0  -0.304507  -0.552477  0  2.109358  0
O  O281  1  0.85846316  0.86846360  0.11062439  1  -1.144069  0  -0.303797  -0.552497  0  2.111916  0
O  O282  1  0.74194299  0.25185991  0.61048033  1  -1.144206  0  -0.304491  -0.552734  0  2.108724  0
O  O283  1  0.14155830  0.13157094  0.88942509  1  -1.144673  0  -0.303914  -0.552553  0  2.112003  0
O  O284  1  0.87440976  0.02223716  0.74434692  1  -1.128324  0  -0.285364  -0.525074  0  2.151107  0
O  O285  1  0.77788852  0.12998107  0.75561752  1  -1.13185  0  -0.286725  -0.527402  0  2.15128  0
O  O286  1  0.12556445  0.97780710  0.25571209  1  -1.127477  0  -0.285273  -0.525323  0  2.151016  0
O  O287  1  0.22214812  0.87002289  0.24435163  1  -1.13189  0  -0.287157  -0.528004  0  2.151411  0
O  O288  1  0.19242620  0.85092217  0.36883090  1  -1.121432  0  -0.278457  -0.510696  0  2.168029  0
O  O289  1  0.98221483  0.82371247  0.13121608  1  -1.111873  0  -0.277756  -0.511086  0  2.16623  0
O  O290  1  0.80754713  0.14900305  0.63107365  1  -1.119935  0  -0.278583  -0.510405  0  2.167707  0
O  O291  1  0.01784015  0.17634623  0.86886514  1  -1.111931  0  -0.277865  -0.511149  0  2.166221  0
O  O292  1  0.04220256  0.03509473  0.73481819  1  -1.132597  0  -0.303708  -0.563053  0  2.180832  0
O  O293  1  0.80002184  0.30743428  0.76509023  1  -1.125808  0  -0.305464  -0.563692  0  2.180242  0
O  O294  1  0.95780059  0.96492434  0.26522967  1  -1.133351  0  -0.30344  -0.562914  0  2.180404  0
O  O295  1  0.19995711  0.69249350  0.23483246  1  -1.126164  0  -0.305468  -0.563649  0  2.180677  0
O  O296  1  0.04037460  0.14421875  0.74287831  1  -1.129203  0  -0.286456  -0.506135  0  2.078229  0
O  O297  1  0.90092077  0.29729201  0.75698573  1  -1.133761  0  -0.285726  -0.506136  0  2.080941  0
O  O298  1  0.95954492  0.85574312  0.25709785  1  -1.130233  0  -0.286589  -0.505985  0  2.078431  0
O  O299  1  0.09910756  0.70266462  0.24303818  1  -1.13326  0  -0.285574  -0.505743  0  2.081515  0
