# generated using pymatgen
data_Al6H39C80(ClO10)3
_symmetry_space_group_name_H-M   'P 1'
_cell_length_a   12.65218575
_cell_length_b   12.24230368
_cell_length_c   28.02591343
_cell_angle_alpha   89.32747842
_cell_angle_beta   89.97138062
_cell_angle_gamma   59.20487116
_symmetry_Int_Tables_number   1
_chemical_formula_structural   Al6H39C80(ClO10)3
_chemical_formula_sum   'Al6 H39 C80 Cl3 O30'
_cell_volume   3728.58911103
_cell_formula_units_Z   1
loop_
 _symmetry_equiv_pos_site_id
 _symmetry_equiv_pos_as_xyz
  1  'x, y, z'
loop_
 _atom_site_type_symbol
 _atom_site_label
 _atom_site_symmetry_multiplicity
 _atom_site_fract_x
 _atom_site_fract_y
 _atom_site_fract_z
 _atom_site_occupancy
 _atom_site_pbe_bader_charge
 _atom_site_pbe_bader_spin_density
 _atom_site_pbe_cm5_charge
 _atom_site_pbe_ddec_charge
 _atom_site_pbe_ddec_spin_density
 _atom_site_pbe_ddec_sum_bond_order
 _atom_site_pbe_magmom
Al  Al0  1  0.40898651  0.18938257  0.49560240  1  2.493071  0  0.396022  1.685769  0  2.559199  0
Al  Al1  1  0.41392610  0.92520852  0.49764283  1  2.485525  0  0.509497  1.665139  0  2.499463  0
Al  Al2  1  0.65634685  0.91603182  0.49781603  1  2.474853  0  0.506557  1.662808  0  2.509208  0
Al  Al3  1  0.92864717  0.15190495  0.98189700  1  2.497024  0  0.394791  1.685484  0  2.563109  0
Al  Al4  1  0.66876018  0.41399987  0.98139201  1  2.478816  0  0.507476  1.66359  0  2.505245  0
Al  Al5  1  0.89901926  0.42812507  0.98213526  1  2.480421  0  0.507781  1.662214  0  2.502663  0
H  H6  1  0.24296982  0.28213841  0.19325831  1  0.098028  0  0.111524  0.130291  0  1.008026  0
H  H7  1  0.00589919  0.12588349  0.20178302  1  0.076242  0  0.109095  0.11993  0  0.990797  0
H  H8  1  0.04121899  0.09641081  0.28990313  1  0.079361  0  0.113217  0.120133  0  0.976047  0
H  H9  1  0.44009411  0.78267452  0.62641382  1  0.113291  0  0.112998  0.117143  0  1.003231  0
H  H10  1  0.76148698  0.76712279  0.78343027  1  0.063308  0  0.098466  0.100864  0  1.015311  0
H  H11  1  0.77781594  0.71856362  0.87021447  1  0.06059  0  0.113857  0.11194  0  0.985716  0
H  H12  1  0.46843217  0.74387197  0.71410366  1  0.069409  0  0.105791  0.105519  0  1.000294  0
H  H13  1  0.57694135  0.55672753  0.76331736  1  0.046273  0  0.101141  0.099539  0  1.009114  0
H  H14  1  0.58553717  0.51732655  0.85070672  1  0.120891  0  0.107278  0.108076  0  1.022765  0
H  H15  1  0.81840629  0.68080860  0.61433374  1  0.115099  0  0.118003  0.134869  0  0.982818  0
H  H16  1  0.77866910  0.92364622  0.63000141  1  0.06548  0  0.106261  0.109121  0  1.008767  0
H  H17  1  0.48141268  0.31933046  0.77465906  1  0.059531  0  0.100493  0.098007  0  1.010479  0
H  H18  1  0.50732728  0.35267792  0.86036855  1  0.093466  0  0.110059  0.112348  0  0.98943  0
H  H19  1  0.79793937  0.95807100  0.71594627  1  0.047267  0  0.097724  0.093032  0  1.024614  0
H  H20  1  0.86929126  0.04370814  0.76633374  1  0.081119  0  0.102004  0.100384  0  1.007189  0
H  H21  1  0.89198617  0.07242266  0.85282290  1  0.125307  0  0.116605  0.124606  0  0.988653  0
H  H22  1  0.51908561  0.35374087  0.69830320  1  0.062663  0  0.100223  0.096612  0  1.009289  0
H  H23  1  0.49537490  0.31521300  0.61277389  1  0.122126  0  0.118751  0.126564  0  0.977064  0
H  H24  1  0.27133486  0.28411273  0.62262678  1  0.109184  0  0.116893  0.123887  0  0.98728  0
H  H25  1  0.81274036  0.46601228  0.20624064  1  0.108502  0  0.113687  0.121074  0  0.988771  0
H  H26  1  0.22522035  0.98545574  0.78595422  1  0.076863  0  0.100976  0.101476  0  1.007548  0
H  H27  1  0.15816472  0.03404866  0.87043483  1  0.12215  0  0.118544  0.126899  0  0.977031  0
H  H28  1  0.21963472  0.31533969  0.70908234  1  0.061799  0  0.0995  0.098276  0  1.010459  0
H  H29  1  0.06142431  0.38787053  0.75787075  1  0.094936  0  0.095936  0.107402  0  1.056669  0
H  H30  1  0.15720439  0.00076759  0.70760530  1  0.053655  0  0.100651  0.098581  0  1.006906  0
H  H31  1  0.21374493  0.96793501  0.62157694  1  0.112218  0  0.109411  0.111692  0  0.992234  0
H  H32  1  0.79736335  0.49662832  0.29412550  1  0.085417  0  0.117915  0.126636  0  0.972621  0
H  H33  1  0.69021273  0.30710697  0.29558480  1  0.07846  0  0.110471  0.114253  0  0.988505  0
H  H34  1  0.68899387  0.34126496  0.20788970  1  0.069775  0  0.105348  0.107288  0  1.010004  0
H  H35  1  0.67216093  0.00283163  0.18417958  1  0.074381  0  0.107519  0.113484  0  0.996544  0
H  H36  1  0.67311649  0.96906689  0.27191411  1  0.112233  0  0.102595  0.107811  0  1.013433  0
H  H37  1  0.12778252  0.50362110  0.82961485  1  0.029903  0  0.087565  0.07806  0  1.00194  0
H  H38  1  0.11646584  0.46087818  0.89047857  1  0.079473  0  0.098874  0.101301  0  1.000296  0
H  H39  1  0.00055474  0.61112198  0.86606296  1  0.062809  0  0.107777  0.112519  0  0.982191  0
H  H40  1  0.29075535  0.39624326  0.24531707  1  0.047126  0  0.103771  0.104139  0  0.977643  0
H  H41  1  0.41642376  0.23741125  0.23461117  1  0.039226  0  0.095146  0.093213  0  1.021393  0
H  H42  1  0.41336574  0.31713821  0.28829393  1  0.074227  0  0.112899  0.126017  0  0.976295  0
H  H43  1  0.29135400  0.39735988  0.46580223  1  0.58036  0  0.293401  0.384999  0  0.920313  0
H  H44  1  0.03887953  0.94385399  0.01224524  1  0.573268  0  0.293229  0.385149  0  0.919957  0
C  C45  1  0.27300933  0.10747401  0.42945837  1  1.689926  0  0.27646  0.713089  0  4.157912  0
C  C46  1  0.74289991  0.55622772  0.22117689  1  -0.026038  0  -0.07763  -0.11357  0  3.962977  0
C  C47  1  0.73451560  0.57318655  0.27011722  1  0.005202  0  -0.076648  -0.111973  0  3.961775  0
C  C48  1  0.64528058  0.68986321  0.28979829  1  0.165175  0  0.000779  0.077707  0  4.102466  0
C  C49  1  0.66227903  0.65515165  0.18976684  1  0.124868  0  0.000884  0.076195  0  4.102774  0
C  C50  1  0.67107776  0.63477922  0.13996065  1  -0.263975  0  -0.013213  -0.006549  0  4.078735  0
C  C51  1  0.63553550  0.70880201  0.33969861  1  -0.490839  0  -0.013008  -0.007642  0  4.076899  0
C  C52  1  0.68203198  0.61150762  0.09748359  1  0.029513  0  -0.021733  -0.170205  0  3.89772  0
C  C53  1  0.66280949  0.10773181  0.38179068  1  0.171976  0  -0.030207  -0.180138  0  3.92269  0
C  C54  1  0.68725945  0.24036870  0.27101351  1  -0.01028  0  -0.079887  -0.125198  0  3.96838  0
C  C55  1  0.68619113  0.25957510  0.22210443  1  -0.027175  0  -0.079945  -0.121488  0  3.962402  0
C  C56  1  0.60283223  0.77754840  0.43020052  1  1.691467  0  0.286978  0.723119  0  4.143335  0
C  C57  1  0.67701248  0.06851859  0.20872835  1  0.004728  0  -0.079751  -0.12321  0  3.959686  0
C  C58  1  0.67815721  0.04935719  0.25764035  1  -0.079825  0  -0.078095  -0.116769  0  3.958081  0
C  C59  1  0.68264259  0.13525441  0.28956046  1  0.070012  0  0.002765  0.120497  0  4.117651  0
C  C60  1  0.68094339  0.17400601  0.19018489  1  0.125896  0  0.002649  0.123563  0  4.114084  0
C  C61  1  0.68242517  0.19302673  0.14038305  1  -0.324501  0  -0.015969  -0.021208  0  4.072124  0
C  C62  1  0.67557217  0.11926424  0.33928773  1  -0.431618  0  -0.014783  -0.022968  0  4.070294  0
C  C63  1  0.68741950  0.20901366  0.09763574  1  0.040605  0  -0.033022  -0.18566  0  3.928155  0
C  C64  1  0.21659927  0.13332107  0.38307211  1  0.212755  0  -0.035236  -0.191321  0  3.928181  0
C  C65  1  0.21901002  0.22571676  0.26409232  1  0.46498  0  0.093859  0.220813  0  4.046894  0
C  C66  1  0.19886498  0.24278565  0.21496674  1  0.008799  0  -0.102478  -0.27033  0  3.956017  0
C  C67  1  0.62730915  0.09211982  0.42903626  1  1.677351  0  0.279718  0.711263  0  4.162257  0
C  C68  1  0.06436159  0.15427248  0.21961696  1  -0.026713  0  -0.092956  -0.155987  0  3.983851  0
C  C69  1  0.08399528  0.13811461  0.26855435  1  -0.025193  0  -0.07838  -0.100327  0  3.991384  0
C  C70  1  0.16095192  0.17278620  0.29175761  1  0.175108  0  -0.01185  0.011845  0  4.109339  0
C  C71  1  0.12223083  0.20653631  0.19244555  1  0.130337  0  0.001145  0.149042  0  4.143228  0
C  C72  1  0.10362987  0.22192766  0.14246567  1  -0.489714  0  -0.018045  -0.020122  0  4.065834  0
C  C73  1  0.18697968  0.15183229  0.34103876  1  -0.514858  0  -0.020875  -0.005651  0  4.109123  0
C  C74  1  0.08549335  0.23433670  0.09949892  1  0.210161  0  -0.035916  -0.191699  0  3.933875  0
C  C75  1  0.62777439  0.73266897  0.61477384  1  -0.01054  0  -0.01123  -0.033059  0  3.981509  0
C  C76  1  0.52945678  0.74891884  0.64303984  1  -0.006892  0  -0.076152  -0.081889  0  3.969907  0
C  C77  1  0.54604590  0.72697959  0.69191073  1  -0.055238  0  -0.082594  -0.116794  0  3.979693  0
C  C78  1  0.28610670  0.10344917  0.56664452  1  1.532913  0  0.270699  0.632726  0  4.103981  0
C  C79  1  0.65957165  0.68748818  0.71470028  1  0.046426  0  0.003206  0.024631  0  3.950837  0
C  C80  1  0.75736312  0.67056040  0.68520932  1  0.001191  0  0.020066  0.105064  0  3.999115  0
C  C81  1  0.74195312  0.69314732  0.63616583  1  0.027309  0  -0.07896  -0.150441  0  3.955733  0
C  C82  1  0.72374796  0.71133969  0.79782773  1  -0.023922  0  -0.086325  -0.128334  0  3.972305  0
C  C83  1  0.73181295  0.68568698  0.84658179  1  0.070669  0  -0.068816  -0.058577  0  3.966658  0
C  C84  1  0.62279073  0.57295624  0.83566456  1  -0.075738  0  -0.07727  -0.077842  0  3.963681  0
C  C85  1  0.61774184  0.59582673  0.78680389  1  0.003241  0  -0.087973  -0.130857  0  3.973685  0
C  C86  1  0.66877418  0.66462420  0.76694643  1  -0.008523  0  -0.002037  0.083811  0  3.984138  0
C  C87  1  0.68198433  0.61586883  0.86588930  1  -0.031313  0  -0.011288  -0.047287  0  3.971257  0
C  C88  1  0.63658342  0.11775875  0.61631661  1  -0.108089  0  -0.014411  -0.047802  0  3.983671  0
C  C89  1  0.60656357  0.77184089  0.56369270  1  1.554721  0  0.281209  0.648558  0  4.079571  0
C  C90  1  0.72283198  0.01756739  0.64533888  1  -0.005795  0  -0.080696  -0.081126  0  3.98165  0
C  C91  1  0.73372311  0.03773490  0.69329179  1  -0.04632  0  -0.091016  -0.134878  0  3.985569  0
C  C92  1  0.66033556  0.15867337  0.71336344  1  0.012722  0  -0.00109  0.075687  0  3.995385  0
C  C93  1  0.57489590  0.25873726  0.68368441  1  -0.092354  0  -0.089589  -0.133806  0  3.986749  0
C  C94  1  0.56226487  0.23860900  0.63586519  1  0.069801  0  -0.073427  -0.077297  0  3.966838  0
C  C95  1  0.57213856  0.26654198  0.79139712  1  -0.058926  0  -0.090596  -0.136679  0  3.985963  0
C  C96  1  0.58569403  0.28443657  0.83943472  1  -0.064139  0  -0.079654  -0.08506  0  3.994226  0
C  C97  1  0.80264628  0.12528382  0.83511443  1  -0.000872  0  -0.074512  -0.076116  0  3.964332  0
C  C98  1  0.78896673  0.10910331  0.78705936  1  -0.130499  0  -0.088055  -0.131081  0  3.982629  0
C  C99  1  0.67349394  0.17873231  0.76429158  1  0.012128  0  -0.000373  0.077328  0  3.994848  0
C  C100  1  0.61654349  0.09450796  0.56618874  1  1.561634  0  0.271929  0.633045  0  4.102497  0
C  C101  1  0.70104357  0.21334364  0.86168146  1  0.011045  0  -0.015717  -0.052225  0  3.990024  0
C  C102  1  0.24518532  0.12465357  0.61707232  1  -0.043103  0  -0.016284  -0.049574  0  3.984145  0
C  C103  1  0.24562788  0.22333345  0.64180510  1  -0.020806  0  -0.074227  -0.075726  0  3.966112  0
C  C104  1  0.21609950  0.24038810  0.68985779  1  -0.010779  0  -0.08813  -0.130822  0  3.983746  0
C  C105  1  0.18430058  0.16053820  0.71452872  1  -0.036585  0  -0.000155  0.080499  0  3.982987  0
C  C106  1  0.18409520  0.06190227  0.68934062  1  -0.027152  0  -0.090429  -0.136504  0  3.985768  0
C  C107  1  0.21435376  0.04392131  0.64119666  1  -0.042974  0  -0.078968  -0.084509  0  3.990802  0
C  C108  1  0.17599090  0.08372720  0.79783122  1  -0.074828  0  -0.096087  -0.153319  0  3.997635  0
C  C109  1  0.14081579  0.10999514  0.84520179  1  -0.017139  0  -0.075239  -0.062378  0  3.987033  0
C  C110  1  0.05603644  0.33458504  0.82999145  1  0.454249  0  0.093496  0.258119  0  4.025246  0
C  C111  1  0.62517612  0.72839777  0.38246286  1  0.265439  0  -0.022268  -0.171868  0  3.896177  0
C  C112  1  0.08916098  0.30769188  0.78227478  1  0.077941  0  -0.100702  -0.251446  0  3.96543  0
C  C113  1  0.15018393  0.18303505  0.76531020  1  -0.076653  0  -0.001197  0.098875  0  4.012275  0
C  C114  1  0.08153319  0.23496190  0.86252717  1  -0.015436  0  -0.020605  -0.156759  0  3.95193  0
C  C115  1  0.71268573  0.23185598  0.04962730  1  1.688451  0  0.279132  0.713358  0  4.162265  0
C  C116  1  0.70896853  0.56324669  0.04964328  1  1.664967  0  0.286656  0.720902  0  4.148446  0
C  C117  1  0.04231299  0.24966842  0.05107333  1  1.650384  0  0.276507  0.712755  0  4.160356  0
C  C118  1  0.72157234  0.23393549  0.91209234  1  1.565315  0  0.271352  0.632241  0  4.104458  0
C  C119  1  0.70304148  0.57206884  0.91638464  1  1.529263  0  0.281479  0.65337  0  4.068668  0
C  C120  1  0.03801380  0.25616033  0.91266772  1  1.556353  0  0.273221  0.652059  0  4.09048  0
C  C121  1  0.56481742  0.79045525  0.25859027  1  0.117586  0  0.016555  0.033061  0  4.019938  0
C  C122  1  0.57329415  0.77335240  0.20903156  1  0.085212  0  0.017421  0.041071  0  4.017719  0
C  C123  1  0.06429665  0.51086323  0.85806885  1  0.380491  0  -0.136122  -0.16135  0  3.926654  0
C  C124  1  0.35690792  0.30426808  0.26204324  1  0.414693  0  -0.133404  -0.173019  0  3.895401  0
Cl  Cl125  1  0.45815688  0.93325887  0.28224730  1  -0.154197  0  0.043017  -0.017663  0  1.698073  0
Cl  Cl126  1  0.90329079  0.61804647  0.70841150  1  -0.217267  0  0.004655  -0.07877  0  1.511112  0
Cl  Cl127  1  0.47678451  0.89508913  0.17114600  1  -0.161213  0  0.023569  -0.032292  0  1.55259  0
O  O128  1  0.52053725  0.17396950  0.44213073  1  -1.213108  0  -0.203006  -0.546687  0  2.287436  0
O  O129  1  0.50395752  0.79818017  0.54487292  1  -1.264407  0  -0.232359  -0.593387  0  2.300275  0
O  O130  1  0.68897718  0.78484084  0.54221302  1  -1.264029  0  -0.234618  -0.594491  0  2.294125  0
O  O131  1  0.69556254  0.98576807  0.54840356  1  -1.286107  0  -0.249941  -0.617818  0  2.290645  0
O  O132  1  0.49452513  0.00735270  0.49652577  1  -1.608434  0  -0.391165  -1.270678  0  2.291701  0
O  O133  1  0.02085230  0.16602081  0.03606716  1  -1.218409  0  -0.209122  -0.561164  0  2.299645  0
O  O134  1  0.81619128  0.15286785  0.03276493  1  -1.214962  0  -0.206407  -0.553887  0  2.286636  0
O  O135  1  0.62873684  0.33500932  0.02895166  1  -1.255409  0  -0.242384  -0.603798  0  2.227828  0
O  O136  1  0.63311074  0.53875418  0.02957228  1  -1.232808  0  -0.222836  -0.578097  0  2.241617  0
O  O137  1  0.81097306  0.54264803  0.03237744  1  -1.239998  0  -0.223687  -0.581064  0  2.250014  0
O  O138  1  0.02400933  0.34953074  0.02772445  1  -1.248922  0  -0.244109  -0.606115  0  2.222812  0
O  O139  1  0.30281827  0.18490218  0.44461072  1  -1.221217  0  -0.209283  -0.563165  0  2.293201  0
O  O140  1  0.02814097  0.16890626  0.93281447  1  -1.239731  0  -0.213009  -0.560436  0  2.351638  0
O  O141  1  0.82493440  0.15670864  0.93043076  1  -1.255095  0  -0.210961  -0.554859  0  2.372573  0
O  O142  1  0.63450447  0.33211790  0.93339068  1  -1.27468  0  -0.250907  -0.617751  0  2.27624  0
O  O143  1  0.62957200  0.53999473  0.93451112  1  -1.269955  0  -0.23605  -0.603768  0  2.306431  0
O  O144  1  0.79746322  0.56026411  0.93812525  1  -1.25375  0  -0.232254  -0.593795  0  2.281058  0
O  O145  1  0.00973221  0.36255055  0.93240181  1  -1.274877  0  -0.243377  -0.613458  0  2.323904  0
O  O146  1  0.83056529  0.33387831  0.98261724  1  -1.608773  0  -0.391234  -1.268718  0  2.290988  0
O  O147  1  0.29315150  0.00460133  0.45106913  1  -1.262935  0  -0.242403  -0.606021  0  2.225693  0
O  O148  1  0.50192481  0.80183104  0.44964393  1  -1.234809  0  -0.221644  -0.578546  0  2.240049  0
O  O149  1  0.68310805  0.79931432  0.44790576  1  -1.234472  0  -0.222879  -0.580313  0  2.246658  0
O  O150  1  0.70619494  0.99246830  0.45300310  1  -1.261387  0  -0.242053  -0.605216  0  2.225295  0
O  O151  1  0.52168949  0.17968253  0.54470119  1  -1.241834  0  -0.210979  -0.551963  0  2.349512  0
O  O152  1  0.30914853  0.18251147  0.54728547  1  -1.24268  0  -0.21323  -0.562123  0  2.367871  0
O  O153  1  0.30046522  0.00227937  0.54633507  1  -1.277405  0  -0.251665  -0.61911  0  2.280255  0
O  O154  1  0.99014365  0.46053610  0.84233057  1  -1.080884  0  -0.204763  -0.197807  0  2.585245  0
O  O155  1  0.29440404  0.25347815  0.28846893  1  -1.068448  0  -0.174336  -0.139083  0  2.581943  0
O  O156  1  0.33229890  0.35587617  0.49536645  1  -1.367973  0  -0.580261  -0.999614  0  1.792466  0
O  O157  1  0.01809930  0.98544961  0.98128932  1  -1.362613  0  -0.580986  -1.000335  0  1.791423  0
