# generated using pymatgen
data_BaHgH9C9S2N3O7
_symmetry_space_group_name_H-M   'P 1'
_cell_length_a   6.90782769
_cell_length_b   15.69833120
_cell_length_c   15.97470000
_cell_angle_alpha   100.05946025
_cell_angle_beta   90.00000000
_cell_angle_gamma   102.70966359
_symmetry_Int_Tables_number   1
_chemical_formula_structural   BaHgH9C9S2N3O7
_chemical_formula_sum   'Ba4 Hg4 H36 C36 S8 N12 O28'
_cell_volume   1662.56142195
_cell_formula_units_Z   4
loop_
 _symmetry_equiv_pos_site_id
 _symmetry_equiv_pos_as_xyz
  1  'x, y, z'
loop_
 _atom_site_type_symbol
 _atom_site_label
 _atom_site_symmetry_multiplicity
 _atom_site_fract_x
 _atom_site_fract_y
 _atom_site_fract_z
 _atom_site_occupancy
 _atom_site_hle17_bader_spin_density
 _atom_site_hle17_ddec_charge
 _atom_site_hle17_ddec_spin_density
 _atom_site_hle17_ddec_sum_bond_order
 _atom_site_hle17_magmom
 _atom_site_hse06_10hf_bader_spin_density
 _atom_site_hse06_10hf_ddec_charge
 _atom_site_hse06_10hf_ddec_spin_density
 _atom_site_hse06_10hf_ddec_sum_bond_order
 _atom_site_hse06_10hf_magmom
 _atom_site_hse06_bader_spin_density
 _atom_site_hse06_ddec_charge
 _atom_site_hse06_ddec_spin_density
 _atom_site_hse06_ddec_sum_bond_order
 _atom_site_hse06_magmom
 _atom_site_pbe_bader_charge
 _atom_site_pbe_bader_spin_density
 _atom_site_pbe_cm5_charge
 _atom_site_pbe_ddec_charge
 _atom_site_pbe_ddec_spin_density
 _atom_site_pbe_ddec_sum_bond_order
 _atom_site_pbe_magmom
Ba  Ba0  1  0.48220489  0.44188074  0.66960505  1  0  1.644237  0  1.161322  0  0  1.49427  0  1.564588  0  0  1.533435  0  1.521133  0  1.697227  0  0.961629  1.465483  0  1.595391  0
Ba  Ba1  1  0.04003755  0.55795984  0.83029178  1  0  1.644464  0  1.160725  0  0  1.494139  0  1.56446  0  0  1.533303  0  1.521021  0  1.698098  0  0.961057  1.465355  0  1.595248  0
Ba  Ba2  1  0.51779625  0.55812047  0.33039572  1  0  1.644218  0  1.161389  0  0  1.49426  0  1.564634  0  0  1.533426  0  1.521178  0  1.697231  0  0.961619  1.465472  0  1.595435  0
Ba  Ba3  1  0.95996103  0.44204203  0.16970911  1  0  1.644459  0  1.160691  0  0  1.494154  0  1.564408  0  0  1.533317  0  1.520972  0  1.698077  0  0.961051  1.465371  0  1.595194  0
Hg  Hg4  1  0.03324559  0.14499815  0.37048327  1  0  0.680276  0  2.111081  0  0  0.52865  0  2.598669  0  0  0.571958  0  2.571112  0  0.772416  0  0.542562  0.499289  0  2.616925  0
Hg  Hg5  1  0.88830352  0.85486898  0.12963032  1  0  0.680129  0  2.110399  0  0  0.528264  0  2.597736  0  0  0.571539  0  2.570198  0  0.773049  0  0.542599  0.498928  0  2.615982  0
Hg  Hg6  1  0.96675476  0.85500438  0.62951522  1  0  0.6803  0  2.111108  0  0  0.528649  0  2.598706  0  0  0.571949  0  2.571148  0  0.772487  0  0.542555  0.499285  0  2.616963  0
Hg  Hg7  1  0.11168525  0.14513356  0.87036942  1  0  0.680137  0  2.11059  0  0  0.528289  0  2.597943  0  0  0.571562  0  2.570405  0  0.772833  0  0.542596  0.498954  0  2.616191  0
H  H8  1  0.86482400  0.44846967  0.55875333  1  0  0.427492  0  0.854668  0  0  0.397225  0  0.926153  0  0  0.406316  0  0.912841  0  0.625171  0  0.309787  0.390777  0  0.935615  0
H  H9  1  0.41625781  0.55166960  0.94117724  1  0  0.427292  0  0.855517  0  0  0.396833  0  0.926902  0  0  0.405946  0  0.913551  0  0.609383  0  0.309013  0.390383  0  0.936361  0
H  H10  1  0.13517615  0.55152955  0.44124710  1  0  0.427524  0  0.85464  0  0  0.397263  0  0.926103  0  0  0.406353  0  0.912791  0  0.625181  0  0.309803  0.390813  0  0.935565  0
H  H11  1  0.58374366  0.44833227  0.05882302  1  0  0.427306  0  0.855509  0  0  0.396847  0  0.926886  0  0  0.40596  0  0.913536  0  0.609398  0  0.309007  0.390397  0  0.936345  0
H  H12  1  0.79794290  0.51653000  0.50803772  1  0  0.420316  0  0.888901  0  0  0.386353  0  0.957521  0  0  0.398515  0  0.939618  0  0.641259  0  0.298451  0.37775  0  0.97017  0
H  H13  1  0.28135671  0.48376657  0.99202376  1  0  0.421002  0  0.888313  0  0  0.386887  0  0.957044  0  0  0.399072  0  0.939141  0  0.651198  0  0.298634  0.378256  0  0.969713  0
H  H14  1  0.20205981  0.48346856  0.49196134  1  0  0.420322  0  0.88889  0  0  0.386354  0  0.957521  0  0  0.398517  0  0.939616  0  0.641229  0  0.298459  0.37775  0  0.970171  0
H  H15  1  0.71864009  0.51623463  0.00797513  1  0  0.421033  0  0.888257  0  0  0.386937  0  0.956975  0  0  0.399124  0  0.939067  0  0.651186  0  0.298652  0.378306  0  0.969645  0
H  H16  1  0.40995545  0.35740087  0.85418903  1  0  0.425836  0  0.86697  0  0  0.397963  0  0.925055  0  0  0.407423  0  0.911063  0  0.632397  0  0.297376  0.391262  0  0.93498  0
H  H17  1  0.05231157  0.64256716  0.64567333  1  0  0.42577  0  0.866918  0  0  0.397989  0  0.924915  0  0  0.407453  0  0.910904  0  0.632546  0  0.297097  0.391287  0  0.934846  0
H  H18  1  0.59004681  0.64259968  0.14580975  1  0  0.425913  0  0.866854  0  0  0.398015  0  0.924988  0  0  0.407475  0  0.910995  0  0.632376  0  0.297401  0.391312  0  0.934919  0
H  H19  1  0.94769068  0.35743339  0.35432670  1  0  0.425762  0  0.866931  0  0  0.397985  0  0.924923  0  0  0.407451  0  0.910909  0  0.632482  0  0.297095  0.391283  0  0.934855  0
H  H20  1  0.64157828  0.36860609  0.84074684  1  0  0.423889  0  0.875523  0  0  0.395467  0  0.935353  0  0  0.405393  0  0.920712  0  0.642514  0  0.296562  0.388467  0  0.945658  0
H  H21  1  0.27266618  0.63129888  0.65912598  1  0  0.424343  0  0.875002  0  0  0.39642  0  0.934093  0  0  0.406289  0  0.919529  0  0.643834  0  0.297161  0.389443  0  0.944383  0
H  H22  1  0.35842398  0.63139446  0.15925194  1  0  0.423898  0  0.87551  0  0  0.395478  0  0.935338  0  0  0.405404  0  0.920698  0  0.642515  0  0.296565  0.388479  0  0.945642  0
H  H23  1  0.72733430  0.36870100  0.34087519  1  0  0.42432  0  0.875034  0  0  0.396402  0  0.934117  0  0  0.406269  0  0.919556  0  0.643812  0  0.29716  0.389424  0  0.944408  0
H  H24  1  0.62389151  0.63713712  0.60008003  1  0  0.429691  0  0.854674  0  0  0.398542  0  0.923702  0  0  0.407926  0  0.910033  0  0.64538  0  0.304639  0.391912  0  0.933359  0
H  H25  1  0.98708992  0.36294706  0.89989429  1  0  0.43029  0  0.856117  0  0  0.398772  0  0.924142  0  0  0.408192  0  0.910411  0  0.632304  0  0.304439  0.392121  0  0.933831  0
H  H26  1  0.37611219  0.36286343  0.39992063  1  0  0.429727  0  0.854637  0  0  0.398585  0  0.92364  0  0  0.407972  0  0.909967  0  0.6454  0  0.304664  0.391955  0  0.933297  0
H  H27  1  0.01291267  0.63705415  0.10010523  1  0  0.430328  0  0.856099  0  0  0.398813  0  0.924087  0  0  0.408233  0  0.910356  0  0.632241  0  0.304471  0.392161  0  0.933777  0
H  H28  1  0.41857954  0.59453777  0.54783625  1  0  0.42207  0  0.881435  0  0  0.392947  0  0.942623  0  0  0.402819  0  0.928207  0  0.652629  0  0.299649  0.385987  0  0.952784  0
H  H29  1  0.82406569  0.40533999  0.95209763  1  0  0.421579  0  0.882148  0  0  0.392605  0  0.943061  0  0  0.402492  0  0.928628  0  0.641337  0  0.29967  0.38563  0  0.953245  0
H  H30  1  0.58142416  0.40546278  0.45216315  1  0  0.422061  0  0.881446  0  0  0.392941  0  0.942629  0  0  0.402813  0  0.928213  0  0.652637  0  0.299659  0.385982  0  0.95279  0
H  H31  1  0.17593590  0.59465923  0.04790155  1  0  0.421571  0  0.882144  0  0  0.3926  0  0.943059  0  0  0.402489  0  0.928621  0  0.641324  0  0.299667  0.385626  0  0.953242  0
H  H32  1  0.75851170  0.22170301  0.74246440  1  0  0.097768  0  0.955149  0  0  0.10358  0  1.026597  0  0  0.10709  0  1.023855  0  0.1096  0  0.105268  0.100999  0  1.028685  0
H  H33  1  0.53702353  0.77812696  0.75770604  1  0  0.098018  0  0.954698  0  0  0.104289  0  1.02542  0  0  0.107779  0  1.022695  0  0.102901  0  0.105222  0.101717  0  1.027499  0
H  H34  1  0.24149502  0.77829488  0.25753705  1  0  0.09782  0  0.955149  0  0  0.103645  0  1.026542  0  0  0.107157  0  1.023803  0  0.10962  0  0.105297  0.10106  0  1.028645  0
H  H35  1  0.46298084  0.22187491  0.24229297  1  0  0.098083  0  0.954634  0  0  0.104329  0  1.025387  0  0  0.107819  0  1.022662  0  0.102905  0  0.105243  0.101758  0  1.027467  0
H  H36  1  0.66055487  0.06849242  0.65504693  1  0  0.103667  0  0.941334  0  0  0.117636  0  0.993922  0  0  0.120224  0  0.993793  0  0.108949  0  0.105849  0.115792  0  0.994149  0
H  H37  1  0.59285776  0.93131564  0.84509784  1  0  0.103504  0  0.941366  0  0  0.116855  0  0.994648  0  0  0.119522  0  0.994423  0  0.076048  0  0.105007  0.114942  0  0.994956  0
H  H38  1  0.33944883  0.93150812  0.34495310  1  0  0.103726  0  0.941329  0  0  0.117652  0  0.993954  0  0  0.120239  0  0.993827  0  0.109095  0  0.105845  0.115808  0  0.994182  0
H  H39  1  0.40713147  0.06868491  0.15490156  1  0  0.103417  0  0.941336  0  0  0.116758  0  0.994654  0  0  0.119435  0  0.994416  0  0.076116  0  0.104954  0.114845  0  0.994962  0
H  H40  1  0.77338667  0.04340778  0.50488807  1  0  0.084571  0  0.963809  0  0  0.089202  0  1.035646  0  0  0.091978  0  1.032935  0  0.151636  0  0.110017  0.087221  0  1.037564  0
H  H41  1  0.73045691  0.95630005  0.99530085  1  0  0.085712  0  0.96392  0  0  0.089873  0  1.035966  0  0  0.092657  0  1.03326  0  0.141686  0  0.110103  0.087843  0  1.037922  0
H  H42  1  0.22661369  0.95659475  0.49511168  1  0  0.084558  0  0.963824  0  0  0.089189  0  1.035671  0  0  0.091964  0  1.032963  0  0.151596  0  0.109993  0.087207  0  1.037589  0
H  H43  1  0.26952909  0.04369983  0.00469907  1  0  0.085705  0  0.963945  0  0  0.089859  0  1.035991  0  0  0.092665  0  1.033264  0  0.141687  0  0.110114  0.08783  0  1.037946  0
C  C44  1  0.07280471  0.33032369  0.50885945  1  0  0.625138  0  3.912096  0  0  0.566104  0  4.215511  0  0  0.599332  0  4.20811  0  1.588009  0  0.222939  0.543644  0  4.219752  0
C  C45  1  0.74226015  0.66928724  0.99122519  1  0  0.625223  0  3.916395  0  0  0.56558  0  4.221289  0  0  0.59888  0  4.2138  0  1.586537  0  0.220491  0.543084  0  4.225574  0
C  C46  1  0.92719866  0.66967620  0.49114046  1  0  0.625028  0  3.912159  0  0  0.565952  0  4.215632  0  0  0.59917  0  4.208238  0  1.588009  0  0.222891  0.543495  0  4.219871  0
C  C47  1  0.25773698  0.33071463  0.00877319  1  0  0.625386  0  3.91638  0  0  0.565671  0  4.221296  0  0  0.598972  0  4.213807  0  1.586507  0  0.220546  0.543175  0  4.22558  0
C  C48  1  0.96740508  0.36860476  0.69474951  1  0  0.697315  0  3.943124  0  0  0.64188  0  4.241824  0  0  0.677587  0  4.230831  0  1.643016  0  0.226043  0.617465  0  4.248534  0
C  C49  1  0.59839656  0.63109312  0.80531375  1  0  0.698913  0  3.942514  0  0  0.642994  0  4.242524  0  0  0.678715  0  4.231485  0  1.656019  0  0.226807  0.618609  0  4.24924  0
C  C50  1  0.03259940  0.63139446  0.30525030  1  0  0.697476  0  3.942848  0  0  0.642037  0  4.241582  0  0  0.67776  0  4.230561  0  1.642594  0  0.226075  0.617619  0  4.248297  0
C  C51  1  0.40159913  0.36890875  0.19468463  1  0  0.698859  0  3.942723  0  0  0.642956  0  4.242705  0  0  0.678678  0  4.231666  0  1.655961  0  0.226709  0.618575  0  4.24942  0
C  C52  1  0.96216830  0.25860284  0.55439767  1  0  0.068467  0  3.696301  0  0  0.062244  0  3.938821  0  0  0.063856  0  3.95865  0  0.51912  0  0.118267  0.060952  0  3.925743  0
C  C53  1  0.70321938  0.74102070  0.94576739  1  0  0.069243  0  3.696591  0  0  0.062008  0  3.941888  0  0  0.063562  0  3.96179  0  0.564174  0  0.118093  0.060806  0  3.928731  0
C  C54  1  0.03783540  0.74139770  0.44560298  1  0  0.068576  0  3.696187  0  0  0.062332  0  3.938766  0  0  0.063944  0  3.958592  0  0.519003  0  0.11833  0.061035  0  3.925691  0
C  C55  1  0.29678532  0.25898184  0.05423299  1  0  0.069077  0  3.696665  0  0  0.062019  0  3.941764  0  0  0.063587  0  3.961639  0  0.563983  0  0.118044  0.060817  0  3.928612  0
C  C56  1  0.91192933  0.27765079  0.63974638  1  0  -0.067206  0  3.659476  0  0  -0.051818  0  3.895977  0  0  -0.057074  0  3.913049  0  0.010704  0  0.020953  -0.048746  0  3.884928  0
C  C57  1  0.63387482  0.72201258  0.86043803  1  0  -0.067965  0  3.658341  0  0  -0.053666  0  3.897925  0  0  -0.058911  0  3.915002  0  -0.011885  0  0.019054  -0.050699  0  3.886977  0
C  C58  1  0.08807628  0.72234777  0.36025519  1  0  -0.067275  0  3.659384  0  0  -0.051953  0  3.896028  0  0  -0.057214  0  3.913099  0  0.0108  0  0.020923  -0.048877  0  3.884981  0
C  C59  1  0.36612487  0.27798863  0.13956399  1  0  -0.067938  0  3.658445  0  0  -0.053676  0  3.897956  0  0  -0.058925  0  3.915034  0  -0.011936  0  0.019063  -0.050723  0  3.887028  0
C  C60  1  0.80192100  0.20842891  0.67662667  1  0  -0.025051  0  3.69566  0  0  -0.054941  0  3.952505  0  0  -0.05238  0  3.96986  0  -0.036152  0  -0.059082  -0.056374  0  3.940727  0
C  C61  1  0.59361593  0.79133866  0.82355059  1  0  -0.024008  0  3.695465  0  0  -0.053454  0  3.952021  0  0  -0.050817  0  3.969283  0  -0.079391  0  -0.056729  -0.054944  0  3.940407  0
C  C62  1  0.19809151  0.79156898  0.32337541  1  0  -0.025071  0  3.695651  0  0  -0.054941  0  3.952544  0  0  -0.052369  0  3.969864  0  -0.036178  0  -0.059124  -0.056376  0  3.940763  0
C  C63  1  0.40638720  0.20866653  0.17644962  1  0  -0.024089  0  3.695375  0  0  -0.053522  0  3.951943  0  0  -0.050885  0  3.969207  0  -0.079415  0  -0.05676  -0.055009  0  3.940336  0
C  C64  1  0.74781181  0.12355810  0.62867534  1  0  -0.089298  0  3.719096  0  0  -0.103751  0  3.972665  0  0  -0.109999  0  3.994255  0  0.017383  0  -0.073032  -0.099707  0  3.958048  0
C  C65  1  0.62469539  0.87621080  0.87151905  1  0  -0.089007  0  3.719945  0  0  -0.102851  0  3.973163  0  0  -0.109171  0  3.994722  0  -0.001568  0  -0.07246  -0.098747  0  3.958561  0
C  C66  1  0.25219524  0.87644046  0.37132498  1  0  -0.08939  0  3.719004  0  0  -0.103791  0  3.97258  0  0  -0.110036  0  3.994173  0  0.017377  0  -0.072999  -0.099747  0  3.957965  0
C  C67  1  0.37530319  0.12379107  0.12847995  1  0  -0.08883  0  3.719737  0  0  -0.102667  0  3.972942  0  0  -0.108999  0  3.994508  0  -0.00153  0  -0.07238  -0.098565  0  3.958339  0
C  C68  1  0.80725914  0.10906738  0.54489511  1  0  0.132488  0  3.684427  0  0  0.095837  0  3.943244  0  0  0.103188  0  3.960765  0  0.432662  0  0.049262  0.091026  0  3.931202  0
C  C69  1  0.69845044  0.89064046  0.95529944  1  0  0.130483  0  3.685344  0  0  0.094301  0  3.943638  0  0  0.101644  0  3.961177  0  0.520412  0  0.047619  0.089535  0  3.931602  0
C  C70  1  0.19274167  0.89093317  0.45510555  1  0  0.1325  0  3.684316  0  0  0.095819  0  3.943121  0  0  0.103166  0  3.960642  0  0.432632  0  0.049254  0.091009  0  3.93108  0
C  C71  1  0.30154491  0.10936075  0.04470070  1  0  0.130567  0  3.685376  0  0  0.094404  0  3.943706  0  0  0.101726  0  3.961243  0  0.520186  0  0.047655  0.08964  0  3.931669  0
C  C72  1  0.42501944  0.21545856  0.48990426  1  0  0.287191  0  3.949647  0  0  0.272668  0  4.255322  0  0  0.290927  0  4.270693  0  0.632434  0  0.14621  0.260152  0  4.244946  0
C  C73  1  0.20905207  0.78465880  0.00999313  1  0  0.287022  0  3.949027  0  0  0.272455  0  4.254968  0  0  0.290712  0  4.270328  0  0.618821  0  0.146182  0.259941  0  4.244592  0
C  C74  1  0.57497726  0.78453667  0.51009548  1  0  0.287265  0  3.949503  0  0  0.272741  0  4.255176  0  0  0.290998  0  4.270549  0  0.632607  0  0.146278  0.260224  0  4.244802  0
C  C75  1  0.79094609  0.21533643  0.99001288  1  0  0.286977  0  3.949021  0  0  0.272414  0  4.254956  0  0  0.290668  0  4.270322  0  0.619006  0  0.146186  0.259901  0  4.244577  0
C  C76  1  0.79713112  0.92316958  0.32063249  1  0  0.263291  0  3.952654  0  0  0.247497  0  4.250528  0  0  0.267308  0  4.267767  0  0.634955  0  0.14551  0.234097  0  4.23873  0
C  C77  1  0.87463552  0.07691857  0.17930434  1  0  0.263579  0  3.954609  0  0  0.247918  0  4.25242  0  0  0.267723  0  4.269669  0  0.592781  0  0.147684  0.234526  0  4.240602  0
C  C78  1  0.20287995  0.07682831  0.67937147  1  0  0.263304  0  3.952491  0  0  0.247513  0  4.250363  0  0  0.267329  0  4.2676  0  0.634618  0  0.145524  0.234112  0  4.238564  0
C  C79  1  0.12535371  0.92308197  0.82069507  1  0  0.263479  0  3.954412  0  0  0.247825  0  4.252219  0  0  0.267634  0  4.269468  0  0.593079  0  0.147597  0.234431  0  4.2404  0
S  S80  1  0.39109235  0.13671272  0.40432999  1  0  -0.262805  0  2.16484  0  0  -0.225627  0  2.493182  0  0  -0.244243  0  2.487125  0  0.065181  0  -0.112077  -0.212902  0  2.497141  0
S  S81  1  0.25417518  0.86339602  0.09557468  1  0  -0.261525  0  2.16546  0  0  -0.224097  0  2.493555  0  0  -0.242664  0  2.48746  0  0.063859  0  -0.111272  -0.211412  0  2.497548  0
S  S82  1  0.60890324  0.86328318  0.59567113  1  0  -0.262839  0  2.164747  0  0  -0.225676  0  2.493121  0  0  -0.244292  0  2.487066  0  0.065018  0  -0.112111  -0.212953  0  2.497081  0
S  S83  1  0.74581818  0.13660121  0.90442916  1  0  -0.26144  0  2.165501  0  0  -0.224003  0  2.493596  0  0  -0.242569  0  2.4875  0  0.063821  0  -0.111239  -0.211316  0  2.497588  0
S  S84  1  0.70694903  0.82566186  0.26089935  1  0  -0.182887  0  2.317187  0  0  -0.151527  0  2.673109  0  0  -0.167615  0  2.668017  0  0.176033  0  -0.055055  -0.140924  0  2.676604  0
S  S85  1  0.88190816  0.17440771  0.23906308  1  0  -0.183598  0  2.316094  0  0  -0.15237  0  2.671641  0  0  -0.168492  0  2.666609  0  0.205399  0  -0.056271  -0.141738  0  2.675106  0
S  S86  1  0.29305736  0.17433536  0.73910387  1  0  -0.182879  0  2.317274  0  0  -0.151523  0  2.673219  0  0  -0.167607  0  2.668126  0  0.176423  0  -0.055057  -0.140936  0  2.676744  0
S  S87  1  0.11807950  0.82559549  0.76094054  1  0  -0.183463  0  2.31619  0  0  -0.15226  0  2.671782  0  0  -0.168384  0  2.666756  0  0.204955  0  -0.056238  -0.141628  0  2.675247  0
N  N88  1  0.91030778  0.17525597  0.50939905  1  0  -0.27436  0  3.27595  0  0  -0.200624  0  3.533612  0  0  -0.219953  0  3.55651  0  -1.193561  0  -0.297884  -0.187412  0  3.517809  0
N  N89  1  0.73495633  0.82437620  0.99078565  1  0  -0.273556  0  3.27519  0  0  -0.198886  0  3.532329  0  0  -0.218244  0  3.555374  0  -1.218506  0  -0.29619  -0.185654  0  3.5164  0
N  N90  1  0.08969125  0.82474391  0.49060212  1  0  -0.274399  0  3.275936  0  0  -0.200586  0  3.533559  0  0  -0.219908  0  3.556447  0  -1.193589  0  -0.297877  -0.187376  0  3.51776  0
N  N91  1  0.26504113  0.17562633  0.00921160  1  0  -0.273697  0  3.275324  0  0  -0.199127  0  3.532496  0  0  -0.218481  0  3.555537  0  -1.218342  0  -0.296285  -0.185895  0  3.516567  0
N  N92  1  0.45114859  0.27213977  0.55061724  1  0  -0.523656  0  2.681449  0  0  -0.491142  0  2.931662  0  0  -0.506932  0  2.943433  0  -1.23994  0  -0.379308  -0.480447  0  2.923937  0
N  N93  1  0.17827776  0.72792316  0.94932214  1  0  -0.524002  0  2.680977  0  0  -0.49156  0  2.931286  0  0  -0.507364  0  2.943097  0  -1.225587  0  -0.379292  -0.480848  0  2.923528  0
N  N94  1  0.54884932  0.72786077  0.44937841  1  0  -0.523702  0  2.681471  0  0  -0.491181  0  2.931673  0  0  -0.506973  0  2.943448  0  -1.239919  0  -0.379335  -0.480488  0  2.923949  0
N  N95  1  0.82171693  0.27207672  0.05068090  1  0  -0.52401  0  2.680984  0  0  -0.491571  0  2.931286  0  0  -0.507377  0  2.9431  0  -1.22552  0  -0.379294  -0.480859  0  2.92353  0
N  N96  1  0.85724170  0.99107261  0.36739719  1  0  -0.473085  0  2.856309  0  0  -0.424239  0  3.123079  0  0  -0.444425  0  3.13302  0  -1.246138  0  -0.356957  -0.410616  0  3.116184  0
N  N97  1  0.86671955  0.00898701  0.13258106  1  0  -0.474201  0  2.857713  0  0  -0.425524  0  3.124459  0  0  -0.445691  0  3.134391  0  -1.233696  0  -0.358698  -0.411904  0  3.117553  0
N  N98  1  0.14275422  0.00892395  0.63260279  1  0  -0.473115  0  2.856143  0  0  -0.424259  0  3.12291  0  0  -0.444449  0  3.132853  0  -1.24615  0  -0.356953  -0.410624  0  3.115995  0
N  N99  1  0.13326443  0.99101752  0.86742341  1  0  -0.474238  0  2.857401  0  0  -0.425566  0  3.124161  0  0  -0.445738  0  3.134094  0  -1.233614  0  -0.358675  -0.411944  0  3.117254  0
O  O100  1  0.09860007  0.31254613  0.42963815  1  0  -0.618693  0  2.059218  0  0  -0.547029  0  2.291689  0  0  -0.572977  0  2.280448  0  -1.170342  0  -0.295935  -0.528924  0  2.298851  0
O  O101  1  0.78592238  0.68705351  0.07043955  1  0  -0.619534  0  2.05991  0  0  -0.546956  0  2.291711  0  0  -0.572936  0  2.280495  0  -1.17017  0  -0.294372  -0.528869  0  2.298884  0
O  O102  1  0.90139685  0.68745242  0.57036091  1  0  -0.618705  0  2.059308  0  0  -0.546974  0  2.291753  0  0  -0.5729  0  2.280501  0  -1.170354  0  -0.295924  -0.52887  0  2.298912  0
O  O103  1  0.21407620  0.31294836  0.92955883  1  0  -0.619584  0  2.059936  0  0  -0.547013  0  2.291768  0  0  -0.572999  0  2.280554  0  -1.170223  0  -0.294398  -0.528926  0  2.298941  0
O  O104  1  0.13259426  0.40765179  0.55388602  1  0  -0.670904  0  2.038955  0  0  -0.600406  0  2.262661  0  0  -0.626378  0  2.253242  0  -1.204638  0  -0.317663  -0.582221  0  2.268658  0
O  O105  1  0.72483055  0.59199830  0.94613210  1  0  -0.67104  0  2.040447  0  0  -0.599851  0  2.263866  0  0  -0.625946  0  2.254627  0  -1.198132  0  -0.315991  -0.581582  0  2.269745  0
O  O106  1  0.86741379  0.59234876  0.44611276  1  0  -0.670869  0  2.038983  0  0  -0.600375  0  2.262723  0  0  -0.626346  0  2.253312  0  -1.204635  0  -0.317661  -0.582182  0  2.268698  0
O  O107  1  0.27516802  0.40800357  0.05386628  1  0  -0.670987  0  2.040385  0  0  -0.59979  0  2.263843  0  0  -0.625882  0  2.254604  0  -1.197851  0  -0.315941  -0.581523  0  2.269721  0
O  O108  1  0.12902120  0.38925696  0.73856560  1  0  -0.703169  0  1.969395  0  0  -0.640767  0  2.210572  0  0  -0.668936  0  2.201961  0  -1.215363  0  -0.384708  -0.620578  0  2.215783  0
O  O109  1  0.73932130  0.61056902  0.76141135  1  0  -0.703887  0  1.969584  0  0  -0.641255  0  2.211173  0  0  -0.669432  0  2.202587  0  -1.201607  0  -0.385128  -0.621054  0  2.216342  0
O  O110  1  0.87097828  0.61074093  0.26143523  1  0  -0.703198  0  1.969251  0  0  -0.640768  0  2.210404  0  0  -0.668945  0  2.201784  0  -1.215294  0  -0.384701  -0.620579  0  2.215616  0
O  O111  1  0.26067906  0.38943351  0.23858902  1  0  -0.703877  0  1.969686  0  0  -0.641275  0  2.211316  0  0  -0.669455  0  2.20273  0  -1.201582  0  -0.385113  -0.621073  0  2.216483  0
O  O112  1  0.84187326  0.41706956  0.69842231  1  0  -0.729896  0  2.032751  0  0  -0.662099  0  2.282875  0  0  -0.691219  0  2.273439  0  -1.219861  0  -0.405235  -0.641308  0  2.288702  0
O  O113  1  0.42445295  0.58256327  0.80159536  1  0  -0.730857  0  2.033554  0  0  -0.662385  0  2.283505  0  0  -0.691584  0  2.274172  0  -1.221723  0  -0.405206  -0.641549  0  2.289244  0
O  O114  1  0.15812622  0.58292833  0.30157539  1  0  -0.729982  0  2.032686  0  0  -0.662174  0  2.282805  0  0  -0.691302  0  2.273362  0  -1.219521  0  -0.40527  -0.641385  0  2.288635  0
O  O115  1  0.57553905  0.41743993  0.19840012  1  0  -0.730785  0  2.033526  0  0  -0.662349  0  2.283532  0  0  -0.69155  0  2.274201  0  -1.22175  0  -0.40512  -0.641513  0  2.289268  0
O  O116  1  0.74768667  0.46417569  0.53649979  1  0  -0.87589  0  1.870936  0  0  -0.815266  0  2.058857  0  0  -0.835235  0  2.026744  0  -1.28086  0  -0.607124  -0.801095  0  2.081359  0
O  O117  1  0.28349096  0.53611557  0.96353950  1  0  -0.876395  0  1.8708  0  0  -0.815659  0  2.059079  0  0  -0.835595  0  2.026735  0  -1.277266  0  -0.607056  -0.801504  0  2.081755  0
O  O118  1  0.25231638  0.53582353  0.46349876  1  0  -0.875944  0  1.870901  0  0  -0.815303  0  2.058776  0  0  -0.835273  0  2.026662  0  -1.280842  0  -0.607159  -0.801131  0  2.081278  0
O  O119  1  0.71650873  0.46388564  0.03646002  1  0  -0.876407  0  1.870717  0  0  -0.815691  0  2.058932  0  0  -0.835626  0  2.026589  0  -1.277259  0  -0.607048  -0.801536  0  2.081608  0
O  O120  1  0.51486602  0.37169645  0.81412937  1  0  -0.867039  0  1.798239  0  0  -0.810671  0  1.970233  0  0  -0.829527  0  1.940938  0  -1.286503  0  -0.625005  -0.797159  0  1.99067  0
O  O121  1  0.14276661  0.62808971  0.68567298  1  0  -0.867617  0  1.79794  0  0  -0.811546  0  1.96864  0  0  -0.83033  0  1.939435  0  -1.288326  0  -0.625052  -0.79809  0  1.989028  0
O  O122  1  0.48513624  0.62830409  0.18587004  1  0  -0.86712  0  1.798119  0  0  -0.810751  0  1.970118  0  0  -0.829603  0  1.940817  0  -1.286486  0  -0.625029  -0.797239  0  1.990555  0
O  O123  1  0.85723309  0.37191150  0.31432779  1  0  -0.867593  0  1.797969  0  0  -0.811516  0  1.968652  0  0  -0.830299  0  1.939445  0  -1.288226  0  -0.625051  -0.798062  0  1.98904  0
O  O124  1  0.48625275  0.60472216  0.60473910  1  0  -0.869304  0  1.854266  0  0  -0.808033  0  2.025592  0  0  -0.828212  0  1.996968  0  -1.305705  0  -0.591841  -0.793742  0  2.045576  0
O  O125  1  0.88165975  0.39525250  0.89520516  1  0  -0.869867  0  1.856301  0  0  -0.80828  0  2.026508  0  0  -0.828518  0  1.997842  0  -1.282134  0  -0.592293  -0.793954  0  2.046508  0
O  O126  1  0.51375095  0.39527839  0.39526031  1  0  -0.86934  0  1.854258  0  0  -0.80806  0  2.025549  0  0  -0.828239  0  1.996921  0  -1.305726  0  -0.591881  -0.79377  0  2.045534  0
O  O127  1  0.11834217  0.60474738  0.10479476  1  0  -0.869886  0  1.856277  0  0  -0.808313  0  2.026455  0  0  -0.828553  0  1.997789  0  -1.282074  0  -0.592312  -0.793986  0  2.046454  0
