# generated using pymatgen
data_ZnH17C19(NO3)2
_symmetry_space_group_name_H-M   'P 1'
_cell_length_a   8.48986664
_cell_length_b   10.23058981
_cell_length_c   11.00920467
_cell_angle_alpha   65.28058406
_cell_angle_beta   72.19638471
_cell_angle_gamma   80.22557233
_symmetry_Int_Tables_number   1
_chemical_formula_structural   ZnH17C19(NO3)2
_chemical_formula_sum   'Zn2 H34 C38 N4 O12'
_cell_volume   826.02893230
_cell_formula_units_Z   2
loop_
 _symmetry_equiv_pos_site_id
 _symmetry_equiv_pos_as_xyz
  1  'x, y, z'
loop_
 _atom_site_type_symbol
 _atom_site_label
 _atom_site_symmetry_multiplicity
 _atom_site_fract_x
 _atom_site_fract_y
 _atom_site_fract_z
 _atom_site_occupancy
 _atom_site_hle17_bader_spin_density
 _atom_site_hle17_ddec_charge
 _atom_site_hle17_ddec_spin_density
 _atom_site_hle17_ddec_sum_bond_order
 _atom_site_hle17_magmom
 _atom_site_hse06_10hf_bader_spin_density
 _atom_site_hse06_10hf_ddec_charge
 _atom_site_hse06_10hf_ddec_spin_density
 _atom_site_hse06_10hf_ddec_sum_bond_order
 _atom_site_hse06_10hf_magmom
 _atom_site_hse06_bader_spin_density
 _atom_site_hse06_ddec_charge
 _atom_site_hse06_ddec_spin_density
 _atom_site_hse06_ddec_sum_bond_order
 _atom_site_hse06_magmom
 _atom_site_pbe_bader_spin_density
 _atom_site_pbe_cm5_charge
 _atom_site_pbe_ddec_charge
 _atom_site_pbe_ddec_spin_density
 _atom_site_pbe_ddec_sum_bond_order
 _atom_site_pbe_magmom
Zn  Zn0  1  0.66893875  0.48956390  0.54798348  1  0  1.193014  0  1.764089  0  0  1.026811  0  2.238752  0  0  1.075316  0  2.173139  0  0  0.693436  0.992477  0  2.284055  0
Zn  Zn1  1  0.33105843  0.51043115  0.45202213  1  0  1.192984  0  1.764094  0  0  1.026769  0  2.238757  0  0  1.075272  0  2.173149  0  0  0.693434  0.992436  0  2.284051  0
H  H2  1  0.34062260  0.88843106  0.23155579  1  0  0.101487  0  0.961055  0  0  0.114749  0  1.017614  0  0  0.117584  0  1.016589  0  0  0.105082  0.112785  0  1.018386  0
H  H3  1  0.65937064  0.11156822  0.76843637  1  0  0.101525  0  0.961092  0  0  0.114846  0  1.017544  0  0  0.117681  0  1.016519  0  0  0.105103  0.112881  0  1.018316  0
H  H4  1  0.50536916  0.77667195  0.39923063  1  0  0.090516  0  0.972537  0  0  0.098993  0  1.04111  0  0  0.102455  0  1.038193  0  0  0.10184  0.096424  0  1.043388  0
H  H5  1  0.49462166  0.22332629  0.60076434  1  0  0.09052  0  0.972481  0  0  0.098988  0  1.041081  0  0  0.10246  0  1.038154  0  0  0.101834  0.096414  0  1.043365  0
H  H6  1  0.14168319  0.39998527  0.99980557  1  0  0.101879  0  0.930624  0  0  0.110864  0  0.997239  0  0  0.114439  0  0.992211  0  0  0.130771  0.108468  0  1.000298  0
H  H7  1  0.85832146  0.60001911  0.00019479  1  0  0.101873  0  0.930607  0  0  0.110935  0  0.99712  0  0  0.114531  0  0.992085  0  0  0.130788  0.108522  0  1.000214  0
H  H8  1  0.79041406  0.01877052  0.90156967  1  0  0.095781  0  0.977241  0  0  0.104431  0  1.043735  0  0  0.108309  0  1.040753  0  0  0.099794  0.101767  0  1.045913  0
H  H9  1  0.20957633  0.98123860  0.09843291  1  0  0.09575  0  0.977255  0  0  0.104403  0  1.043762  0  0  0.108282  0  1.04078  0  0  0.099784  0.101742  0  1.045941  0
H  H10  1  0.95182219  0.89975781  0.07253850  1  0  0.090046  0  0.980603  0  0  0.099513  0  1.047501  0  0  0.102138  0  1.046229  0  0  0.101144  0.097783  0  1.048139  0
H  H11  1  0.04816937  0.10025229  0.92745432  1  0  0.09003  0  0.980632  0  0  0.099483  0  1.047555  0  0  0.102108  0  1.046285  0  0  0.101143  0.097749  0  1.048195  0
H  H12  1  0.07478178  0.34780230  0.22188707  1  0  0.076789  0  0.95618  0  0  0.093084  0  1.018595  0  0  0.094189  0  1.017612  0  0  0.108703  0.092164  0  1.019444  0
H  H13  1  0.92522393  0.65219590  0.77811527  1  0  0.076748  0  0.956286  0  0  0.093051  0  1.018685  0  0  0.094153  0  1.017703  0  0  0.108703  0.092133  0  1.019524  0
H  H14  1  0.22657435  0.32334999  0.31101836  1  0  0.098053  0  0.947396  0  0  0.105919  0  1.01834  0  0  0.108072  0  1.01629  0  0  0.111779  0.104539  0  1.019508  0
H  H15  1  0.77343393  0.67664603  0.68898332  1  0  0.098101  0  0.947349  0  0  0.105977  0  1.018285  0  0  0.108126  0  1.016242  0  0  0.111796  0.104594  0  1.019455  0
H  H16  1  0.93320606  0.20561500  0.12312024  1  0  0.105933  0  0.956377  0  0  0.118568  0  1.014154  0  0  0.121212  0  1.014675  0  0  0.106309  0.116795  0  1.013814  0
H  H17  1  0.06680312  0.79438853  0.87687645  1  0  0.105869  0  0.956221  0  0  0.118531  0  1.013996  0  0  0.121174  0  1.014517  0  0  0.106318  0.116761  0  1.013651  0
H  H18  1  0.86633242  0.33280167  0.89215317  1  0  0.12007  0  0.924712  0  0  0.128532  0  0.985689  0  0  0.132146  0  0.982261  0  0  0.116934  0.126078  0  0.987826  0
H  H19  1  0.13367315  0.66719976  0.10784702  1  0  0.120113  0  0.924727  0  0  0.128561  0  0.985724  0  0  0.132175  0  0.982296  0  0  0.116944  0.12611  0  0.98786  0
H  H20  1  0.83564643  0.06684380  0.36834789  1  0  0.116281  0  0.975353  0  0  0.135479  0  1.039995  0  0  0.136898  0  1.040506  0  0  0.094121  0.134508  0  1.039574  0
H  H21  1  0.16436276  0.93315975  0.63165060  1  0  0.116343  0  0.975259  0  0  0.135532  0  1.03991  0  0  0.136951  0  1.040423  0  0  0.094129  0.134561  0  1.039492  0
H  H22  1  0.69167768  0.18601970  0.43153835  1  0  0.134872  0  0.949521  0  0  0.156977  0  1.009086  0  0  0.15889  0  1.008165  0  0  0.099711  0.155531  0  1.009933  0
H  H23  1  0.30832636  0.81398817  0.56845603  1  0  0.134891  0  0.94953  0  0  0.157017  0  1.009061  0  0  0.15893  0  1.00814  0  0  0.099748  0.155575  0  1.009903  0
H  H24  1  0.62292235  0.02613401  0.44269467  1  0  0.1282  0  0.94838  0  0  0.14946  0  1.007745  0  0  0.151216  0  1.007122  0  0  0.100433  0.148167  0  1.008312  0
H  H25  1  0.37708198  0.97386744  0.55730581  1  0  0.128161  0  0.948417  0  0  0.149415  0  1.0078  0  0  0.151172  0  1.007175  0  0  0.10039  0.148119  0  1.008372  0
H  H26  1  0.06208245  0.10886793  0.42184672  1  0  0.112149  0  0.95044  0  0  0.137825  0  1.004023  0  0  0.138495  0  1.005166  0  0  0.096752  0.137169  0  1.003426  0
H  H27  1  0.93793314  0.89113131  0.57815741  1  0  0.112114  0  0.950399  0  0  0.137749  0  1.004053  0  0  0.138468  0  1.005124  0  0  0.096735  0.137082  0  1.003466  0
H  H28  1  0.11100880  0.08107334  0.26508117  1  0  0.093883  0  0.972184  0  0  0.111964  0  1.042935  0  0  0.113297  0  1.042294  0  0  0.084498  0.110967  0  1.043419  0
H  H29  1  0.88900091  0.91891840  0.73492641  1  0  0.093909  0  0.972191  0  0  0.111976  0  1.042958  0  0  0.113308  0  1.042328  0  0  0.084482  0.110978  0  1.043443  0
H  H30  1  0.26913625  0.06279871  0.34723248  1  0  0.111415  0  0.973359  0  0  0.130464  0  1.038336  0  0  0.131764  0  1.038856  0  0  0.091738  0.129595  0  1.037873  0
H  H31  1  0.73087561  0.93720054  0.65277071  1  0  0.111314  0  0.973479  0  0  0.130444  0  1.038384  0  0  0.131743  0  1.038912  0  0  0.091733  0.129576  0  1.03792  0
H  H32  1  0.87651916  0.36649143  0.41979515  1  0  0.420395  0  0.864418  0  0  0.392248  0  0.93393  0  0  0.403083  0  0.918084  0  0  0.298229  0.384568  0  0.945128  0
H  H33  1  0.12347187  0.63350255  0.58020600  1  0  0.420448  0  0.864413  0  0  0.392317  0  0.933838  0  0  0.40315  0  0.917996  0  0  0.298282  0.384636  0  0.945036  0
H  H34  1  0.91059694  0.27906954  0.57731121  1  0  0.434242  0  0.870514  0  0  0.398618  0  0.940199  0  0  0.411784  0  0.921444  0  0  0.285328  0.389376  0  0.953328  0
H  H35  1  0.08939523  0.72092659  0.42268973  1  0  0.434237  0  0.870507  0  0  0.398582  0  0.940237  0  0  0.411746  0  0.921487  0  0  0.285303  0.389339  0  0.953365  0
C  C36  1  0.60321579  0.33021159  0.98508468  1  0  -0.159608  0  3.771272  0  0  -0.147646  0  4.01932  0  0  -0.162017  0  4.043357  0  0  -0.018883  -0.138983  0  4.005022  0
C  C37  1  0.39678739  0.66978768  0.01491421  1  0  -0.15967  0  3.77148  0  0  -0.147733  0  4.019516  0  0  -0.162099  0  4.043561  0  0  -0.018915  -0.139067  0  4.005229  0
C  C38  1  0.38510907  0.42014574  0.86251296  1  0  -0.285251  0  3.748823  0  0  -0.269164  0  4.008014  0  0  -0.291901  0  4.031153  0  0  -0.043202  -0.25399  0  3.993171  0
C  C39  1  0.61489200  0.57984492  0.13748802  1  0  -0.285054  0  3.748401  0  0  -0.269054  0  4.007646  0  0  -0.291782  0  4.030797  0  0  -0.043193  -0.253885  0  3.992809  0
C  C40  1  0.48196661  0.28943618  0.11312754  1  0  0.323949  0  3.781224  0  0  0.29295  0  4.041812  0  0  0.308744  0  4.05891  0  0  0.23377  0.282189  0  4.031568  0
C  C41  1  0.51803906  0.71056311  0.88687439  1  0  0.32411  0  3.781256  0  0  0.293079  0  4.041803  0  0  0.30887  0  4.0589  0  0  0.233833  0.282305  0  4.031579  0
C  C42  1  0.74109869  0.82976789  0.24763820  1  0  -0.077728  0  3.770372  0  0  -0.052326  0  3.997163  0  0  -0.060744  0  4.02121  0  0  -0.022314  -0.047401  0  3.98222  0
C  C43  1  0.25889210  0.17023147  0.75235997  1  0  -0.077756  0  3.770394  0  0  -0.052283  0  3.997097  0  0  -0.060638  0  4.021065  0  0  -0.022334  -0.047363  0  3.982159  0
C  C44  1  0.54997519  0.96405348  0.05100695  1  0  0.052627  0  3.751158  0  0  0.065137  0  3.986516  0  0  0.066419  0  4.009844  0  0  -0.008441  0.064328  0  3.972218  0
C  C45  1  0.45001297  0.03594910  0.94898694  1  0  0.052547  0  3.751465  0  0  0.065125  0  3.986773  0  0  0.066402  0  4.010103  0  0  -0.008286  0.064315  0  3.972478  0
C  C46  1  0.55939816  0.39746700  0.85365522  1  0  0.414851  0  3.818344  0  0  0.379936  0  4.090258  0  0  0.407455  0  4.095704  0  0  0.130548  0.361415  0  4.08664  0
C  C47  1  0.44060406  0.60252581  0.14634554  1  0  0.414783  0  3.818223  0  0  0.379926  0  4.09008  0  0  0.407421  0  4.095563  0  0  0.130537  0.361401  0  4.086474  0
C  C48  1  0.47468397  0.89353529  0.19356084  1  0  -0.106817  0  3.702909  0  0  -0.126106  0  3.953307  0  0  -0.129612  0  3.974047  0  0  -0.09025  -0.12411  0  3.940358  0
C  C49  1  0.52530429  0.10646514  0.80643478  1  0  -0.106857  0  3.703155  0  0  -0.126201  0  3.953491  0  0  -0.129705  0  3.974237  0  0  -0.090316  -0.124202  0  3.940537  0
C  C50  1  0.31312149  0.48385714  0.74099799  1  0  0.691671  0  3.879737  0  0  0.637464  0  4.172518  0  0  0.673248  0  4.167187  0  0  0.212399  0.612933  0  4.175928  0
C  C51  1  0.68688065  0.51613787  0.25900647  1  0  0.691551  0  3.879732  0  0  0.637423  0  4.172438  0  0  0.673206  0  4.167109  0  0  0.21243  0.612905  0  4.175832  0
C  C52  1  0.67482898  0.19210059  0.23906541  1  0  0.355068  0  3.704776  0  0  0.359912  0  3.956045  0  0  0.372561  0  3.972234  0  0  0.139418  0.35132  0  3.945993  0
C  C53  1  0.32518030  0.80790079  0.76093211  1  0  0.354924  0  3.704827  0  0  0.359881  0  3.955887  0  0  0.372494  0  3.972128  0  0  0.139379  0.351293  0  3.945827  0
C  C54  1  0.56799218  0.82838413  0.28973923  1  0  -0.066581  0  3.746761  0  0  -0.09092  0  3.997314  0  0  -0.090461  0  4.01753  0  0  -0.087255  -0.091297  0  3.984761  0
C  C55  1  0.43199736  0.17161521  0.71025651  1  0  -0.066495  0  3.746693  0  0  -0.090846  0  3.997244  0  0  -0.090416  0  4.017436  0  0  -0.087185  -0.091215  0  3.98469  0
C  C56  1  0.27367227  0.38025395  0.99265006  1  0  0.132027  0  3.655037  0  0  0.073496  0  3.917595  0  0  0.09082  0  3.930692  0  0  0.071564  0.062397  0  3.908608  0
C  C57  1  0.72633114  0.61973995  0.00735271  1  0  0.132101  0  3.655068  0  0  0.073533  0  3.917595  0  0  0.09083  0  3.930716  0  0  0.071597  0.062435  0  3.908601  0
C  C58  1  0.84411624  0.76503955  0.34980846  1  0  0.667699  0  3.886489  0  0  0.617735  0  4.176859  0  0  0.652291  0  4.168957  0  0  0.217511  0.594224  0  4.181868  0
C  C59  1  0.15587102  0.23495554  0.65019315  1  0  0.667647  0  3.886684  0  0  0.617649  0  4.177083  0  0  0.652184  0  4.16918  0  0  0.217464  0.594135  0  4.182101  0
C  C60  1  0.72457628  0.96386349  0.00980308  1  0  -0.120459  0  3.730837  0  0  -0.140091  0  3.984014  0  0  -0.144076  0  4.004866  0  0  -0.094821  -0.138084  0  3.971413  0
C  C61  1  0.27541287  0.03614560  0.99019526  1  0  -0.120165  0  3.730832  0  0  -0.13983  0  3.98398  0  0  -0.143807  0  4.004824  0  0  -0.094721  -0.137831  0  3.971381  0
C  C62  1  0.81739241  0.89793305  0.10606422  1  0  -0.075585  0  3.761343  0  0  -0.098901  0  4.00954  0  0  -0.098801  0  4.031169  0  0  -0.090744  -0.098566  0  3.995364  0
C  C63  1  0.18259797  0.10207603  0.89393293  1  0  -0.075784  0  3.761528  0  0  -0.099114  0  4.009716  0  0  -0.099037  0  4.031337  0  0  -0.090833  -0.098777  0  3.995556  0
C  C64  1  0.18670102  0.28425553  0.24690509  1  0  0.030172  0  3.607292  0  0  -0.029228  0  3.870447  0  0  -0.023974  0  3.879736  0  0  -0.062795  -0.032594  0  3.863547  0
C  C65  1  0.81330473  0.71574158  0.75309586  1  0  0.030189  0  3.607276  0  0  -0.029253  0  3.870506  0  0  -0.024  0  3.879807  0  0  -0.062806  -0.032619  0  3.863598  0
C  C66  1  0.80563266  0.23224240  0.11631284  1  0  -0.182855  0  3.692588  0  0  -0.199695  0  3.942001  0  0  -0.210684  0  3.964233  0  0  -0.086782  -0.192689  0  3.927711  0
C  C67  1  0.19437909  0.76775895  0.88368410  1  0  -0.182725  0  3.69255  0  0  -0.199661  0  3.941968  0  0  -0.210639  0  3.964211  0  0  -0.086801  -0.192651  0  3.92767  0
C  C68  1  0.76988575  0.30131158  0.98959752  1  0  0.007149  0  3.693664  0  0  -0.022983  0  3.95114  0  0  -0.015426  0  3.966084  0  0  -0.059439  -0.027463  0  3.941074  0
C  C69  1  0.23012358  0.69868873  0.01040221  1  0  0.007091  0  3.693821  0  0  -0.023033  0  3.951301  0  0  -0.015474  0  3.966242  0  0  -0.059438  -0.02752  0  3.941242  0
C  C70  1  0.70875673  0.11298939  0.37781247  1  0  -0.380593  0  3.67777  0  0  -0.465209  0  3.911792  0  0  -0.468986  0  3.918418  0  0  -0.239016  -0.462355  0  3.907456  0
C  C71  1  0.29125136  0.88701092  0.62218575  1  0  -0.380612  0  3.677815  0  0  -0.4653  0  3.911822  0  0  -0.469069  0  3.918465  0  0  -0.239036  -0.462447  0  3.907485  0
C  C72  1  0.15609306  0.12447598  0.32356442  1  0  -0.309168  0  3.676787  0  0  -0.390133  0  3.923699  0  0  -0.392636  0  3.93297  0  0  -0.247239  -0.388026  0  3.917085  0
C  C73  1  0.84391642  0.87552114  0.67644018  1  0  -0.309046  0  3.676869  0  0  -0.390056  0  3.923782  0  0  -0.392592  0  3.933032  0  0  -0.247196  -0.387943  0  3.917179  0
N  N74  1  0.31548615  0.31857803  0.11362532  1  0  -0.111517  0  3.47123  0  0  -0.019867  0  3.690043  0  0  -0.039547  0  3.714283  0  0  -0.224404  -0.006442  0  3.673418  0
N  N75  1  0.68451474  0.68141697  0.88637762  1  0  -0.11169  0  3.471313  0  0  -0.020034  0  3.690141  0  0  -0.039714  0  3.714384  0  0  -0.224497  -0.0066  0  3.67351  0
N  N76  1  0.51609163  0.22285918  0.23651427  1  0  -0.404483  0  2.998555  0  0  -0.371322  0  3.262198  0  0  -0.386926  0  3.274838  0  0  -0.307904  -0.360943  0  3.254603  0
N  N77  1  0.48391895  0.77714115  0.76348880  1  0  -0.404531  0  2.998416  0  0  -0.371297  0  3.261903  0  0  -0.386888  0  3.274557  0  0  -0.307902  -0.360916  0  3.25431  0
O  O78  1  0.41415988  0.50410189  0.61875781  1  0  -0.719137  0  2.182135  0  0  -0.63123  0  2.479431  0  0  -0.663097  0  2.459755  0  0  -0.325009  -0.60824  0  2.492346  0
O  O79  1  0.58583935  0.49590282  0.38124078  1  0  -0.719016  0  2.182122  0  0  -0.631177  0  2.479445  0  0  -0.663038  0  2.459765  0  0  -0.32501  -0.608189  0  2.492354  0
O  O80  1  0.78222646  0.67072146  0.47108197  1  0  -0.681021  0  2.073954  0  0  -0.610075  0  2.353413  0  0  -0.637221  0  2.333645  0  0  -0.33648  -0.590961  0  2.366252  0
O  O81  1  0.21775700  0.32927581  0.52891877  1  0  -0.680949  0  2.073988  0  0  -0.609986  0  2.353424  0  0  -0.637142  0  2.333689  0  0  -0.336434  -0.590864  0  2.36626  0
O  O82  1  0.67763414  0.43163665  0.74366232  1  0  -0.555597  0  2.092639  0  0  -0.485897  0  2.355264  0  0  -0.512568  0  2.343736  0  0  -0.296482  -0.467195  0  2.362765  0
O  O83  1  0.32236767  0.56836588  0.25633743  1  0  -0.555562  0  2.092635  0  0  -0.485851  0  2.355182  0  0  -0.512507  0  2.343665  0  0  -0.296466  -0.467148  0  2.362689  0
O  O84  1  0.16065832  0.51390961  0.75783618  1  0  -0.608498  0  1.918774  0  0  -0.561278  0  2.140401  0  0  -0.585972  0  2.132874  0  0  -0.309451  -0.543875  0  2.145555  0
O  O85  1  0.83934602  0.48609186  0.24216702  1  0  -0.608569  0  1.918905  0  0  -0.561343  0  2.140493  0  0  -0.586041  0  2.132966  0  0  -0.309478  -0.543943  0  2.145645  0
O  O86  1  0.82489374  0.32500683  0.52047985  1  0  -0.851296  0  1.935316  0  0  -0.780775  0  2.160361  0  0  -0.805016  0  2.121516  0  0  -0.571654  -0.763565  0  2.18713  0
O  O87  1  0.17510206  0.67499143  0.47952119  1  0  -0.851365  0  1.935303  0  0  -0.780818  0  2.160347  0  0  -0.805057  0  2.121504  0  0  -0.571684  -0.76361  0  2.187119  0
O  O88  1  0.98802446  0.80978800  0.31415245  1  0  -0.604011  0  1.935927  0  0  -0.548293  0  2.151975  0  0  -0.573166  0  2.142084  0  0  -0.309301  -0.53119  0  2.158442  0
O  O89  1  0.01196541  0.19020381  0.68584801  1  0  -0.60404  0  1.936184  0  0  -0.548308  0  2.152225  0  0  -0.573184  0  2.142344  0  0  -0.309307  -0.531202  0  2.1587  0
