# generated using pymatgen
data_CdH9C14(N3O)2
_symmetry_space_group_name_H-M   'P 1'
_cell_length_a   9.44308232
_cell_length_b   9.86119127
_cell_length_c   17.34323854
_cell_angle_alpha   101.73118549
_cell_angle_beta   90.00001325
_cell_angle_gamma   90.00007533
_symmetry_Int_Tables_number   1
_chemical_formula_structural   CdH9C14(N3O)2
_chemical_formula_sum   'Cd4 H36 C56 N24 O8'
_cell_volume   1581.26936893
_cell_formula_units_Z   4
loop_
 _symmetry_equiv_pos_site_id
 _symmetry_equiv_pos_as_xyz
  1  'x, y, z'
loop_
 _atom_site_type_symbol
 _atom_site_label
 _atom_site_symmetry_multiplicity
 _atom_site_fract_x
 _atom_site_fract_y
 _atom_site_fract_z
 _atom_site_occupancy
 _atom_site_pbe_bader_charge
 _atom_site_pbe_bader_spin_density
 _atom_site_pbe_cm5_charge
 _atom_site_pbe_ddec_charge
 _atom_site_pbe_ddec_spin_density
 _atom_site_pbe_ddec_sum_bond_order
 _atom_site_pbe_magmom
Cd  Cd0  1  0.17026462  0.21477366  0.75015896  1  1.207418  0  0.807853  0.81285  0  2.17499  0
Cd  Cd1  1  0.67026493  0.78522479  0.74983946  1  1.207406  0  0.807847  0.812869  0  2.174996  0
Cd  Cd2  1  0.82973714  0.78522354  0.24983937  1  1.20749  0  0.80784  0.812849  0  2.175001  0
Cd  Cd3  1  0.32973682  0.21477655  0.25015938  1  1.207533  0  0.807859  0.812875  0  2.17504  0
H  H4  1  0.11277643  0.83589391  0.64085421  1  0.097794  0  0.10182  0.108977  0  1.017157  0
H  H5  1  0.10212727  0.75185162  0.49534005  1  0.071383  0  0.098526  0.093479  0  1.032453  0
H  H6  1  0.31860847  0.73587963  0.41486624  1  0.065702  0  0.106171  0.109583  0  0.989157  0
H  H7  1  0.56087805  0.90163847  0.62372976  1  0.066448  0  0.100763  0.090055  0  1.075802  0
H  H8  1  0.53705936  0.71771048  0.33953620  1  0.138755  0  0.121995  0.135971  0  1.006467  0
H  H9  1  0.91895493  0.87981473  0.44493697  1  0.163255  0  0.130188  0.083159  0  1.051131  0
H  H10  1  0.25482072  0.41651464  0.01475077  1  0.112735  0  0.103457  0.11119  0  1.015721  0
H  H11  1  0.60355874  0.47605321  0.86616204  1  0.114922  0  0.103127  0.10911  0  0.998825  0
H  H12  1  0.73776943  0.90529999  0.55535760  1  0.53533  0  0.304927  0.23932  0  1.052082  0
H  H13  1  0.61278007  0.16410965  0.85914484  1  0.097793  0  0.101816  0.10899  0  1.017126  0
H  H14  1  0.60213303  0.24814819  0.00465864  1  0.071461  0  0.098565  0.093521  0  1.03242  0
H  H15  1  0.81861322  0.26411523  0.08513302  1  0.065749  0  0.106132  0.109552  0  0.989153  0
H  H16  1  0.06087972  0.09835256  0.87626945  1  0.066391  0  0.100749  0.090104  0  1.075704  0
H  H17  1  0.03706018  0.28228923  0.16046305  1  0.138783  0  0.121981  0.135931  0  1.006466  0
H  H18  1  0.41895758  0.12018750  0.05506322  1  0.163238  0  0.130181  0.083134  0  1.051147  0
H  H19  1  0.75482081  0.58348118  0.48524860  1  0.112704  0  0.103454  0.111194  0  1.0157  0
H  H20  1  0.10355992  0.52395032  0.63383815  1  0.114919  0  0.103114  0.109089  0  0.998857  0
H  H21  1  0.23777218  0.09469747  0.94464244  1  0.535315  0  0.30494  0.23931  0  1.0521  0
H  H22  1  0.88722321  0.16410843  0.35914591  1  0.097749  0  0.101824  0.108975  0  1.017152  0
H  H23  1  0.89787130  0.24814971  0.50465937  1  0.07139  0  0.09854  0.093491  0  1.032451  0
H  H24  1  0.68139223  0.26411855  0.58513452  1  0.065696  0  0.10616  0.10958  0  0.989124  0
H  H25  1  0.43912477  0.09835658  0.37627119  1  0.066401  0  0.100762  0.090106  0  1.075753  0
H  H26  1  0.46294028  0.28229292  0.66046348  1  0.138654  0  0.121984  0.135968  0  1.00644  0
H  H27  1  0.08104576  0.12018451  0.55506277  1  0.163425  0  0.130188  0.08316  0  1.051154  0
H  H28  1  0.74517680  0.58348459  0.98524955  1  0.112784  0  0.103454  0.111158  0  1.01575  0
H  H29  1  0.39643772  0.52394600  0.13383885  1  0.114877  0  0.10311  0.109129  0  0.99879  0
H  H30  1  0.26223021  0.09469718  0.44464189  1  0.535304  0  0.304946  0.239312  0  1.052104  0
H  H31  1  0.38722169  0.83589476  0.14085555  1  0.097825  0  0.101827  0.108987  0  1.017134  0
H  H32  1  0.39786978  0.75185207  0.99534181  1  0.071441  0  0.098554  0.093494  0  1.032464  0
H  H33  1  0.18138853  0.73588708  0.91486825  1  0.065758  0  0.10615  0.109558  0  0.989091  0
H  H34  1  0.93912204  0.90164870  0.12373227  1  0.06639  0  0.100754  0.090097  0  1.07568  0
H  H35  1  0.96294793  0.71772140  0.83953810  1  0.138875  0  0.121976  0.135934  0  1.006445  0
H  H36  1  0.58104311  0.87980971  0.94493454  1  0.163253  0  0.130185  0.083153  0  1.051152  0
H  H37  1  0.24517671  0.41652016  0.51475024  1  0.112793  0  0.10345  0.111169  0  1.015706  0
H  H38  1  0.89643866  0.47605311  0.36616038  1  0.114867  0  0.103106  0.109133  0  0.998769  0
H  H39  1  0.76222534  0.90529968  0.05535762  1  0.53532  0  0.304929  0.239301  0  1.052147  0
C  C40  1  0.33887848  0.87255137  0.64096098  1  -0.007458  0  -0.009907  0.023853  0  4.031745  0
C  C41  1  0.20797945  0.83306028  0.60502665  1  -0.000844  0  -0.086713  -0.118988  0  3.956051  0
C  C42  1  0.20274382  0.78499179  0.52364615  1  -0.041199  0  -0.090172  -0.06974  0  4.028877  0
C  C43  1  0.32512863  0.77547298  0.47820214  1  -0.025843  0  -0.08072  -0.111208  0  3.934992  0
C  C44  1  0.45671494  0.81659655  0.51335493  1  0.056579  0  -0.002927  0.065432  0  4.029995  0
C  C45  1  0.46141473  0.86583755  0.59506637  1  -0.03863  0  -0.086691  -0.148188  0  3.915239  0
C  C46  1  0.34903729  0.91495007  0.72679382  1  0.928082  0  0.228611  0.275806  0  4.019326  0
C  C47  1  0.58470491  0.81106838  0.46606004  1  0.318787  0  0.088902  0.11338  0  3.994191  0
C  C48  1  0.60878493  0.76404104  0.38630783  1  0.426085  0  0.001307  -0.085677  0  3.928866  0
C  C49  1  0.80949065  0.84653819  0.43828188  1  1.022934  0  0.144437  0.154926  0  3.963547  0
C  C50  1  0.36263512  0.45213655  0.00882945  1  -0.058508  0  -0.086049  -0.098346  0  3.972385  0
C  C51  1  0.42120619  0.43930582  0.93333025  1  -0.110937  0  -0.016027  -0.025032  0  3.957842  0
C  C52  1  0.55883608  0.48809978  0.92507390  1  0.008547  0  -0.08485  -0.099793  0  3.979835  0
C  C53  1  0.34160182  0.36813534  0.86184403  1  1.550843  0  0.184054  0.549465  0  4.227699  0
C  C54  1  0.83888100  0.12744519  0.85903839  1  -0.007217  0  -0.009886  0.023961  0  4.031792  0
C  C55  1  0.70798204  0.16693820  0.89497294  1  -0.000826  0  -0.086765  -0.119106  0  3.956183  0
C  C56  1  0.70274757  0.21500565  0.97635273  1  -0.04123  0  -0.090201  -0.06977  0  4.028977  0
C  C57  1  0.82513224  0.22452290  0.02179782  1  -0.025859  0  -0.080689  -0.111181  0  3.934929  0
C  C58  1  0.95671759  0.18339703  0.98664466  1  0.05676  0  -0.002854  0.06556  0  4.029914  0
C  C59  1  0.96141622  0.13415916  0.90493303  1  -0.038806  0  -0.086706  -0.148313  0  3.915281  0
C  C60  1  0.84903865  0.08504754  0.77320567  1  0.928059  0  0.228631  0.27578  0  4.01925  0
C  C61  1  0.08470660  0.18892723  0.03393928  1  0.318575  0  0.088876  0.113361  0  3.994224  0
C  C62  1  0.10878460  0.23595668  0.11369118  1  0.426094  0  0.001276  -0.085685  0  3.928827  0
C  C63  1  0.30949229  0.15346184  0.06171802  1  1.022913  0  0.144449  0.154929  0  3.96353  0
C  C64  1  0.86263515  0.54786047  0.49116893  1  -0.058389  0  -0.086079  -0.098438  0  3.972283  0
C  C65  1  0.92120398  0.56069292  0.56666882  1  -0.11096  0  -0.016022  -0.024988  0  3.957769  0
C  C66  1  0.05883721  0.51190164  0.57492545  1  0.008466  0  -0.084861  -0.099789  0  3.979904  0
C  C67  1  0.84160292  0.63186330  0.63815559  1  1.551237  0  0.184113  0.549504  0  4.227769  0
C  C68  1  0.66112328  0.12744578  0.35903908  1  -0.007183  0  -0.009916  0.023873  0  4.031793  0
C  C69  1  0.79202125  0.16694000  0.39497322  1  -0.000807  0  -0.086709  -0.118972  0  3.956098  0
C  C70  1  0.79725688  0.21500743  0.47635417  1  -0.041201  0  -0.090205  -0.069792  0  4.028894  0
C  C71  1  0.67487207  0.22452417  0.52179791  1  -0.025849  0  -0.080701  -0.111161  0  3.934856  0
C  C72  1  0.54328576  0.18339955  0.48664557  1  0.056575  0  -0.00292  0.065409  0  4.029949  0
C  C73  1  0.53858597  0.13416062  0.40493439  1  -0.038776  0  -0.086681  -0.148209  0  3.915263  0
C  C74  1  0.65096341  0.08504914  0.27320707  1  0.927997  0  0.228592  0.275749  0  4.019278  0
C  C75  1  0.41529578  0.18892982  0.53393957  1  0.31882  0  0.088868  0.113345  0  3.994244  0
C  C76  1  0.39121471  0.23596028  0.61369159  1  0.42621  0  0.001329  -0.085674  0  3.928834  0
C  C77  1  0.19051005  0.15345898  0.56171761  1  1.02275  0  0.144424  0.154885  0  3.96361  0
C  C78  1  0.63736240  0.54786163  0.99117131  1  -0.058502  0  -0.086039  -0.098311  0  3.972288  0
C  C79  1  0.57879239  0.56069131  0.06667039  1  -0.111164  0  -0.016046  -0.025104  0  3.957814  0
C  C80  1  0.44116038  0.51189738  0.07492615  1  0.008616  0  -0.084863  -0.099842  0  3.979941  0
C  C81  1  0.65839570  0.63186180  0.13815660  1  1.551351  0  0.184118  0.549617  0  4.22758  0
C  C82  1  0.16112181  0.87255714  0.14096231  1  -0.006752  0  -0.009924  0.023882  0  4.031777  0
C  C83  1  0.29201865  0.83306410  0.10502891  1  -0.001323  0  -0.086737  -0.119027  0  3.956111  0
C  C84  1  0.29725418  0.78499564  0.02364784  1  -0.041223  0  -0.090179  -0.069715  0  4.028884  0
C  C85  1  0.17487057  0.77547939  0.97820403  1  -0.025809  0  -0.080733  -0.11123  0  3.934897  0
C  C86  1  0.04328416  0.81660425  0.01335649  1  0.0567  0  -0.002819  0.06559  0  4.029972  0
C  C87  1  0.03858342  0.86584006  0.09506728  1  -0.038805  0  -0.086694  -0.148244  0  3.9152  0
C  C88  1  0.15096204  0.91495374  0.22679547  1  0.92802  0  0.228631  0.27578  0  4.019208  0
C  C89  1  0.91529515  0.81107613  0.96606154  1  0.318618  0  0.088872  0.113273  0  3.99427  0
C  C90  1  0.89121928  0.76404877  0.88630933  1  0.425947  0  0.00126  -0.085629  0  3.928753  0
C  C91  1  0.69050840  0.84653743  0.93828057  1  1.022974  0  0.144446  0.154925  0  3.963515  0
C  C92  1  0.13736236  0.45213987  0.50882864  1  -0.058447  0  -0.086039  -0.098341  0  3.972226  0
C  C93  1  0.07878931  0.43930740  0.43332932  1  -0.111184  0  -0.016045  -0.025086  0  3.957834  0
C  C94  1  0.94115925  0.48809975  0.42507168  1  0.008562  0  -0.084817  -0.099776  0  3.979816  0
C  C95  1  0.15839566  0.36813597  0.36184300  1  1.551374  0  0.184123  0.54956  0  4.227557  0
N  N96  1  0.44445949  0.86538627  0.77220803  1  -0.72623  0  -0.242055  -0.275012  0  3.427668  0
N  N97  1  0.41405740  0.92443611  0.84773783  1  -0.118348  0  -0.090284  -0.068263  0  3.253606  0
N  N98  1  0.30564718  0.00659259  0.84823022  1  -0.175422  0  -0.085538  -0.055988  0  3.345792  0
N  N99  1  0.26189873  0.00363417  0.77357987  1  -0.716753  0  -0.239354  -0.279093  0  3.36829  0
N  N100  1  0.71409491  0.86210790  0.49689034  1  -1.295426  0  -0.371137  -0.230277  0  3.682867  0
N  N101  1  0.74887903  0.78681858  0.37014257  1  -1.243406  0  -0.372082  -0.30486  0  3.58472  0
N  N102  1  0.94445986  0.13460837  0.72778996  1  -0.726246  0  -0.242075  -0.274958  0  3.427699  0
N  N103  1  0.91405659  0.07555955  0.65225971  1  -0.118272  0  -0.090291  -0.068326  0  3.253657  0
N  N104  1  0.80564460  0.99340603  0.65176825  1  -0.17551  0  -0.085503  -0.055874  0  3.345647  0
N  N105  1  0.76189725  0.99636541  0.72641985  1  -0.716728  0  -0.239388  -0.279185  0  3.368298  0
N  N106  1  0.21409651  0.13788992  0.00310985  1  -1.295465  0  -0.371123  -0.23022  0  3.682864  0
N  N107  1  0.24888185  0.21318137  0.12985731  1  -1.243395  0  -0.372047  -0.304811  0  3.584679  0
N  N108  1  0.55554121  0.13461191  0.22779216  1  -0.726181  0  -0.242062  -0.275009  0  3.427676  0
N  N109  1  0.58594330  0.07556313  0.15226191  1  -0.11831  0  -0.090269  -0.06823  0  3.253498  0
N  N110  1  0.69435564  0.99340663  0.15177010  1  -0.175444  0  -0.085531  -0.056005  0  3.345776  0
N  N111  1  0.73810302  0.99636402  0.22642031  1  -0.716858  0  -0.239348  -0.279062  0  3.368237  0
N  N112  1  0.28590578  0.13788822  0.50310959  1  -1.2955  0  -0.371138  -0.230228  0  3.682869  0
N  N113  1  0.25111955  0.21318066  0.62985716  1  -1.243382  0  -0.372056  -0.304793  0  3.584665  0
N  N114  1  0.05554084  0.86538981  0.27221022  1  -0.726199  0  -0.242066  -0.27498  0  3.427731  0
N  N115  1  0.08594305  0.92443865  0.34773991  1  -0.118292  0  -0.090292  -0.068284  0  3.25357  0
N  N116  1  0.19435398  0.00659525  0.34823290  1  -0.175508  0  -0.085532  -0.055951  0  3.345657  0
N  N117  1  0.23810133  0.00363793  0.27358212  1  -0.716854  0  -0.239397  -0.279175  0  3.368321  0
N  N118  1  0.78590206  0.86210931  0.99688989  1  -1.295505  0  -0.371111  -0.2302  0  3.682886  0
N  N119  1  0.75112309  0.78682204  0.87014180  1  -1.24337  0  -0.372057  -0.304861  0  3.584696  0
O  O120  1  0.20753011  0.34640290  0.86936665  1  -1.145694  0  -0.34497  -0.546907  0  2.19279  0
O  O121  1  0.40717994  0.32799938  0.79762609  1  -1.180924  0  -0.336633  -0.559196  0  2.132919  0
O  O122  1  0.70752912  0.65359035  0.63063402  1  -1.146002  0  -0.344959  -0.546927  0  2.192791  0
O  O123  1  0.90718642  0.67200670  0.70236985  1  -1.180929  0  -0.336685  -0.559204  0  2.133026  0
O  O124  1  0.79246846  0.65359113  0.13063360  1  -1.14598  0  -0.344978  -0.546971  0  2.192759  0
O  O125  1  0.59281652  0.67200194  0.20237333  1  -1.180969  0  -0.336699  -0.559267  0  2.132932  0
O  O126  1  0.29246945  0.34640472  0.36936635  1  -1.145987  0  -0.344954  -0.546926  0  2.192752  0
O  O127  1  0.09281745  0.32799992  0.29762562  1  -1.180984  0  -0.336723  -0.559265  0  2.132863  0
