# generated using pymatgen
data_CdH5C5SN5O4
_symmetry_space_group_name_H-M   'P 1'
_cell_length_a   6.84968715
_cell_length_b   11.13832337
_cell_length_c   11.93318166
_cell_angle_alpha   89.99997681
_cell_angle_beta   89.99992564
_cell_angle_gamma   106.28365737
_symmetry_Int_Tables_number   1
_chemical_formula_structural   CdH5C5SN5O4
_chemical_formula_sum   'Cd4 H20 C20 S4 N20 O16'
_cell_volume   873.90888534
_cell_formula_units_Z   4
loop_
 _symmetry_equiv_pos_site_id
 _symmetry_equiv_pos_as_xyz
  1  'x, y, z'
loop_
 _atom_site_type_symbol
 _atom_site_label
 _atom_site_symmetry_multiplicity
 _atom_site_fract_x
 _atom_site_fract_y
 _atom_site_fract_z
 _atom_site_occupancy
 _atom_site_hle17_bader_spin_density
 _atom_site_hle17_ddec_charge
 _atom_site_hle17_ddec_spin_density
 _atom_site_hle17_ddec_sum_bond_order
 _atom_site_hle17_magmom
 _atom_site_hse06_10hf_bader_spin_density
 _atom_site_hse06_10hf_ddec_charge
 _atom_site_hse06_10hf_ddec_spin_density
 _atom_site_hse06_10hf_ddec_sum_bond_order
 _atom_site_hse06_10hf_magmom
 _atom_site_hse06_bader_spin_density
 _atom_site_hse06_ddec_charge
 _atom_site_hse06_ddec_spin_density
 _atom_site_hse06_ddec_sum_bond_order
 _atom_site_hse06_magmom
 _atom_site_pbe_bader_spin_density
 _atom_site_pbe_cm5_charge
 _atom_site_pbe_ddec_charge
 _atom_site_pbe_ddec_spin_density
 _atom_site_pbe_ddec_sum_bond_order
 _atom_site_pbe_magmom
Cd  Cd0  1  0.27750348  0.57131002  0.12359968  1  0  1.195171  0  1.62657  0  0  1.007138  0  2.068763  0  0  1.056855  0  2.021134  0  0  0.827771  0.971676  0  2.101542  0
Cd  Cd1  1  0.72249783  0.92869189  0.62360189  1  0  1.195185  0  1.626565  0  0  1.00719  0  2.068681  0  0  1.056905  0  2.021053  0  0  0.827757  0.971727  0  2.10146  0
Cd  Cd2  1  0.72249765  0.42869071  0.87639878  1  0  1.195166  0  1.626636  0  0  1.007139  0  2.068775  0  0  1.056862  0  2.021145  0  0  0.827746  0.971678  0  2.101552  0
Cd  Cd3  1  0.27750369  0.07130977  0.37639908  1  0  1.1952  0  1.626571  0  0  1.007171  0  2.068743  0  0  1.056893  0  2.021117  0  0  0.82778  0.971711  0  2.101523  0
H  H4  1  0.18962885  0.48623244  0.67899729  1  0  0.325559  0  0.906854  0  0  0.305003  0  0.967002  0  0  0.31445  0  0.959452  0  0  0.313323  0.298355  0  0.972368  0
H  H5  1  0.81037489  0.01376918  0.17900141  1  0  0.325556  0  0.906852  0  0  0.305008  0  0.966983  0  0  0.314457  0  0.959431  0  0  0.313303  0.298364  0  0.97234  0
H  H6  1  0.81037188  0.51376736  0.32099865  1  0  0.325532  0  0.906944  0  0  0.304994  0  0.967076  0  0  0.314435  0  0.959527  0  0  0.313309  0.298347  0  0.972432  0
H  H7  1  0.18962624  0.98623155  0.82100124  1  0  0.325534  0  0.906877  0  0  0.304982  0  0.967016  0  0  0.314431  0  0.959466  0  0  0.313298  0.298339  0  0.972374  0
H  H8  1  0.28265501  0.20013081  0.60491900  1  0  0.35116  0  0.911383  0  0  0.330503  0  0.974749  0  0  0.338775  0  0.96793  0  0  0.302982  0.324661  0  0.979571  0
H  H9  1  0.71734519  0.29986897  0.10492224  1  0  0.351183  0  0.911363  0  0  0.330525  0  0.974725  0  0  0.338796  0  0.967907  0  0  0.302982  0.324684  0  0.979547  0
H  H10  1  0.71734532  0.79986805  0.39507946  1  0  0.351184  0  0.911382  0  0  0.330516  0  0.974757  0  0  0.338787  0  0.967937  0  0  0.302983  0.324674  0  0.979578  0
H  H11  1  0.28265594  0.70013176  0.89508041  1  0  0.351179  0  0.91138  0  0  0.330525  0  0.974739  0  0  0.338796  0  0.967921  0  0  0.302998  0.324683  0  0.97956  0
H  H12  1  0.26889542  0.30426322  0.71465334  1  0  0.346111  0  0.911627  0  0  0.32567  0  0.975178  0  0  0.334124  0  0.968152  0  0  0.304142  0.319713  0  0.980116  0
H  H13  1  0.73110821  0.19573836  0.21465661  1  0  0.346091  0  0.911736  0  0  0.325628  0  0.97531  0  0  0.334082  0  0.968284  0  0  0.304145  0.319672  0  0.980248  0
H  H14  1  0.73110570  0.69573751  0.28534428  1  0  0.346116  0  0.911708  0  0  0.325651  0  0.975283  0  0  0.334104  0  0.968258  0  0  0.304155  0.319694  0  0.980222  0
H  H15  1  0.26889478  0.80426332  0.78534688  1  0  0.346105  0  0.91164  0  0  0.325665  0  0.975189  0  0  0.334117  0  0.968167  0  0  0.30414  0.319709  0  0.980128  0
H  H16  1  0.31092802  0.27714677  0.18572314  1  0  0.093139  0  0.954732  0  0  0.096039  0  1.029629  0  0  0.099374  0  1.024722  0  0  0.12752  0.093535  0  1.033186  0
H  H17  1  0.68906676  0.22285101  0.68572797  1  0  0.093206  0  0.954704  0  0  0.096186  0  1.029522  0  0  0.099519  0  1.024622  0  0  0.127563  0.093679  0  1.033088  0
H  H18  1  0.68907164  0.72285394  0.81427280  1  0  0.093163  0  0.954757  0  0  0.096074  0  1.02964  0  0  0.099407  0  1.024737  0  0  0.127538  0.093569  0  1.033199  0
H  H19  1  0.31092984  0.77714594  0.31427552  1  0  0.093155  0  0.9547  0  0  0.096057  0  1.029594  0  0  0.099392  0  1.024689  0  0  0.127528  0.093553  0  1.033152  0
H  H20  1  0.21768808  0.66566727  0.56991570  1  0  0.092136  0  0.935692  0  0  0.100219  0  0.997751  0  0  0.103041  0  0.994239  0  0  0.133326  0.098068  0  1.000278  0
H  H21  1  0.78231297  0.83433375  0.06991971  1  0  0.092114  0  0.935709  0  0  0.10017  0  0.997802  0  0  0.10299  0  0.994289  0  0  0.133299  0.098021  0  1.000326  0
H  H22  1  0.78230891  0.33433062  0.43008109  1  0  0.092164  0  0.935654  0  0  0.10023  0  0.997731  0  0  0.103049  0  0.994216  0  0  0.133344  0.098083  0  1.000257  0
H  H23  1  0.21769002  0.16566793  0.93008210  1  0  0.09214  0  0.935733  0  0  0.100216  0  0.997799  0  0  0.103039  0  0.994288  0  0  0.133306  0.098065  0  1.000327  0
C  C24  1  0.29920903  0.32683298  0.26282663  1  0  0.276334  0  3.662498  0  0  0.218367  0  3.937216  0  0  0.235563  0  3.948538  0  0  0.146424  0.207038  0  3.929196  0
C  C25  1  0.70078447  0.17316565  0.76283147  1  0  0.276311  0  3.662675  0  0  0.218268  0  3.937376  0  0  0.235458  0  3.948707  0  0  0.146362  0.206938  0  3.929354  0
C  C26  1  0.70078836  0.67316584  0.73716848  1  0  0.276327  0  3.662699  0  0  0.218342  0  3.937402  0  0  0.235536  0  3.948731  0  0  0.146368  0.207014  0  3.929379  0
C  C27  1  0.29921332  0.82683411  0.23717118  1  0  0.276317  0  3.662594  0  0  0.218347  0  3.937301  0  0  0.235542  0  3.948624  0  0  0.146391  0.207019  0  3.929278  0
C  C28  1  0.26746864  0.47178225  0.37575878  1  0  0.311633  0  3.879192  0  0  0.28114  0  4.153459  0  0  0.295811  0  4.171593  0  0  0.199834  0.271556  0  4.14105  0
C  C29  1  0.73252790  0.02821725  0.87576364  1  0  0.311593  0  3.879125  0  0  0.28104  0  4.153449  0  0  0.29571  0  4.17159  0  0  0.199776  0.271458  0  4.141042  0
C  C30  1  0.73253356  0.52821757  0.62423717  1  0  0.311602  0  3.879127  0  0  0.281057  0  4.153473  0  0  0.295727  0  4.171612  0  0  0.199775  0.271474  0  4.141063  0
C  C31  1  0.26746655  0.97178153  0.12423984  1  0  0.31155  0  3.879156  0  0  0.280998  0  4.153542  0  0  0.295667  0  4.17168  0  0  0.199774  0.271414  0  4.141135  0
C  C32  1  0.23183759  0.58185457  0.52710986  1  0  0.30857  0  3.685323  0  0  0.244569  0  3.977432  0  0  0.263077  0  3.985155  0  0  0.176749  0.232571  0  3.971804  0
C  C33  1  0.76816464  0.91814557  0.02711301  1  0  0.308562  0  3.68526  0  0  0.244594  0  3.977378  0  0  0.263098  0  3.985099  0  0  0.176783  0.232595  0  3.971753  0
C  C34  1  0.76816607  0.41814526  0.47288609  1  0  0.308518  0  3.685339  0  0  0.244546  0  3.977455  0  0  0.263053  0  3.985165  0  0  0.176743  0.232537  0  3.971831  0
C  C35  1  0.23183569  0.08185329  0.97289299  1  0  0.308445  0  3.685639  0  0  0.244458  0  3.977746  0  0  0.262967  0  3.985475  0  0  0.176769  0.232461  0  3.972119  0
C  C36  1  0.25181791  0.37008183  0.55655887  1  0  0.486555  0  3.778915  0  0  0.437422  0  4.054966  0  0  0.461029  0  4.06542  0  0  0.261656  0.421735  0  4.047641  0
C  C37  1  0.74818055  0.12991704  0.05656382  1  0  0.486622  0  3.778843  0  0  0.437561  0  4.054775  0  0  0.461161  0  4.065224  0  0  0.261729  0.421874  0  4.047454  0
C  C38  1  0.74818055  0.62991608  0.44343624  1  0  0.486676  0  3.778643  0  0  0.437585  0  4.054653  0  0  0.461187  0  4.065094  0  0  0.261725  0.421893  0  4.04733  0
C  C39  1  0.25181832  0.87008181  0.94343967  1  0  0.486643  0  3.778755  0  0  0.437518  0  4.054801  0  0  0.461129  0  4.065251  0  0  0.261687  0.421832  0  4.047479  0
C  C40  1  0.26855771  0.36459956  0.43859786  1  0  -0.057034  0  3.815464  0  0  -0.052743  0  4.063575  0  0  -0.060222  0  4.088704  0  0  0.076504  -0.048428  0  4.047043  0
C  C41  1  0.73143974  0.13539897  0.93860269  1  0  -0.05706  0  3.815384  0  0  -0.052719  0  4.06339  0  0  -0.060199  0  4.088522  0  0  0.076493  -0.048411  0  4.046869  0
C  C42  1  0.73144409  0.63539932  0.56139892  1  0  -0.057068  0  3.81535  0  0  -0.052791  0  4.063489  0  0  -0.060271  0  4.088621  0  0  0.07648  -0.048479  0  4.046961  0
C  C43  1  0.26855326  0.86459980  0.06140163  1  0  -0.057049  0  3.815477  0  0  -0.052745  0  4.063599  0  0  -0.060225  0  4.088729  0  0  0.076491  -0.048433  0  4.047073  0
S  S44  1  0.22083988  0.44182736  0.90036575  1  0  1.539223  0  5.834076  0  0  1.417208  0  6.365403  0  0  1.472002  0  6.332762  0  0  0.542027  1.379396  0  6.386719  0
S  S45  1  0.77916286  0.05817312  0.40036568  1  0  1.539269  0  5.834181  0  0  1.417268  0  6.365495  0  0  1.472059  0  6.33285  0  0  0.542029  1.37946  0  6.38681  0
S  S46  1  0.77916311  0.55817432  0.09963271  1  0  1.539185  0  5.834223  0  0  1.417196  0  6.365529  0  0  1.471988  0  6.332881  0  0  0.542011  1.379385  0  6.386844  0
S  S47  1  0.22083680  0.94182759  0.59963613  1  0  1.53919  0  5.834107  0  0  1.417186  0  6.365426  0  0  1.471976  0  6.332788  0  0  0.54198  1.379373  0  6.386745  0
N  N48  1  0.28735238  0.44593297  0.26520486  1  0  -0.471481  0  3.183611  0  0  -0.390803  0  3.468566  0  0  -0.416686  0  3.481152  0  0  -0.367537  -0.37312  0  3.459368  0
N  N49  1  0.71264259  0.05406567  0.76520889  1  0  -0.47155  0  3.183536  0  0  -0.390863  0  3.468547  0  0  -0.416745  0  3.481133  0  0  -0.36752  -0.373179  0  3.45935  0
N  N50  1  0.71264875  0.55406776  0.73479277  1  0  -0.471566  0  3.183518  0  0  -0.390844  0  3.468469  0  0  -0.416726  0  3.481055  0  0  -0.36752  -0.37316  0  3.459271  0
N  N51  1  0.28735294  0.94593220  0.23479460  1  0  -0.471518  0  3.183495  0  0  -0.390818  0  3.468481  0  0  -0.416699  0  3.481065  0  0  -0.367533  -0.373135  0  3.459285  0
N  N52  1  0.29046737  0.27372634  0.36484889  1  0  -0.426809  0  3.206279  0  0  -0.351434  0  3.485827  0  0  -0.374669  0  3.503859  0  0  -0.36364  -0.335411  0  3.473316  0
N  N53  1  0.70952734  0.22627222  0.86485286  1  0  -0.426777  0  3.206435  0  0  -0.351417  0  3.485982  0  0  -0.374652  0  3.504017  0  0  -0.363581  -0.335391  0  3.473472  0
N  N54  1  0.70953443  0.72627254  0.63514706  1  0  -0.426744  0  3.20636  0  0  -0.351363  0  3.485907  0  0  -0.374598  0  3.503943  0  0  -0.363583  -0.335339  0  3.473396  0
N  N55  1  0.29046565  0.77372655  0.13515063  1  0  -0.426779  0  3.206306  0  0  -0.351387  0  3.485825  0  0  -0.374621  0  3.503858  0  0  -0.363599  -0.335362  0  3.473314  0
N  N56  1  0.25249068  0.58233105  0.41784561  1  0  -0.40628  0  3.045353  0  0  -0.373064  0  3.333758  0  0  -0.389018  0  3.343817  0  0  -0.324823  -0.362483  0  3.326689  0
N  N57  1  0.74750759  0.91766871  0.91784864  1  0  -0.406178  0  3.045273  0  0  -0.372953  0  3.33368  0  0  -0.388908  0  3.343746  0  0  -0.324769  -0.362372  0  3.326613  0
N  N58  1  0.74751298  0.41766878  0.58215117  1  0  -0.40619  0  3.045348  0  0  -0.372975  0  3.333778  0  0  -0.38893  0  3.343842  0  0  -0.324769  -0.362393  0  3.326712  0
N  N59  1  0.25248727  0.08233101  0.08215317  1  0  -0.406092  0  3.045492  0  0  -0.37288  0  3.333923  0  0  -0.388835  0  3.343985  0  0  -0.324756  -0.362298  0  3.326851  0
N  N60  1  0.22912388  0.48232572  0.59446995  1  0  -0.399232  0  3.35187  0  0  -0.330094  0  3.591659  0  0  -0.352128  0  3.601941  0  0  -0.366614  -0.31527  0  3.584106  0
N  N61  1  0.77087594  0.01767313  0.09447242  1  0  -0.399278  0  3.351922  0  0  -0.330178  0  3.591678  0  0  -0.352213  0  3.601976  0  0  -0.366625  -0.315349  0  3.584127  0
N  N62  1  0.77087752  0.51767222  0.40552683  1  0  -0.399324  0  3.352002  0  0  -0.330203  0  3.591733  0  0  -0.352245  0  3.602061  0  0  -0.366656  -0.315361  0  3.584173  0
N  N63  1  0.22912078  0.98232755  0.90553023  1  0  -0.399246  0  3.351883  0  0  -0.330096  0  3.591648  0  0  -0.352142  0  3.601946  0  0  -0.366623  -0.315272  0  3.584097  0
N  N64  1  0.25756792  0.28290339  0.63041680  1  0  -0.607597  0  3.082752  0  0  -0.56261  0  3.312187  0  0  -0.58467  0  3.30933  0  0  -0.547414  -0.547508  0  3.313952  0
N  N65  1  0.74243487  0.21709919  0.13042089  1  0  -0.607625  0  3.082838  0  0  -0.562636  0  3.31225  0  0  -0.584695  0  3.309395  0  0  -0.547462  -0.547533  0  3.314016  0
N  N66  1  0.74243174  0.71709733  0.36957998  1  0  -0.607652  0  3.082835  0  0  -0.562634  0  3.312258  0  0  -0.584693  0  3.309403  0  0  -0.547439  -0.54753  0  3.314024  0
N  N67  1  0.25756852  0.78290343  0.86958260  1  0  -0.607629  0  3.082747  0  0  -0.562648  0  3.312184  0  0  -0.584708  0  3.309329  0  0  -0.547429  -0.547546  0  3.31395  0
O  O68  1  0.10167920  0.38665944  0.00059403  1  0  -0.72235  0  1.940245  0  0  -0.667171  0  2.202181  0  0  -0.690456  0  2.187415  0  0  -0.360211  -0.65063  0  2.21168  0
O  O69  1  0.89832274  0.11334044  0.50059539  1  0  -0.722371  0  1.940223  0  0  -0.667183  0  2.202139  0  0  -0.690472  0  2.187377  0  0  -0.360199  -0.650642  0  2.211636  0
O  O70  1  0.89832367  0.61333852  0.99940359  1  0  -0.722331  0  1.940316  0  0  -0.667136  0  2.202211  0  0  -0.690425  0  2.187451  0  0  -0.360186  -0.650594  0  2.211706  0
O  O71  1  0.10167732  0.88666120  0.49940642  1  0  -0.722362  0  1.940325  0  0  -0.667168  0  2.202205  0  0  -0.690458  0  2.187442  0  0  -0.36017  -0.650628  0  2.211705  0
O  O72  1  0.36490094  0.56638006  0.93391498  1  0  -0.754778  0  1.993039  0  0  -0.683012  0  2.252893  0  0  -0.707435  0  2.235965  0  0  -0.364086  -0.665813  0  2.264005  0
O  O73  1  0.63510248  0.93362161  0.43391488  1  0  -0.754826  0  1.993099  0  0  -0.683064  0  2.25298  0  0  -0.707482  0  2.236048  0  0  -0.36408  -0.665864  0  2.264092  0
O  O74  1  0.63509872  0.43362065  0.06608516  1  0  -0.754805  0  1.993043  0  0  -0.683044  0  2.252901  0  0  -0.707466  0  2.235972  0  0  -0.364093  -0.665845  0  2.264015  0
O  O75  1  0.36490158  0.06637916  0.56608610  1  0  -0.754809  0  1.993005  0  0  -0.683023  0  2.252851  0  0  -0.70745  0  2.235928  0  0  -0.364082  -0.66582  0  2.263962  0
O  O76  1  0.34083998  0.35904303  0.85559895  1  0  -0.742848  0  1.994552  0  0  -0.678268  0  2.254789  0  0  -0.701822  0  2.237711  0  0  -0.357092  -0.661737  0  2.266076  0
O  O77  1  0.65916182  0.14095841  0.35560061  1  0  -0.742829  0  1.994553  0  0  -0.678255  0  2.254784  0  0  -0.7018  0  2.237704  0  0  -0.357087  -0.661737  0  2.266083  0
O  O78  1  0.65916528  0.64096054  0.14439784  1  0  -0.742793  0  1.994565  0  0  -0.678225  0  2.254817  0  0  -0.701758  0  2.237721  0  0  -0.357077  -0.661706  0  2.266113  0
O  O79  1  0.34083637  0.85904229  0.64440120  1  0  -0.74286  0  1.994527  0  0  -0.678298  0  2.254791  0  0  -0.701838  0  2.237706  0  0  -0.357108  -0.661768  0  2.266078  0
O  O80  1  0.08354109  0.46339299  0.80931296  1  0  -0.737194  0  1.986879  0  0  -0.674114  0  2.244312  0  0  -0.697022  0  2.227814  0  0  -0.360855  -0.657942  0  2.255162  0
O  O81  1  0.91646016  0.03661035  0.30931280  1  0  -0.737175  0  1.98695  0  0  -0.674119  0  2.244397  0  0  -0.697034  0  2.227914  0  0  -0.360872  -0.657948  0  2.255245  0
O  O82  1  0.91645897  0.53660866  0.19068634  1  0  -0.73717  0  1.986953  0  0  -0.674115  0  2.24439  0  0  -0.697028  0  2.227911  0  0  -0.360871  -0.657941  0  2.255239  0
O  O83  1  0.08354069  0.96339317  0.69068818  1  0  -0.737117  0  1.986911  0  0  -0.674075  0  2.244381  0  0  -0.696975  0  2.227869  0  0  -0.360835  -0.657905  0  2.255233  0
