# generated using pymatgen
data_Zn2H15C9N13O2
_symmetry_space_group_name_H-M   'P 1'
_cell_length_a   10.23907547
_cell_length_b   10.14123582
_cell_length_c   21.40005422
_cell_angle_alpha   89.99994177
_cell_angle_beta   89.99972752
_cell_angle_gamma   92.88747211
_symmetry_Int_Tables_number   1
_chemical_formula_structural   Zn2H15C9N13O2
_chemical_formula_sum   'Zn8 H60 C36 N52 O8'
_cell_volume   2219.29363377
_cell_formula_units_Z   4
loop_
 _symmetry_equiv_pos_site_id
 _symmetry_equiv_pos_as_xyz
  1  'x, y, z'
loop_
 _atom_site_type_symbol
 _atom_site_label
 _atom_site_symmetry_multiplicity
 _atom_site_fract_x
 _atom_site_fract_y
 _atom_site_fract_z
 _atom_site_occupancy
 _atom_site_pbe_bader_charge
 _atom_site_pbe_bader_spin_density
 _atom_site_pbe_cm5_charge
 _atom_site_pbe_ddec_charge
 _atom_site_pbe_ddec_spin_density
 _atom_site_pbe_ddec_sum_bond_order
 _atom_site_pbe_magmom
Zn  Zn0  1  0.49299475  0.31406946  0.41825718  1  1.239968  0  0.741639  0.719278  0  2.454004  0
Zn  Zn1  1  0.50700083  0.68593355  0.91825627  1  1.23991  0  0.74167  0.719308  0  2.453969  0
Zn  Zn2  1  0.52465222  0.47911705  0.64876633  1  1.231607  0  0.728122  0.69025  0  2.452383  0
Zn  Zn3  1  0.47535107  0.52088861  0.14876811  1  1.231852  0  0.728164  0.690288  0  2.452392  0
Zn  Zn4  1  0.98061942  0.02024915  0.47521731  1  1.229795  0  0.723442  0.692399  0  2.429494  0
Zn  Zn5  1  0.01937532  0.97974878  0.97521642  1  1.229916  0  0.723467  0.692411  0  2.429423  0
Zn  Zn6  1  0.01289988  0.18452617  0.70521404  1  1.240692  0  0.741924  0.717946  0  2.455947  0
Zn  Zn7  1  0.98710083  0.81547837  0.20521545  1  1.24064  0  0.741953  0.717943  0  2.455905  0
H  H8  1  0.52195420  0.73109314  0.62567801  1  0.461213  0  0.310846  0.29962  0  0.923805  0
H  H9  1  0.47804325  0.26890866  0.12568085  1  0.461194  0  0.310868  0.299575  0  0.923833  0
H  H10  1  0.64926756  0.67392982  0.59079386  1  0.432081  0  0.30373  0.282781  0  0.931035  0
H  H11  1  0.35073415  0.32607205  0.09079602  1  0.432132  0  0.303756  0.282817  0  0.930977  0
H  H12  1  0.82463201  0.84625749  0.52850406  1  0.378418  0  0.301386  0.277748  0  0.948986  0
H  H13  1  0.17536518  0.15373963  0.02850203  1  0.378727  0  0.301355  0.277754  0  0.949114  0
H  H14  1  0.94544377  0.76693814  0.49917925  1  0.460222  0  0.30678  0.295403  0  0.937094  0
H  H15  1  0.05455463  0.23305972  0.99917819  1  0.460255  0  0.30676  0.295382  0  0.937144  0
H  H16  1  0.60602490  0.19797247  0.54948198  1  0.105554  0  0.102085  0.159943  0  1.020225  0
H  H17  1  0.39396827  0.80202658  0.04948147  1  0.105605  0  0.102093  0.159901  0  1.020258  0
H  H18  1  0.59291810  0.03981765  0.51442465  1  0.051898  0  0.095139  0.135503  0  1.052622  0
H  H19  1  0.40707657  0.96018445  0.01442590  1  0.051588  0  0.095141  0.135471  0  1.052616  0
H  H20  1  0.73473497  0.08732442  0.56041688  1  0.063702  0  0.097076  0.151831  0  1.00918  0
H  H21  1  0.26525701  0.91267263  0.06041661  1  0.063657  0  0.09709  0.151816  0  1.009202  0
H  H22  1  0.58748762  0.57028080  0.36095809  1  0.053509  0  0.100464  0.157006  0  1.004392  0
H  H23  1  0.41251429  0.42972036  0.86095659  1  0.053562  0  0.100458  0.156977  0  1.004382  0
H  H24  1  0.69612406  0.54363877  0.29822823  1  0.094205  0  0.100545  0.152531  0  1.006284  0
H  H25  1  0.30387750  0.45636256  0.79822649  1  0.094216  0  0.100561  0.152556  0  1.006252  0
H  H26  1  0.56150844  0.64697982  0.28764941  1  0.097716  0  0.097471  0.141696  0  1.030584  0
H  H27  1  0.43849626  0.35302350  0.78764835  1  0.097802  0  0.097501  0.141755  0  1.030534  0
H  H28  1  0.06144667  0.31386427  0.47507482  1  0.0968  0  0.103123  0.150048  0  1.019493  0
H  H29  1  0.93854503  0.68613170  0.97507854  1  0.096806  0  0.103125  0.150089  0  1.019412  0
H  H30  1  0.20590577  0.38404563  0.51117034  1  0.089485  0  0.102667  0.154882  0  0.982805  0
H  H31  1  0.79408046  0.61596243  0.01117275  1  0.089726  0  0.102675  0.154898  0  0.982782  0
H  H32  1  0.18753544  0.39143443  0.42878739  1  0.05914  0  0.112568  0.16697  0  0.96392  0
H  H33  1  0.81245283  0.60856167  0.92879190  1  0.104199  0  0.112575  0.166952  0  0.963958  0
H  H34  1  0.09085808  0.06893868  0.26383566  1  0.057184  0  0.09938  0.158279  0  1.008012  0
H  H35  1  0.90915035  0.93105679  0.76383559  1  0.057158  0  0.099359  0.158201  0  1.008081  0
H  H36  1  0.07326506  0.14231686  0.33853080  1  0.079661  0  0.096608  0.14201  0  1.029943  0
H  H37  1  0.92674246  0.85767546  0.83853212  1  0.079479  0  0.096601  0.14197  0  1.029908  0
H  H38  1  0.20163952  0.03266052  0.32439427  1  0.097198  0  0.099705  0.150453  0  1.009819  0
H  H39  1  0.79836428  0.96733283  0.82439303  1  0.097323  0  0.099692  0.150437  0  1.009907  0
H  H40  1  0.77371808  0.42367700  0.56432609  1  0.068823  0  0.096579  0.152573  0  1.010598  0
H  H41  1  0.22629339  0.57631997  0.06432747  1  0.068604  0  0.096558  0.152512  0  1.010642  0
H  H42  1  0.91232948  0.47458251  0.61219543  1  0.098623  0  0.097412  0.141504  0  1.023496  0
H  H43  1  0.08767988  0.52542027  0.11219621  1  0.097974  0  0.097408  0.141494  0  1.023556  0
H  H44  1  0.90734022  0.31872298  0.57499416  1  0.096237  0  0.102664  0.160599  0  1.007415  0
H  H45  1  0.09266452  0.68127793  0.07499533  1  0.096274  0  0.102683  0.160609  0  1.007395  0
H  H46  1  0.27106957  0.08482160  0.67189890  1  0.07741  0  0.104745  0.157665  0  0.996588  0
H  H47  1  0.72893430  0.91518104  0.17189944  1  0.077491  0  0.104761  0.157712  0  0.996588  0
H  H48  1  0.38589722  0.14832781  0.61534797  1  0.093128  0  0.104307  0.158263  0  0.973074  0
H  H49  1  0.61410798  0.85167103  0.11534927  1  0.092958  0  0.104295  0.158264  0  0.973094  0
H  H50  1  0.42126227  0.16726198  0.69613790  1  0.086817  0  0.106023  0.154068  0  1.017581  0
H  H51  1  0.57874119  0.83273764  0.19613976  1  0.086855  0  0.106043  0.154094  0  1.017573  0
H  H52  1  0.37589373  0.65089636  0.54946671  1  0.067698  0  0.124211  0.092493  0  0.94148  0
H  H53  1  0.62411096  0.34909870  0.04947151  1  0.067416  0  0.124221  0.092626  0  0.941486  0
H  H54  1  0.50245081  0.85328222  0.51208998  1  0.030181  0  0.086243  0.119041  0  1.043873  0
H  H55  1  0.49754691  0.14672185  0.01208956  1  0.030158  0  0.08624  0.118987  0  1.043835  0
H  H56  1  0.62320030  0.75235834  0.47837453  1  0.05481  0  0.086008  0.117009  0  1.015236  0
H  H57  1  0.37679982  0.24764944  0.97837834  1  0.054927  0  0.086022  0.11701  0  1.015204  0
H  H58  1  0.46127505  0.74633341  0.44910750  1  0.096009  0  0.107139  0.160684  0  0.975162  0
H  H59  1  0.53872900  0.25366949  0.94911187  1  0.096062  0  0.107084  0.16061  0  0.975285  0
H  H60  1  0.92487851  0.78792175  0.62181587  1  0.063804  0  0.113135  0.072912  0  0.944766  0
H  H61  1  0.07512006  0.21208203  0.12181497  1  0.063809  0  0.113142  0.072935  0  0.94469  0
H  H62  1  0.16830534  0.79766575  0.63099754  1  0.098428  0  0.100804  0.145925  0  0.988043  0
H  H63  1  0.83169308  0.20233702  0.13099774  1  0.098409  0  0.10077  0.14588  0  0.988108  0
H  H64  1  0.11386764  0.68624002  0.57199264  1  0.052156  0  0.090062  0.124288  0  1.008089  0
H  H65  1  0.88612824  0.31375896  0.07199173  1  0.052178  0  0.090073  0.124288  0  1.008093  0
H  H66  1  0.18289425  0.84549265  0.55059632  1  0.054083  0  0.087872  0.120004  0  1.049813  0
H  H67  1  0.81710298  0.15450934  0.05059517  1  0.054018  0  0.087853  0.119973  0  1.049787  0
C  C68  1  0.72784694  0.17604070  0.47054140  1  0.988924  0  0.230371  0.384754  0  3.983454  0
C  C69  1  0.27214784  0.82395724  0.97054282  1  0.989388  0  0.230284  0.384675  0  3.983516  0
C  C70  1  0.66220435  0.12144898  0.52731050  1  -0.037534  0  -0.237843  -0.4755  0  3.926462  0
C  C71  1  0.33778700  0.87854816  0.02731241  1  -0.03768  0  -0.23783  -0.475336  0  3.926564  0
C  C72  1  0.50866709  0.44162216  0.29036260  1  0.99434  0  0.230762  0.392391  0  3.967785  0
C  C73  1  0.49133167  0.55838019  0.79036132  1  0.994256  0  0.230819  0.392489  0  3.967609  0
C  C74  1  0.59334293  0.55702709  0.31026289  1  -0.041482  0  -0.2346  -0.47578  0  3.935131  0
C  C75  1  0.40665846  0.44297322  0.81026139  1  -0.041587  0  -0.234639  -0.475852  0  3.935016  0
C  C76  1  0.23005636  0.20144581  0.46445178  1  1.00695  0  0.233362  0.379114  0  3.981187  0
C  C77  1  0.76993756  0.79855314  0.96445256  1  1.006657  0  0.233312  0.378982  0  3.981257  0
C  C78  1  0.16738769  0.32971559  0.47013779  1  -0.053903  0  -0.224373  -0.460492  0  3.91937  0
C  C79  1  0.83260525  0.67028433  0.97013989  1  -0.099206  0  -0.224407  -0.460514  0  3.919335  0
C  C80  1  0.01051782  0.93966791  0.33376620  1  0.989591  0  0.231914  0.394286  0  3.964417  0
C  C81  1  0.98948676  0.06032344  0.83376451  1  0.989832  0  0.231861  0.394159  0  3.964482  0
C  C82  1  0.09928505  0.05222322  0.31418459  1  -0.018895  0  -0.236641  -0.478624  0  3.939028  0
C  C83  1  0.90071582  0.94776820  0.81418360  1  -0.018911  0  -0.236596  -0.478463  0  3.938917  0
C  C84  1  0.78050234  0.33007490  0.65295112  1  0.986978  0  0.232015  0.384794  0  3.980856  0
C  C85  1  0.21949771  0.66992583  0.15295200  1  0.986955  0  0.23205  0.384825  0  3.980815  0
C  C86  1  0.84671237  0.39104685  0.59763715  1  -0.086402  0  -0.236557  -0.475182  0  3.926388  0
C  C87  1  0.15329117  0.60895401  0.09763774  1  -0.085538  0  -0.236571  -0.475113  0  3.926508  0
C  C88  1  0.27782909  0.29394014  0.66103532  1  0.998198  0  0.233005  0.378148  0  3.982763  0
C  C89  1  0.72217674  0.70606055  0.16103505  1  0.998203  0  0.233045  0.378139  0  3.982588  0
C  C90  1  0.34225656  0.16606987  0.66135070  1  -0.049594  0  -0.225733  -0.459646  0  3.904974  0
C  C91  1  0.65775024  0.83393082  0.16135191  1  -0.049471  0  -0.225794  -0.459757  0  3.905002  0
C  C92  1  0.49698425  0.50825781  0.51054895  1  1.585089  0  0.20786  0.552423  0  4.154901  0
C  C93  1  0.50302587  0.49174029  0.01054928  1  1.58415  0  0.207916  0.552573  0  4.154741  0
C  C94  1  0.48061031  0.64660689  0.53795728  1  0.295397  0  0.000991  0.094775  0  3.858333  0
C  C95  1  0.51939562  0.35339116  0.03796091  1  0.295173  0  0.000991  0.094413  0  3.858706  0
C  C96  1  0.51961043  0.75625763  0.49190592  1  -0.099975  0  -0.24323  -0.416809  0  3.928788  0
C  C97  1  0.48038934  0.24374617  0.99190763  1  -0.100021  0  -0.243188  -0.416584  0  3.928957  0
C  C98  1  0.99442388  0.98906073  0.61341249  1  1.575406  0  0.210239  0.560645  0  4.146907  0
C  C99  1  0.00557185  0.01094308  0.11341419  1  1.575395  0  0.210198  0.560617  0  4.146763  0
C  C100  1  0.98544053  0.84681165  0.58839251  1  0.286357  0  0.000367  0.098419  0  3.863599  0
C  C101  1  0.01455529  0.15318926  0.08839271  1  0.286363  0  0.000411  0.098523  0  3.863424  0
C  C102  1  0.12129054  0.79110759  0.58502575  1  -0.098232  0  -0.242732  -0.408181  0  3.904756  0
C  C103  1  0.87870629  0.20889333  0.08502584  1  -0.098236  0  -0.242723  -0.408142  0  3.90473  0
N  N104  1  0.84974322  0.15431596  0.45161047  1  -0.808922  0  -0.254735  -0.288573  0  3.496455  0
N  N105  1  0.15025273  0.84568203  0.95161029  1  -0.808971  0  -0.254673  -0.288516  0  3.496478  0
N  N106  1  0.87024869  0.22335098  0.39740496  1  -0.105547  0  -0.091111  -0.071243  0  3.250796  0
N  N107  1  0.12974971  0.77664615  0.89740580  1  -0.105815  0  -0.091154  -0.071283  0  3.250879  0
N  N108  1  0.76552586  0.28424758  0.38386771  1  -0.076764  0  -0.093689  -0.066489  0  3.211489  0
N  N109  1  0.23447371  0.71575057  0.88386928  1  -0.07667  0  -0.093629  -0.066393  0  3.21152  0
N  N110  1  0.67421561  0.25628787  0.42889014  1  -0.803185  0  -0.253529  -0.280447  0  3.511528  0
N  N111  1  0.32578361  0.74371214  0.92889148  1  -0.803014  0  -0.253586  -0.28058  0  3.511555  0
N  N112  1  0.46237462  0.34307367  0.32757052  1  -0.795451  0  -0.254161  -0.278903  0  3.512722  0
N  N113  1  0.53762648  0.65692462  0.82757049  1  -0.795393  0  -0.254264  -0.279098  0  3.512967  0
N  N114  1  0.39158660  0.25565110  0.29143660  1  -0.07625  0  -0.100507  -0.068676  0  3.238896  0
N  N115  1  0.60841210  0.74435026  0.79143684  1  -0.076144  0  -0.100433  -0.068487  0  3.238981  0
N  N116  1  0.39404603  0.29937816  0.23423019  1  -0.142892  0  -0.121043  -0.120966  0  3.280379  0
N  N117  1  0.60595433  0.70062532  0.73422952  1  -0.142978  0  -0.121065  -0.12106  0  3.280453  0
N  N118  1  0.46640559  0.41577460  0.23218336  1  -0.812677  0  -0.253696  -0.294719  0  3.485222  0
N  N119  1  0.53359669  0.58422789  0.73218291  1  -0.812657  0  -0.253644  -0.294653  0  3.485153  0
N  N120  1  0.35702072  0.18568510  0.45218952  1  -0.816782  0  -0.251837  -0.282114  0  3.516947  0
N  N121  1  0.64297543  0.81431683  0.95218731  1  -0.816373  0  -0.25176  -0.282032  0  3.516922  0
N  N122  1  0.37529607  0.05386250  0.45286570  1  -0.076726  0  -0.09013  -0.073602  0  3.25327  0
N  N123  1  0.62470013  0.94614042  0.95286393  1  -0.076634  0  -0.090109  -0.07349  0  3.253237  0
N  N124  1  0.26399772  0.99145828  0.46466697  1  -0.115587  0  -0.096046  -0.082162  0  3.247953  0
N  N125  1  0.73599826  0.00854264  0.96466541  1  -0.116029  0  -0.09607  -0.082296  0  3.248111  0
N  N126  1  0.17099271  0.08146114  0.47200653  1  -0.805357  0  -0.248131  -0.26931  0  3.494073  0
N  N127  1  0.82900319  0.91853975  0.97200571  1  -0.805182  0  -0.248138  -0.269228  0  3.494144  0
N  N128  1  0.95925007  0.84419881  0.29610776  1  -0.799887  0  -0.253807  -0.27813  0  3.511666  0
N  N129  1  0.04074919  0.15579562  0.79610818  1  -0.799911  0  -0.253782  -0.278117  0  3.511492  0
N  N130  1  0.88544683  0.75878871  0.33197787  1  -0.108741  0  -0.100357  -0.070982  0  3.239144  0
N  N131  1  0.11455136  0.24121057  0.83197761  1  -0.10867  0  -0.10037  -0.070968  0  3.238907  0
N  N132  1  0.89088170  0.80078168  0.38945481  1  -0.131897  0  -0.117598  -0.116294  0  3.283969  0
N  N133  1  0.10911585  0.19921647  0.88945505  1  -0.132277  0  -0.117542  -0.11625  0  3.283834  0
N  N134  1  0.96827732  0.91387745  0.39198927  1  -0.791128  0  -0.252306  -0.292815  0  3.47541  0
N  N135  1  0.03172010  0.08611872  0.89198787  1  -0.790964  0  -0.252338  -0.292789  0  3.475393  0
N  N136  1  0.83328239  0.24659868  0.69344303  1  -0.799926  0  -0.25203  -0.279389  0  3.505836  0
N  N137  1  0.16671920  0.75340194  0.19344259  1  -0.799938  0  -0.252042  -0.279411  0  3.505835  0
N  N138  1  0.74046696  0.21344417  0.73702574  1  -0.075403  0  -0.091579  -0.064692  0  3.212233  0
N  N139  1  0.25953435  0.78655930  0.23702461  1  -0.075398  0  -0.091582  -0.064654  0  3.212286  0
N  N140  1  0.63555514  0.27433158  0.72382027  1  -0.109631  0  -0.088048  -0.071343  0  3.267257  0
N  N141  1  0.36444620  0.72566995  0.22381987  1  -0.10968  0  -0.088035  -0.071381  0  3.267299  0
N  N142  1  0.65752122  0.34833048  0.67127784  1  -0.792864  0  -0.25467  -0.280577  0  3.497557  0
N  N143  1  0.34247957  0.65166921  0.17127845  1  -0.79288  0  -0.254714  -0.280582  0  3.497581  0
N  N144  1  0.15037288  0.31073161  0.67125179  1  -0.806421  0  -0.249877  -0.2768  0  3.517244  0
N  N145  1  0.84963376  0.68926806  0.17125217  1  -0.806485  0  -0.249835  -0.276699  0  3.517023  0
N  N146  1  0.13120994  0.44202713  0.66563263  1  -0.112518  0  -0.092245  -0.073505  0  3.245483  0
N  N147  1  0.86879475  0.55797158  0.16563537  1  -0.112432  0  -0.092318  -0.073633  0  3.24549  0
N  N148  1  0.24259069  0.50306411  0.65267131  1  -0.085818  0  -0.098833  -0.091228  0  3.251994  0
N  N149  1  0.75741409  0.49693365  0.15267480  1  -0.086023  0  -0.098827  -0.091198  0  3.251766  0
N  N150  1  0.33642011  0.41284716  0.64968058  1  -0.821489  0  -0.25346  -0.277029  0  3.507938  0
N  N151  1  0.66358572  0.58715158  0.14968237  1  -0.821357  0  -0.253486  -0.277007  0  3.507765  0
N  N152  1  0.55136449  0.65552047  0.59822620  1  -1.161042  0  -0.613044  -0.569444  0  3.404297  0
N  N153  1  0.44863611  0.34448040  0.09822906  1  -1.161004  0  -0.613067  -0.569347  0  3.404306  0
N  N154  1  0.92431304  0.84710741  0.52570862  1  -1.1161  0  -0.612737  -0.575165  0  3.401748  0
N  N155  1  0.07568331  0.15289169  0.02570869  1  -1.116488  0  -0.612675  -0.575218  0  3.401907  0
O  O156  1  0.53957398  0.41909773  0.54498716  1  -1.189454  0  -0.3127  -0.55685  0  2.296114  0
O  O157  1  0.46044300  0.58090717  0.04499314  1  -1.188202  0  -0.312783  -0.557036  0  2.296107  0
O  O158  1  0.46365795  0.49280809  0.45331970  1  -1.175788  0  -0.31791  -0.516962  0  2.331497  0
O  O159  1  0.53634405  0.50719382  0.95332162  1  -1.175933  0  -0.317912  -0.516916  0  2.331446  0
O  O160  1  0.97359180  0.08364690  0.57711330  1  -1.183565  0  -0.311435  -0.548448  0  2.285394  0
O  O161  1  0.02640593  0.91635108  0.07711450  1  -1.18345  0  -0.311475  -0.5485  0  2.285243  0
O  O162  1  0.02440252  0.00126492  0.67123379  1  -1.181606  0  -0.319858  -0.526298  0  2.328933  0
O  O163  1  0.97559663  0.99874070  0.17123466  1  -1.181695  0  -0.319818  -0.526287  0  2.328891  0
