# generated using pymatgen
data_ZrP3H20C9(NO3)3
_symmetry_space_group_name_H-M   'P 1'
_cell_length_a   9.71056465
_cell_length_b   11.90645131
_cell_length_c   12.47493666
_cell_angle_alpha   112.54473763
_cell_angle_beta   108.85133868
_cell_angle_gamma   104.84072714
_symmetry_Int_Tables_number   1
_chemical_formula_structural   ZrP3H20C9(NO3)3
_chemical_formula_sum   'Zr2 P6 H40 C18 N6 O18'
_cell_volume   1135.26540921
_cell_formula_units_Z   2
loop_
 _symmetry_equiv_pos_site_id
 _symmetry_equiv_pos_as_xyz
  1  'x, y, z'
loop_
 _atom_site_type_symbol
 _atom_site_label
 _atom_site_symmetry_multiplicity
 _atom_site_fract_x
 _atom_site_fract_y
 _atom_site_fract_z
 _atom_site_occupancy
 _atom_site_pbe_bader_charge
 _atom_site_pbe_bader_spin_density
 _atom_site_pbe_cm5_charge
 _atom_site_pbe_ddec_charge
 _atom_site_pbe_ddec_spin_density
 _atom_site_pbe_ddec_sum_bond_order
 _atom_site_pbe_magmom
Zr  Zr0  1  0.99995954  0.99993402  0.99991155  1  2.674333  0  1.722275  2.365614  0  2.991535  0
Zr  Zr1  1  0.50005996  0.99999477  0.00009030  1  2.692875  0  1.69914  2.432741  0  2.949911  0
P  P2  1  0.62630325  0.74353394  0.87618042  1  3.175865  0  0.343142  1.340387  0  5.297821  0
P  P3  1  0.90700612  0.13796628  0.24417846  1  3.135591  0  0.400408  1.354491  0  5.151538  0
P  P4  1  0.73796586  0.10792237  0.86879563  1  3.110263  0  0.400147  1.352177  0  5.143118  0
P  P5  1  0.37362516  0.25636044  0.12373934  1  3.17682  0  0.343311  1.34039  0  5.298385  0
P  P6  1  0.09315619  0.86208394  0.75585156  1  3.135564  0  0.400708  1.355214  0  5.15009  0
P  P7  1  0.26196181  0.89205706  0.13123236  1  3.110416  0  0.400097  1.352341  0  5.142995  0
H  H8  1  0.76487568  0.82124551  0.10643660  1  0.046271  0  0.108832  0.12728  0  1.003464  0
H  H9  1  0.54265879  0.44177727  0.84356186  1  0.059676  0  0.087751  0.060539  0  1.000582  0
H  H10  1  0.48132048  0.71415780  0.06944235  1  0.039737  0  0.09796  0.0746  0  1.007656  0
H  H11  1  0.26292719  0.50484087  0.02537153  1  0.009674  0  0.099768  0.077931  0  0.97783  0
H  H12  1  0.61654395  0.42446790  0.09488508  1  0.051335  0  0.092546  0.063629  0  0.995226  0
H  H13  1  0.17335659  0.29140480  0.98394338  1  0.072234  0  0.115068  0.136091  0  0.987689  0
H  H14  1  0.31227021  0.73290448  0.15839450  1  0.632645  0  0.346334  0.403486  0  0.874251  0
H  H15  1  0.97544735  0.31437286  0.19913717  1  0.103588  0  0.124288  0.154135  0  0.97123  0
H  H16  1  0.07977238  0.38268061  0.55668786  1  -0.038613  0  0.080631  0.019655  0  1.032371  0
H  H17  1  0.78583131  0.38275801  0.27349475  1  0.102646  0  0.112476  0.103725  0  0.970172  0
H  H18  1  0.75302531  0.53185885  0.45833422  1  0.104844  0  0.117453  0.123611  0  0.955507  0
H  H19  1  0.20541500  0.67114296  0.61122425  1  -0.004028  0  0.088941  0.052289  0  0.998471  0
H  H20  1  0.85066482  0.67323651  0.68339854  1  0.113882  0  0.132808  0.167347  0  0.954596  0
H  H21  1  0.60700974  0.87512856  0.70365792  1  0.117609  0  0.128122  0.158987  0  0.973958  0
H  H22  1  0.71460648  0.16444473  0.62687395  1  0.026433  0  0.087967  0.055473  0  1.011518  0
H  H23  1  0.36942958  0.90735248  0.60411876  1  0.048809  0  0.106982  0.089718  0  0.974456  0
H  H24  1  0.21955113  0.96178299  0.43644909  1  0.029396  0  0.109834  0.098048  0  0.95367  0
H  H25  1  0.54604736  0.91902945  0.34838395  1  0.02268  0  0.086142  0.042116  0  1.002507  0
H  H26  1  0.21377770  0.03862760  0.29453969  1  0.106633  0  0.124467  0.151714  0  0.993955  0
H  H27  1  0.04600984  0.79668166  0.55238491  1  0.607378  0  0.33435  0.387791  0  0.905591  0
H  H28  1  0.23508727  0.17865415  0.89350202  1  0.054776  0  0.108884  0.127549  0  1.00316  0
H  H29  1  0.45727062  0.55819460  0.15637387  1  0.059428  0  0.087721  0.060249  0  1.000822  0
H  H30  1  0.51862741  0.28578515  0.93047308  1  0.040094  0  0.097982  0.074643  0  1.007768  0
H  H31  1  0.73701890  0.49508617  0.97449977  1  0.01005  0  0.099752  0.078034  0  0.977887  0
H  H32  1  0.38347792  0.57546773  0.90502715  1  0.051378  0  0.092461  0.063688  0  0.995257  0
H  H33  1  0.82666958  0.70860817  0.01602001  1  0.071909  0  0.115102  0.136204  0  0.987705  0
H  H34  1  0.68770786  0.26712664  0.84166721  1  0.631982  0  0.346489  0.403562  0  0.874492  0
H  H35  1  0.02458662  0.68569017  0.80089992  1  0.103322  0  0.124304  0.154135  0  0.971205  0
H  H36  1  0.92025982  0.61736415  0.44337156  1  -0.037089  0  0.080491  0.019455  0  1.032565  0
H  H37  1  0.21416117  0.61727939  0.72655104  1  0.102368  0  0.112486  0.103887  0  0.970088  0
H  H38  1  0.24698294  0.46820588  0.54171517  1  0.104634  0  0.117335  0.123652  0  0.955649  0
H  H39  1  0.79456210  0.32889631  0.38881787  1  -0.003431  0  0.08891  0.052301  0  0.998436  0
H  H40  1  0.14939634  0.32692442  0.31665229  1  0.114247  0  0.132938  0.167377  0  0.954536  0
H  H41  1  0.39293335  0.12483442  0.29626960  1  0.117037  0  0.128142  0.159018  0  0.973842  0
H  H42  1  0.28537943  0.83562589  0.37316285  1  0.026855  0  0.087974  0.055439  0  1.011671  0
H  H43  1  0.63057109  0.09273036  0.39592129  1  0.062662  0  0.107066  0.089714  0  0.974184  0
H  H44  1  0.78045120  0.03829685  0.56358780  1  0.028809  0  0.109957  0.098056  0  0.953808  0
H  H45  1  0.45395860  0.08104746  0.65164386  1  0.022507  0  0.08617  0.042027  0  1.00248  0
H  H46  1  0.78622847  0.96144527  0.70548904  1  0.09088  0  0.124489  0.151828  0  0.993928  0
H  H47  1  0.95419258  0.20331058  0.44763489  1  0.606837  0  0.334481  0.387983  0  0.905294  0
C  C48  1  0.71987729  0.72303188  0.01811702  1  -0.04309  0  -0.07553  -0.377226  0  3.960811  0
C  C49  1  0.61283106  0.48371796  0.95109397  1  0.285119  0  -0.072322  -0.090088  0  3.97907  0
C  C50  1  0.46478853  0.61095890  0.00922988  1  0.269672  0  -0.071185  -0.085895  0  3.960082  0
C  C51  1  0.02412862  0.31264324  0.29116918  1  -0.072062  0  -0.058531  -0.396295  0  3.971983  0
C  C52  1  0.12607612  0.45766355  0.52874201  1  0.322932  0  -0.061462  -0.077288  0  3.951877  0
C  C53  1  0.86018451  0.40909443  0.37468516  1  0.305467  0  -0.065563  -0.075745  0  3.938132  0
C  C54  1  0.67446875  0.96602903  0.70526446  1  -0.028067  0  -0.062144  -0.396786  0  3.967178  0
C  C55  1  0.67315091  0.05588714  0.55806585  1  0.348672  0  -0.067376  -0.085381  0  3.961053  0
C  C56  1  0.43223845  0.97823557  0.58067935  1  0.294898  0  -0.064076  -0.071979  0  3.962549  0
C  C57  1  0.28011550  0.27689525  0.98182452  1  -0.052417  0  -0.075298  -0.377357  0  3.961293  0
C  C58  1  0.38711803  0.51619171  0.04883159  1  0.285929  0  -0.072135  -0.08954  0  3.978917  0
C  C59  1  0.53518030  0.38896802  0.99070841  1  0.268311  0  -0.071265  -0.086011  0  3.961286  0
C  C60  1  0.97590214  0.68741775  0.70886638  1  -0.071389  0  -0.058742  -0.396535  0  3.971552  0
C  C61  1  0.87391909  0.54236687  0.47129455  1  0.321625  0  -0.061433  -0.076943  0  3.951763  0
C  C62  1  0.13979673  0.59093782  0.62535847  1  0.306337  0  -0.065636  -0.076021  0  3.938369  0
C  C63  1  0.32548729  0.03397410  0.29471496  1  -0.043591  0  -0.062134  -0.396668  0  3.966974  0
C  C64  1  0.32684275  0.94419171  0.44195261  1  0.344986  0  -0.067187  -0.08519  0  3.961394  0
C  C65  1  0.56774410  0.02183612  0.41933863  1  0.276708  0  -0.063908  -0.071884  0  3.961934  0
N  N66  1  0.62324304  0.61658112  0.02839505  1  -1.044341  0  -0.342602  -0.089666  0  3.548844  0
N  N67  1  0.02066510  0.41951886  0.39499748  1  -1.082875  0  -0.337531  -0.089575  0  3.592152  0
N  N68  1  0.58143330  0.96808527  0.59049905  1  -1.072424  0  -0.338286  -0.079576  0  3.581326  0
N  N69  1  0.37677531  0.38335508  0.97159517  1  -1.044311  0  -0.342908  -0.089544  0  3.550439  0
N  N70  1  0.97930873  0.58049220  0.60504040  1  -1.082905  0  -0.337411  -0.089638  0  3.592493  0
N  N71  1  0.41855332  0.03199050  0.40951581  1  -1.072946  0  -0.338237  -0.079526  0  3.581044  0
O  O72  1  0.54175620  0.83738714  0.91892309  1  -1.420944  0  -0.48137  -0.885317  0  2.308519  0
O  O73  1  0.51845503  0.61529881  0.74789864  1  -1.460889  0  -0.391412  -0.736085  0  1.991599  0
O  O74  1  0.77906719  0.83951516  0.88204629  1  -1.425423  0  -0.477434  -0.874216  0  2.304134  0
O  O75  1  0.72627534  0.09594131  0.17016568  1  -1.445318  0  -0.433449  -0.853057  0  2.332504  0
O  O76  1  0.94711370  0.12713928  0.37413044  1  -1.347061  0  -0.375547  -0.612441  0  2.149543  0
O  O77  1  0.96380299  0.04325908  0.16650491  1  -1.448357  0  -0.428544  -0.821547  0  2.312406  0
O  O78  1  0.60506861  0.08791841  0.90936480  1  -1.459751  0  -0.432348  -0.853691  0  2.324401  0
O  O79  1  0.77923287  0.24498599  0.86436877  1  -1.361883  0  -0.372615  -0.618201  0  2.162932  0
O  O80  1  0.89901433  0.12879697  0.96753597  1  -1.452043  0  -0.428285  -0.825494  0  2.299019  0
O  O81  1  0.45817153  0.16247318  0.08115201  1  -1.420914  0  -0.481463  -0.88514  0  2.30916  0
O  O82  1  0.48140914  0.38459389  0.25202879  1  -1.46163  0  -0.39164  -0.736346  0  1.991918  0
O  O83  1  0.22082147  0.16027291  0.11770929  1  -1.424815  0  -0.47757  -0.873729  0  2.304676  0
O  O84  1  0.27386425  0.90412724  0.82997666  1  -1.444984  0  -0.433651  -0.853331  0  2.332364  0
O  O85  1  0.05319416  0.87291032  0.62590435  1  -1.348668  0  -0.375447  -0.612413  0  2.149202  0
O  O86  1  0.03624384  0.95677244  0.83341659  1  -1.447976  0  -0.428438  -0.821634  0  2.312169  0
O  O87  1  0.39492073  0.91206530  0.09073208  1  -1.458802  0  -0.432595  -0.853903  0  2.324428  0
O  O88  1  0.22074382  0.75504790  0.13573857  1  -1.362654  0  -0.372157  -0.617874  0  2.16298  0
O  O89  1  0.10090761  0.87111117  0.03243802  1  -1.451936  0  -0.428213  -0.825547  0  2.298776  0
