# generated using pymatgen
data_CuH12C16(ClO3)2
_symmetry_space_group_name_H-M   'P 1'
_cell_length_a   5.04338528
_cell_length_b   11.51246573
_cell_length_c   29.10780000
_cell_angle_alpha   99.04476611
_cell_angle_beta   90.00000000
_cell_angle_gamma   90.00000000
_symmetry_Int_Tables_number   1
_chemical_formula_structural   CuH12C16(ClO3)2
_chemical_formula_sum   'Cu4 H48 C64 Cl8 O24'
_cell_volume   1669.03685841
_cell_formula_units_Z   4
loop_
 _symmetry_equiv_pos_site_id
 _symmetry_equiv_pos_as_xyz
  1  'x, y, z'
loop_
 _atom_site_type_symbol
 _atom_site_label
 _atom_site_symmetry_multiplicity
 _atom_site_fract_x
 _atom_site_fract_y
 _atom_site_fract_z
 _atom_site_occupancy
 _atom_site_hle17_ddec_charge
 _atom_site_hle17_ddec_spin_density
 _atom_site_hle17_ddec_sum_bond_order
 _atom_site_hle17_magmom
 _atom_site_hse06_10hf_ddec_charge
 _atom_site_hse06_10hf_ddec_spin_density
 _atom_site_hse06_10hf_ddec_sum_bond_order
 _atom_site_hse06_10hf_magmom
 _atom_site_hse06_ddec_charge
 _atom_site_hse06_ddec_spin_density
 _atom_site_hse06_ddec_sum_bond_order
 _atom_site_hse06_magmom
 _atom_site_pbe_bader_charge
 _atom_site_pbe_bader_spin_density
 _atom_site_pbe_cm5_charge
 _atom_site_pbe_ddec_charge
 _atom_site_pbe_ddec_spin_density
 _atom_site_pbe_ddec_sum_bond_order
 _atom_site_pbe_magmom
Cu  Cu0  1  0.71355841  0.00921076  0.02282549  1  0.873886  0.588679  1.846255  0.429  0.88078  0.765954  2.244493  0.605  0.986393  0.872491  2.161217  0.716  1.062097  0.490195  0.671602  0.811121  0.627808  2.306312  0.487
Cu  Cu1  1  0.21355695  0.49078935  0.47717572  1  0.873804  0.588664  1.846276  0.429  0.88072  0.765946  2.244522  0.605  0.986326  0.872473  2.161217  0.716  1.062148  0.490187  0.671581  0.810969  0.627783  2.306363  0.487
Cu  Cu2  1  0.28641080  0.99079297  0.97717749  1  0.873887  -0.588666  1.846176  -0.429  0.880806  -0.765945  2.244372  -0.605  0.986251  -0.872479  2.161336  -0.716  1.063709  -0.490162  0.671544  0.811033  -0.627672  2.306241  -0.487
Cu  Cu3  1  0.78641226  0.50920734  0.52282339  1  0.873941  -0.588655  1.846107  -0.429  0.880869  -0.765945  2.244314  -0.605  0.986349  -0.872489  2.161245  -0.716  1.063711  -0.490112  0.671621  0.811153  -0.62763  2.306146  -0.487
H  H4  1  0.02013727  0.53913702  0.17576994  1  0.102809  -9e-06  0.951187  0.0  0.114575  -7e-06  1.011253  0.0  0.116902  -4e-06  1.010464  0.0  0.064848  4e-06  0.101603  0.112859  1e-06  1.01202  0.0
H  H5  1  0.52013476  0.96086770  0.32423258  1  0.102784  -8e-06  0.951163  0.0  0.11459  -7e-06  1.0112  0.0  0.116899  -4e-06  1.010431  0.0  0.064865  3e-06  0.101596  0.112879  1e-06  1.011974  0.0
H  H6  1  0.97985375  0.46085967  0.82423088  1  0.102757  9e-06  0.951137  0.0  0.114564  7e-06  1.011177  0.0  0.11687  4e-06  1.010413  0.0  0.064554  1e-06  0.101611  0.112856  1e-06  1.011946  0.0
H  H7  1  0.47986816  0.03913867  0.67576610  1  0.102881  9e-06  0.95108  0.0  0.114643  7e-06  1.011155  0.0  0.116953  4e-06  1.010386  0.0  0.064756  5e-06  0.101628  0.112929  3e-06  1.01193  0.0
H  H8  1  0.71756961  0.41433357  0.21551932  1  0.08649  1.5e-05  0.983281  0.0  0.089639  -5e-06  1.058956  0.0  0.092811  -4e-06  1.057731  0.0  0.077812  1.4e-05  0.087252  0.087307  2e-06  1.059882  0.0
H  H9  1  0.21757013  0.08567005  0.28448314  1  0.086542  1.5e-05  0.983206  0.0  0.089695  -5e-06  1.058876  0.0  0.092869  -4e-06  1.057651  0.0  0.077902  1.4e-05  0.087283  0.087369  2e-06  1.059801  0.0
H  H10  1  0.28241150  0.58566840  0.78448286  1  0.086503  -1.5e-05  0.983263  0.0  0.089676  5e-06  1.058907  0.0  0.092844  4e-06  1.057689  0.0  0.077918  -9e-06  0.087287  0.087354  1e-06  1.059823  0.0
H  H11  1  0.78242287  0.91432840  0.71551402  1  0.086513  -1.5e-05  0.983145  0.0  0.089673  5e-06  1.058822  0.0  0.092833  4e-06  1.057613  0.0  0.078031  -9e-06  0.087256  0.08734  1e-06  1.05975  0.0
H  H12  1  0.36648003  0.29576885  0.16987925  1  0.093875  5e-06  0.965699  0.0  0.097201  -1e-06  1.038441  0.0  0.100564  -0.0  1.035961  0.0  0.062335  1.5e-05  0.092994  0.094816  9e-06  1.040164  0.0
H  H13  1  0.86646959  0.20422950  0.33012185  1  0.093876  6e-06  0.965777  0.0  0.097199  -1e-06  1.038516  0.0  0.100561  -0.0  1.036037  0.0  0.062739  1.3e-05  0.092997  0.094823  7e-06  1.040239  0.0
H  H14  1  0.63351892  0.70422608  0.83011974  1  0.093879  -5e-06  0.965704  0.0  0.097205  1e-06  1.038453  0.0  0.10054  0.0  1.036  0.0  0.062415  -1e-05  0.092999  0.094829  -6e-06  1.040175  0.0
H  H15  1  0.13352738  0.79577160  0.66987719  1  0.093869  -5e-06  0.965744  0.0  0.097184  1e-06  1.038496  0.0  0.100535  0.0  1.036031  0.0  0.062421  -7e-06  0.092997  0.094809  -4e-06  1.040219  0.0
H  H16  1  0.32264638  0.29722276  0.08555517  1  0.111266  -2.6e-05  0.945676  0.0  0.123046  -3.2e-05  1.001653  0.0  0.124665  -2.5e-05  1.002151  0.0  0.088976  -5.4e-05  0.105118  0.122501  -2.6e-05  1.000638  0.0
H  H17  1  0.82262603  0.20277734  0.41444604  1  0.111285  -2.6e-05  0.94565  0.0  0.123029  -3.2e-05  1.001653  0.0  0.124651  -2.5e-05  1.002144  0.0  0.088851  -5.6e-05  0.105101  0.122497  -2.7e-05  1.000632  0.0
H  H18  1  0.67737042  0.70276513  0.91444339  1  0.11118  2.7e-05  0.945972  0.0  0.123021  3.2e-05  1.001862  0.0  0.124622  2.5e-05  1.002384  0.0  0.089086  5.8e-05  0.105076  0.122491  2.8e-05  1.000842  0.0
H  H19  1  0.17738482  0.79723167  0.58555349  1  0.111218  2.6e-05  0.945699  0.0  0.122981  3.2e-05  1.001686  0.0  0.124586  2.5e-05  1.002201  0.0  0.088909  6.3e-05  0.105066  0.122452  3e-05  1.000663  0.0
H  H20  1  0.47122119  0.37934379  0.97299582  1  0.110503  0.000225  0.931278  0.0  0.117749  0.000173  0.99656  0.0  0.120379  0.000111  0.994536  0.0  0.122838  0.000325  0.116104  0.115398  0.000183  0.998479  0.0
H  H21  1  0.97122066  0.12065720  0.52700579  1  0.110479  0.000226  0.931295  0.0  0.117729  0.000174  0.996565  0.0  0.120359  0.000111  0.994546  0.0  0.122915  0.000331  0.116114  0.115379  0.000186  0.998486  0.0
H  H22  1  0.52881346  0.62066082  0.02700447  1  0.110381  -0.000225  0.931274  0.0  0.117634  -0.000174  0.99661  0.0  0.120266  -0.000111  0.994585  0.0  0.123154  -0.000323  0.116011  0.115308  -0.000181  0.998516  0.0
H  H23  1  0.02879613  0.87933422  0.47299231  1  0.110441  -0.000227  0.93124  0.0  0.117719  -0.000173  0.996561  0.0  0.120349  -0.000111  0.99454  0.0  0.12288  -0.000322  0.116096  0.115377  -0.000181  0.998482  0.0
H  H24  1  0.25193990  0.37579476  0.02010405  1  0.10376  0.000811  0.924063  0.001  0.106635  0.000655  0.997656  0.001  0.109196  0.000444  0.994988  0.001  0.12322  0.00131  0.110998  0.104613  0.000696  0.999807  0.001
H  H25  1  0.75192947  0.12420622  0.47989962  1  0.103702  0.000812  0.924117  0.001  0.106574  0.000655  0.997723  0.001  0.109152  0.000444  0.995021  0.001  0.123128  0.001311  0.110995  0.104549  0.000697  0.99988  0.001
H  H26  1  0.74808681  0.62421776  0.97989467  1  0.103742  -0.000812  0.923883  -0.001  0.106625  -0.000655  0.997489  -0.001  0.109188  -0.000444  0.994826  -0.001  0.123101  -0.001308  0.110962  0.1046  -0.000695  0.999644  -0.001
H  H27  1  0.24808931  0.87578783  0.52009898  1  0.10374  -0.000813  0.923931  -0.001  0.106651  -0.000655  0.997542  -0.001  0.10921  -0.000444  0.994877  -0.001  0.122948  -0.001304  0.111036  0.104626  -0.000693  0.999692  -0.001
H  H28  1  0.89957633  0.92072281  0.25173740  1  0.104102  -7e-06  0.956547  0.0  0.115477  -1e-06  1.018241  0.0  0.117861  -1e-06  1.017744  0.0  0.08386  1.9e-05  0.101743  0.113755  8e-06  1.018685  0.0
H  H29  1  0.39959073  0.57925992  0.24826411  1  0.103975  -6e-06  0.956667  0.0  0.115406  -1e-06  1.018288  0.0  0.117776  -1e-06  1.017792  0.0  0.083701  1.9e-05  0.101754  0.113672  8e-06  1.018771  0.0
H  H30  1  0.10042461  0.07926157  0.74826060  1  0.104122  9e-06  0.956479  0.0  0.115512  1e-06  1.018164  0.0  0.117891  1e-06  1.017668  0.0  0.083654  -1.2e-05  0.101783  0.113792  -5e-06  1.018608  0.0
H  H31  1  0.60040426  0.42074997  0.75173651  1  0.104034  1e-05  0.956472  0.0  0.115449  1e-06  1.018129  0.0  0.117818  1e-06  1.017631  0.0  0.083612  -1.3e-05  0.101781  0.113713  -5e-06  1.018608  0.0
H  H32  1  0.80383309  0.71286600  0.21763638  1  0.087543  2e-05  0.967837  0.0  0.098846  1e-06  1.029886  0.0  0.101017  0.0  1.030457  0.0  0.081448  1.8e-05  0.095426  0.097236  9e-06  1.029587  0.0
H  H33  1  0.30386931  0.78712112  0.28236333  1  0.087528  1.9e-05  0.967831  0.0  0.098837  1e-06  1.02988  0.0  0.101007  0.0  1.030453  0.0  0.081921  1.7e-05  0.095435  0.097221  9e-06  1.029579  0.0
H  H34  1  0.19615594  0.28712189  0.78236149  1  0.087585  -2.1e-05  0.967738  0.0  0.09884  -1e-06  1.029837  0.0  0.101012  -0.0  1.030407  0.0  0.081536  -1.2e-05  0.09544  0.097229  -6e-06  1.029546  0.0
H  H35  1  0.69611775  0.21288613  0.71763849  1  0.087593  -2.2e-05  0.967802  0.0  0.0989  -1e-06  1.02983  0.0  0.101069  -0.0  1.030404  0.0  0.082034  -1.1e-05  0.095481  0.097284  -5e-06  1.029531  0.0
H  H36  1  0.45636212  0.66950720  0.15571957  1  0.084575  1.1e-05  0.972663  0.0  0.090359  2e-06  1.043024  0.0  0.093161  0.0  1.041951  0.0  0.107545  2.1e-05  0.091868  0.088261  1.2e-05  1.04393  0.0
H  H37  1  0.95638341  0.83049048  0.34427736  1  0.084538  1.1e-05  0.972718  0.0  0.090326  2e-06  1.043074  0.0  0.093135  0.0  1.041999  0.0  0.107545  2.1e-05  0.091929  0.088277  1.1e-05  1.04394  0.0
H  H38  1  0.54363683  0.33048861  0.84427742  1  0.084481  -9e-06  0.972644  0.0  0.09029  -2e-06  1.042998  0.0  0.093096  -0.0  1.041924  0.0  0.107529  -1.7e-05  0.091875  0.088219  -9e-06  1.043884  0.0
H  H39  1  0.04360167  0.16951061  0.65572408  1  0.084469  -8e-06  0.972678  0.0  0.090306  -2e-06  1.043002  0.0  0.093113  -1e-06  1.041929  0.0  0.107642  -1.2e-05  0.091926  0.088248  -6e-06  1.043877  0.0
H  H40  1  0.20259210  0.83021869  0.13038583  1  0.106353  -9e-06  0.962771  0.0  0.11369  -1.5e-05  1.027054  0.0  0.116382  -1.2e-05  1.026388  0.0  0.085533  -1e-06  0.100526  0.112189  -8e-06  1.027012  0.0
H  H41  1  0.70259157  0.66978514  0.36961217  1  0.106342  -9e-06  0.962643  0.0  0.113681  -1.5e-05  1.026926  0.0  0.116374  -1.2e-05  1.026257  0.0  0.08545  -3e-06  0.100502  0.11219  -9e-06  1.026872  0.0
H  H42  1  0.79741875  0.16977712  0.86960979  1  0.106358  7e-06  0.962661  0.0  0.113683  1.5e-05  1.026962  0.0  0.116375  1.2e-05  1.026293  0.0  0.085431  4e-06  0.100525  0.11219  9e-06  1.026914  0.0
H  H43  1  0.29740738  0.33021419  0.63038985  1  0.106321  7e-06  0.962625  0.0  0.113646  1.5e-05  1.026939  0.0  0.11634  1.2e-05  1.026268  0.0  0.085519  1.1e-05  0.10046  0.112157  1.4e-05  1.026891  0.0
H  H44  1  0.96260145  0.97709910  0.12523115  1  0.110194  0.000384  0.915093  0.001  0.119375  0.000371  0.977461  0.0  0.121289  0.00024  0.97649  0.0  0.094471  0.000775  0.11897  0.117901  0.000392  0.97841  0.0
H  H45  1  0.46260396  0.52290737  0.37477114  1  0.110178  0.000382  0.91512  0.001  0.119358  0.000371  0.977493  0.0  0.121275  0.000241  0.976519  0.0  0.094426  0.000772  0.118963  0.117885  0.00039  0.978436  0.0
H  H46  1  0.03737767  0.02290375  0.87477349  1  0.110224  -0.000383  0.915373  -0.001  0.119428  -0.000371  0.977594  0.0  0.121346  -0.000241  0.976614  0.0  0.094442  -0.000774  0.118983  0.11796  -0.000391  0.978533  0.0
H  H47  1  0.53739103  0.47710075  0.62522593  1  0.110153  -0.000382  0.915425  -0.001  0.119384  -0.000371  0.977632  0.0  0.1213  -0.000241  0.976657  0.0  0.094382  -0.000768  0.118966  0.117911  -0.000388  0.978575  0.0
H  H48  1  0.99248812  0.13063669  0.12759158  1  0.125769  0.000206  0.882816  0.0  0.141726  0.000256  0.932648  0.0  0.143767  0.000177  0.931901  0.0  0.128337  0.000497  0.129407  0.139917  0.000269  0.933637  0.0
H  H49  1  0.49248072  0.36936869  0.37241167  1  0.125775  0.000204  0.882776  0.0  0.141735  0.000256  0.932611  0.0  0.143782  0.000177  0.931859  0.0  0.128362  0.000493  0.129337  0.13992  0.000267  0.933603  0.0
H  H50  1  0.00750686  0.86936440  0.87241570  1  0.125788  -0.000205  0.88284  0.0  0.14168  -0.000256  0.932686  0.0  0.143726  -0.000177  0.931934  0.0  0.128556  -0.000495  0.129322  0.13987  -0.000268  0.933675  0.0
H  H51  1  0.50751030  0.63063943  0.62758643  1  0.125801  -0.000204  0.882893  0.0  0.141714  -0.000256  0.932721  0.0  0.143754  -0.000177  0.931973  0.0  0.128493  -0.000487  0.12939  0.139898  -0.000264  0.933713  0.0
C  C52  1  0.64996422  0.41687199  0.08226755  1  0.208542  0.000967  3.813359  0.001  0.187921  0.000378  4.087724  0.0  0.198713  0.000167  4.104279  0.0  0.499374  0.000611  0.073607  0.181103  0.000466  4.075131  0.001
C  C53  1  0.14994690  0.08312548  0.41773384  1  0.208431  0.00097  3.813523  0.001  0.187739  0.000379  4.087965  0.0  0.198505  0.000167  4.104527  0.0  0.499606  0.000612  0.073562  0.180932  0.000467  4.075374  0.001
C  C54  1  0.35004861  0.58311679  0.91773278  1  0.208464  -0.000977  3.813527  -0.001  0.187742  -0.000379  4.08804  0.0  0.198512  -0.000167  4.104594  0.0  0.499476  -0.00061  0.07351  0.180923  -0.000466  4.075465  -0.001
C  C55  1  0.85006791  0.91687913  0.58226404  1  0.208383  -0.000979  3.813705  -0.001  0.187656  -0.000379  4.08824  0.0  0.19842  -0.000167  4.104801  0.0  0.499386  -0.000602  0.073477  0.180847  -0.000461  4.075654  -0.001
C  C56  1  0.84100059  0.48733092  0.10879785  1  0.022982  -0.000811  3.780361  -0.001  0.027216  -6.8e-05  4.053532  0.0  0.025529  -1e-05  4.075299  0.0  0.005381  -0.000269  -0.003507  0.028591  -0.000192  4.038234  0.0
C  C57  1  0.34099318  0.01266919  0.39120370  1  0.022975  -0.000817  3.780344  -0.001  0.02727  -6.9e-05  4.053484  0.0  0.025595  -1.1e-05  4.075235  0.0  0.005045  -0.00027  -0.003456  0.028641  -0.000192  4.038205  0.0
C  C58  1  0.15900629  0.51266313  0.89120143  1  0.022883  0.000824  3.780386  0.001  0.027139  6.9e-05  4.053602  0.0  0.025465  1.1e-05  4.075352  0.0  0.005315  0.000269  -0.003571  0.028513  0.000191  4.038329  0.0
C  C59  1  0.65902163  0.98733630  0.60879527  1  0.023041  0.000823  3.780181  0.001  0.027289  6.9e-05  4.053436  0.0  0.025611  1.1e-05  4.075196  0.0  0.005083  0.000277  -0.00345  0.028663  0.000195  4.038155  0.0
C  C60  1  0.86640614  0.48593418  0.15637383  1  -0.119749  0.000381  3.798755  0.0  -0.137366  -1.8e-05  4.047559  0.0  -0.138119  -3.4e-05  4.070343  0.0  0.033515  6.1e-05  -0.099346  -0.136931  3.1e-05  4.031901  0.0
C  C61  1  0.36639675  0.01406857  0.34362823  1  -0.11989  0.000389  3.798696  0.0  -0.137555  -1.7e-05  4.047522  0.0  -0.138301  -3.4e-05  4.07031  0.0  0.033573  5.8e-05  -0.09949  -0.137123  2.9e-05  4.031891  0.0
C  C62  1  0.13360074  0.51406339  0.84362739  1  -0.119651  -0.000404  3.798829  0.0  -0.1373  1.7e-05  4.047633  0.0  -0.138041  3.4e-05  4.070423  0.0  0.033835  -5.6e-05  -0.099315  -0.136864  -2.9e-05  4.03199  0.0
C  C63  1  0.63361608  0.98593780  0.65637045  1  -0.119866  -0.000398  3.798552  0.0  -0.137466  1.7e-05  4.047388  0.0  -0.13821  3.4e-05  4.070174  0.0  0.033436  -4.6e-05  -0.099355  -0.137033  -2.2e-05  4.031756  0.0
C  C64  1  0.69616335  0.41658789  0.17845228  1  -0.092587  -0.000721  3.801863  -0.001  -0.115687  9e-06  4.067816  0.0  -0.120966  4.5e-05  4.091359  0.0  -0.043308  -0.000177  -0.109473  -0.111378  -0.000122  4.050975  0.0
C  C65  1  0.19615396  0.08341486  0.32155012  1  -0.092506  -0.000733  3.801766  -0.001  -0.115599  9e-06  4.067717  0.0  -0.120889  4.5e-05  4.091266  0.0  -0.043772  -0.000176  -0.109435  -0.111298  -0.000121  4.050908  0.0
C  C66  1  0.30383758  0.58340969  0.82154894  1  -0.09263  0.000742  3.801902  0.001  -0.115737  -1e-05  4.067846  0.0  -0.121015  -4.5e-05  4.091383  0.0  -0.043795  0.000182  -0.109515  -0.111411  0.000125  4.051007  0.0
C  C67  1  0.80385689  0.91658887  0.67844770  1  -0.09264  0.000734  3.801706  0.001  -0.115734  -1e-05  4.067647  0.0  -0.121009  -4.5e-05  4.091195  0.0  -0.043428  0.000185  -0.10954  -0.111427  0.000126  4.050843  0.0
C  C68  1  0.50024931  0.34966918  0.15276667  1  -0.045222  5.1e-05  3.779003  0.0  -0.065498  -1.1e-05  4.047209  0.0  -0.064427  -2.7e-05  4.067847  0.0  0.060641  2.3e-05  -0.097745  -0.065825  2.3e-05  4.032135  0.0
C  C69  1  0.00023199  0.15033268  0.34723533  1  -0.045299  6e-05  3.779035  0.0  -0.065567  -1.2e-05  4.047225  0.0  -0.064496  -2.7e-05  4.06786  0.0  0.060713  1.8e-05  -0.097716  -0.065897  2e-05  4.032166  0.0
C  C70  1  0.49975956  0.65032751  0.84723312  1  -0.045236  -7e-05  3.778915  0.0  -0.065516  1.2e-05  4.047149  0.0  -0.064422  2.7e-05  4.067794  0.0  0.060902  -2e-05  -0.097729  -0.065843  -2.1e-05  4.032085  0.0
C  C71  1  0.99977291  0.84966929  0.65276376  1  -0.045322  -6.3e-05  3.778973  0.0  -0.065586  1.1e-05  4.047167  0.0  -0.064504  2.7e-05  4.067794  0.0  0.060871  -1e-05  -0.097747  -0.065919  -1.5e-05  4.032106  0.0
C  C72  1  0.47686620  0.34973779  0.10506517  1  -0.173484  -0.00064  3.755461  -0.001  -0.20146  -0.000218  4.022394  0.0  -0.207791  -9.7e-05  4.045008  0.0  -0.086774  -0.000535  -0.111309  -0.196299  -0.000326  4.005174  0.0
C  C73  1  0.97684982  0.15026320  0.39493644  1  -0.173411  -0.000648  3.755391  -0.001  -0.201338  -0.000219  4.022369  0.0  -0.207661  -9.7e-05  4.044967  0.0  -0.086588  -0.00054  -0.111278  -0.19617  -0.000329  4.005138  0.0
C  C74  1  0.52315059  0.65025714  0.89493520  1  -0.17332  0.000652  3.755551  0.001  -0.201326  0.000219  4.022522  0.0  -0.207633  9.7e-05  4.045113  0.0  -0.08668  0.000537  -0.111183  -0.196168  0.000327  4.005318  0.0
C  C75  1  0.02316698  0.84974229  0.60506253  1  -0.173288  0.00065  3.755352  0.001  -0.201196  0.000219  4.022327  0.0  -0.207506  9.7e-05  4.044923  0.0  -0.08648  0.000547  -0.111211  -0.196038  0.000333  4.005121  0.0
C  C76  1  0.45435950  0.35350231  0.00753128  1  -0.064308  0.001181  3.622842  0.002  -0.121752  0.001061  3.884334  0.001  -0.12132  0.000766  3.885  0.001  0.430977  0.001549  -0.063614  -0.121392  0.001071  3.884205  0.001
C  C77  1  0.95435302  0.14650308  0.49247163  1  -0.064234  0.001178  3.622985  0.001  -0.121711  0.001061  3.884462  0.001  -0.121291  0.000766  3.885115  0.001  0.430875  0.001555  -0.063657  -0.121355  0.001074  3.884364  0.001
C  C78  1  0.54566523  0.64650406  0.99246877  1  -0.063953  -0.001183  3.622595  -0.002  -0.12153  -0.001063  3.884149  -0.001  -0.121119  -0.000767  3.884813  -0.001  0.430786  -0.001558  -0.063523  -0.121177  -0.001076  3.88401  -0.001
C  C79  1  0.04566377  0.85349801  0.50752741  1  -0.064073  -0.001174  3.622498  -0.001  -0.121757  -0.001063  3.884233  -0.001  -0.121338  -0.000767  3.884856  -0.001  0.431113  -0.001549  -0.06372  -0.121387  -0.00107  3.884119  -0.001
C  C80  1  0.48804520  0.22017065  0.00241315  1  0.647213  -0.000325  3.847901  0.0  0.613584  -0.000258  4.143187  0.0  0.65402  -0.000158  4.136719  0.0  1.548885  -0.000408  0.208901  0.585915  -0.000314  4.149169  0.0
C  C81  1  0.98803675  0.27983122  0.49758817  1  0.647116  -0.000325  3.848125  0.0  0.61361  -0.000258  4.143261  0.0  0.654042  -0.000158  4.136801  0.0  1.549169  -0.000406  0.208958  0.585924  -0.000312  4.149268  0.0
C  C82  1  0.51194185  0.77983484  0.99758719  1  0.646982  0.000327  3.848259  0.0  0.613572  0.000259  4.143314  0.0  0.654006  0.000159  4.136854  0.0  1.548809  0.000408  0.209022  0.585906  0.000314  4.149304  0.0
C  C83  1  0.01195625  0.72016723  0.50241139  1  0.647045  0.000323  3.847786  0.0  0.613673  0.000258  4.142808  0.0  0.654124  0.000158  4.136317  0.0  1.548874  0.000407  0.209029  0.585982  0.000313  4.148822  0.0
C  C84  1  0.40449815  0.96818036  0.17666439  1  0.216551  0.000531  3.797197  0.001  0.19894  0.000327  4.064824  0.0  0.208922  0.000193  4.081628  0.0  0.479208  0.000356  0.078275  0.192493  0.000348  4.05254  0.0
C  C85  1  0.90449564  0.53181556  0.32333621  1  0.216586  0.000522  3.797216  0.001  0.199035  0.000327  4.064771  0.0  0.209014  0.000192  4.081571  0.0  0.479197  0.000354  0.078367  0.192603  0.000346  4.052487  0.0
C  C86  1  0.59550675  0.03181457  0.82333598  1  0.216649  -0.000547  3.797006  -0.001  0.199004  -0.000326  4.06469  0.0  0.208981  -0.000193  4.081492  0.0  0.479134  -0.000352  0.078346  0.19256  -0.000345  4.052405  0.0
C  C87  1  0.09550530  0.46818641  0.67666322  1  0.21646  -0.000581  3.797267  -0.001  0.198909  -0.000326  4.06492  0.0  0.208888  -0.000193  4.081724  0.0  0.47925  -0.000347  0.078338  0.192466  -0.000342  4.052631  0.0
C  C88  1  0.60549806  0.99175961  0.21055306  1  0.028486  -0.000697  3.770782  -0.001  0.035375  -3.4e-05  4.040424  0.0  0.034478  2.1e-05  4.061221  0.0  0.020016  -0.000263  -0.001184  0.036127  -0.000165  4.026012  0.0
C  C89  1  0.10550453  0.50823191  0.28944865  1  0.028571  -0.000684  3.770664  -0.001  0.03536  -3.5e-05  4.040442  0.0  0.034474  2.1e-05  4.061219  0.0  0.019296  -0.000263  -0.001247  0.036118  -0.000165  4.026032  0.0
C  C90  1  0.39450882  0.00823356  0.78944686  1  0.028539  0.000707  3.770563  0.001  0.035409  3.4e-05  4.040262  0.0  0.034525  -2.1e-05  4.06104  0.0  0.019137  0.000264  -0.001263  0.036164  0.000164  4.02585  0.0
C  C91  1  0.89450235  0.49177182  0.71055193  1  0.028549  0.000745  3.770479  0.001  0.035321  3.4e-05  4.040308  0.0  0.034432  -2.1e-05  4.061089  0.0  0.019049  0.000266  -0.001298  0.036076  0.000165  4.025896  0.0
C  C92  1  0.74603065  0.90008041  0.22537954  1  -0.123303  0.000417  3.788316  0.0  -0.144488  3.8e-05  4.039018  0.0  -0.144823  4e-06  4.059861  0.0  0.007986  0.000154  -0.10174  -0.144294  9.3e-05  4.024805  0.0
C  C93  1  0.24605100  0.59990936  0.27462206  1  -0.123181  0.000405  3.788158  0.0  -0.144374  3.9e-05  4.038941  0.0  -0.144691  4e-06  4.059764  0.0  0.008518  0.00015  -0.101752  -0.144181  9e-05  4.024711  0.0
C  C94  1  0.25397425  0.09990925  0.77461844  1  -0.12336  -0.000429  3.788245  0.0  -0.144543  -3.8e-05  4.038951  0.0  -0.144877  -5e-06  4.059787  0.0  0.008577  -0.000143  -0.101736  -0.144343  -8.7e-05  4.02473  0.0
C  C95  1  0.75394795  0.40009789  0.72537977  1  -0.123115  -0.000474  3.788079  0.0  -0.144291  -3.8e-05  4.038864  0.0  -0.144606  -5e-06  4.059686  0.0  0.008683  -0.00014  -0.10173  -0.144103  -8.5e-05  4.024652  0.0
C  C96  1  0.69182301  0.78372074  0.20597817  1  -0.079549  -0.000731  3.790068  -0.001  -0.096853  -8.3e-05  4.044871  0.0  -0.100881  -3e-06  4.067392  0.0  -0.050448  -0.000379  -0.102552  -0.093664  -0.000252  4.029033  0.0
C  C97  1  0.19184535  0.71626814  0.29402234  1  -0.079513  -0.00072  3.789905  -0.001  -0.096827  -8.4e-05  4.044736  0.0  -0.100858  -3e-06  4.067257  0.0  -0.050978  -0.000376  -0.102512  -0.093607  -0.00025  4.028919  0.0
C  C98  1  0.30817594  0.21626628  0.79401931  1  -0.079532  0.000749  3.789884  0.001  -0.096805  8.3e-05  4.044723  0.0  -0.100835  3e-06  4.067242  0.0  -0.050439  0.000383  -0.102524  -0.093608  0.000254  4.028894  0.0
C  C99  1  0.80815162  0.28374086  0.70598062  1  -0.079673  0.000793  3.790157  0.001  -0.096977  8.3e-05  4.044978  0.0  -0.101008  3e-06  4.067497  0.0  -0.051102  0.000385  -0.102608  -0.093775  0.000255  4.029168  0.0
C  C100  1  0.49772719  0.75987146  0.17162953  1  -0.053625  -5e-05  3.78905  0.0  -0.071217  -4.2e-05  4.048229  0.0  -0.070083  -2.5e-05  4.068149  0.0  -0.059783  -5.4e-05  -0.099355  -0.071661  -3.7e-05  4.03396  0.0
C  C101  1  0.99774253  0.74012094  0.32836913  1  -0.053631  -6.2e-05  3.78921  0.0  -0.071237  -4.2e-05  4.048424  0.0  -0.070107  -2.5e-05  4.068351  0.0  -0.059225  -5.6e-05  -0.099415  -0.07171  -3.9e-05  4.034134  0.0
C  C102  1  0.50227374  0.24011819  0.82836707  1  -0.053584  2.9e-05  3.789095  0.0  -0.0712  4.3e-05  4.048276  0.0  -0.070067  2.5e-05  4.0682  0.0  -0.059496  5.8e-05  -0.099354  -0.071663  3.9e-05  4.034002  0.0
C  C103  1  0.00224254  0.25988455  0.67163258  1  -0.053641  -1.5e-05  3.789224  0.0  -0.071288  4.3e-05  4.048424  0.0  -0.070159  2.5e-05  4.068352  0.0  -0.058368  6.9e-05  -0.099455  -0.071758  4.6e-05  4.034143  0.0
C  C104  1  0.35438102  0.85121819  0.15701909  1  -0.181633  -0.000277  3.759819  0.0  -0.206599  -9.3e-05  4.021975  0.0  -0.212789  -3.9e-05  4.043656  0.0  -0.020429  -0.000291  -0.110533  -0.201585  -0.000183  4.005693  0.0
C  C105  1  0.85439041  0.64877948  0.34298025  1  -0.181627  -0.000266  3.759673  0.0  -0.2066  -9.3e-05  4.021822  0.0  -0.21279  -3.9e-05  4.043502  0.0  -0.020901  -0.000295  -0.110487  -0.201576  -0.000185  4.005542  0.0
C  C106  1  0.64562785  0.14877586  0.84297882  1  -0.181585  0.000295  3.759691  0.0  -0.206539  9.3e-05  4.021879  0.0  -0.212727  3.9e-05  4.043556  0.0  -0.020672  0.000295  -0.110532  -0.201522  0.000184  4.005601  0.0
C  C107  1  0.14560855  0.35122161  0.65702085  1  -0.181459  0.000338  3.759682  0.0  -0.206431  9.2e-05  4.021863  0.0  -0.21262  3.9e-05  4.043544  0.0  -0.021842  0.000305  -0.110414  -0.201412  0.00019  4.00558  0.0
C  C108  1  0.10728905  0.04894049  0.12593580  1  -0.065183  0.002405  3.610703  0.003  -0.1222  0.001863  3.867782  0.002  -0.122527  0.001391  3.869128  0.002  0.449464  0.002449  -0.05479  -0.121473  0.001679  3.867159  0.002
C  C109  1  0.60728456  0.45106401  0.37406740  1  -0.065197  0.00242  3.610872  0.003  -0.122248  0.001863  3.867948  0.002  -0.122574  0.001391  3.869284  0.002  0.449671  0.002445  -0.05478  -0.12152  0.001676  3.867318  0.002
C  C110  1  0.89269999  0.95105972  0.87407109  1  -0.065567  -0.002411  3.611487  -0.003  -0.12229  -0.001863  3.868171  -0.002  -0.122609  -0.001391  3.869495  -0.002  0.449381  -0.002454  -0.054787  -0.121575  -0.001681  3.867544  -0.002
C  C111  1  0.39270646  0.54894236  0.62592956  1  -0.065451  -0.002418  3.611437  -0.003  -0.122242  -0.001864  3.868142  -0.002  -0.12256  -0.00139  3.869474  -0.002  0.449719  -0.002443  -0.054807  -0.12153  -0.001673  3.867517  -0.002
C  C112  1  0.26711622  0.03065180  0.08065070  1  0.671566  -0.002789  3.805204  -0.004  0.638303  -0.001583  4.096117  -0.003  0.680354  -0.001636  4.086254  -0.003  1.520696  -0.001972  0.223467  0.60911  -0.001321  4.103497  -0.002
C  C113  1  0.76711371  0.46935183  0.41935141  1  0.671505  -0.002792  3.8053  -0.004  0.638261  -0.001583  4.096211  -0.003  0.680307  -0.001635  4.086338  -0.003  1.520648  -0.001972  0.22348  0.60905  -0.001321  4.103599  -0.002
C  C114  1  0.73286092  0.96935281  0.91935508  1  0.671731  0.002789  3.805099  0.004  0.638147  0.001585  4.096368  0.003  0.680194  0.001635  4.086487  0.003  1.521209  0.00197  0.22336  0.60895  0.001319  4.103747  0.002
C  C115  1  0.23286740  0.53065014  0.58064528  1  0.671516  0.002792  3.805189  0.004  0.638065  0.001584  4.096264  0.003  0.680109  0.001636  4.086387  0.003  1.521224  0.001976  0.223329  0.608864  0.001323  4.103651  0.002
Cl  Cl116  1  0.04124809  0.57859409  0.08169037  1  -0.057635  0.000336  1.370108  0.0  -0.040088  0.000318  1.60228  0.0  -0.043803  0.00015  1.597355  0.0  -0.221354  0.00064  0.02214  -0.036326  0.000425  1.60534  0.001
Cl  Cl117  1  0.54123963  0.92140710  0.41831125  1  -0.057596  0.000336  1.37013  0.0  -0.040072  0.000318  1.602294  0.0  -0.043797  0.00015  1.597366  0.0  -0.221276  0.000641  0.022163  -0.036277  0.000427  1.605355  0.001
Cl  Cl118  1  0.95877664  0.42139205  0.91830980  1  -0.05766  -0.000336  1.369956  0.0  -0.040105  -0.000318  1.602107  0.0  -0.043825  -0.00015  1.597177  0.0  -0.221368  -0.000628  0.022153  -0.036297  -0.000421  1.605164  -0.001
Cl  Cl119  1  0.45878113  0.07860366  0.58168770  1  -0.05764  -0.000338  1.369994  0.0  -0.040068  -0.000318  1.602138  0.0  -0.043792  -0.00015  1.597213  0.0  -0.221318  -0.000603  0.022164  -0.036259  -0.000407  1.605193  -0.001
Cl  Cl120  1  0.68135187  0.13615769  0.23284557  1  -0.058755  -0.000224  1.412961  0.0  -0.044771  -3.9e-05  1.663018  0.0  -0.047482  -4e-06  1.657849  0.0  -0.197318  -5.6e-05  0.022037  -0.042445  -6.8e-05  1.666485  0.0
Cl  Cl121  1  0.18134248  0.36383274  0.26715641  1  -0.058755  -0.000225  1.412899  0.0  -0.044804  -3.9e-05  1.663065  0.0  -0.047521  -3e-06  1.657889  0.0  -0.196796  -5.9e-05  0.022069  -0.042449  -7e-05  1.666524  0.0
Cl  Cl122  1  0.31865700  0.86383021  0.76715471  1  -0.058805  0.000225  1.412704  0.0  -0.04484  3.9e-05  1.662819  0.0  -0.047557  3e-06  1.657639  0.0  -0.19669  7.6e-05  0.022025  -0.042493  7.9e-05  1.666282  0.0
Cl  Cl123  1  0.81866440  0.63617539  0.73284444  1  -0.058785  0.000226  1.412802  0.0  -0.044809  3.9e-05  1.662981  0.0  -0.047525  3e-06  1.657801  0.0  -0.196759  8e-05  0.022056  -0.042474  8.1e-05  1.666447  0.0
O  O124  1  0.64846325  0.42004632  0.03552561  1  -0.245396  -0.00662  2.409231  -0.009  -0.186962  -0.003649  2.653235  -0.006  -0.205243  -0.001988  2.656844  -0.003  -1.077657  -0.006902  -0.175922  -0.172866  -0.0045  2.649662  -0.007
O  O125  1  0.14844989  0.07995467  0.46447599  1  -0.245291  -0.00662  2.409341  -0.009  -0.186847  -0.003649  2.653365  -0.006  -0.205086  -0.001988  2.656956  -0.003  -1.077594  -0.006897  -0.175846  -0.172743  -0.004497  2.649792  -0.007
O  O126  1  0.35156346  0.57995389  0.96447509  1  -0.245402  0.006616  2.409386  0.009  -0.186906  0.003647  2.653442  0.006  -0.205142  0.001987  2.657031  0.003  -1.077479  0.006902  -0.175806  -0.17278  0.0045  2.649849  0.007
O  O127  1  0.85156492  0.92004379  0.53552253  1  -0.245308  0.006615  2.409542  0.009  -0.186837  0.003647  2.653677  0.006  -0.205065  0.001988  2.657261  0.003  -1.077503  0.006907  -0.175767  -0.172739  0.004501  2.650103  0.007
O  O128  1  0.68686801  0.18001344  0.02140539  1  -0.553104  0.062685  2.100995  0.083  -0.524421  0.05048  2.366706  0.072  -0.566923  0.041642  2.359281  0.063  -1.100653  0.07381  -0.308562  -0.49886  0.04804  2.373997  0.066
O  O129  1  0.18685465  0.31998490  0.47859468  1  -0.552905  0.062677  2.101068  0.083  -0.524338  0.050477  2.366789  0.072  -0.566849  0.041641  2.359392  0.063  -1.10078  0.073785  -0.308534  -0.498774  0.048022  2.37407  0.066
O  O130  1  0.31311707  0.81998677  0.97859497  1  -0.552958  -0.062681  2.101175  -0.083  -0.524387  -0.05048  2.366833  -0.072  -0.566858  -0.041643  2.359439  -0.063  -1.100847  -0.073784  -0.308599  -0.498823  -0.048018  2.374125  -0.066
O  O131  1  0.81312844  0.68001267  0.52140173  1  -0.55301  -0.062679  2.100968  -0.083  -0.524448  -0.050478  2.366609  -0.072  -0.566931  -0.041641  2.3592  -0.063  -1.100787  -0.073788  -0.308623  -0.498882  -0.048021  2.373899  -0.066
O  O132  1  0.69724794  0.83706519  0.02054795  1  -0.562866  0.066991  2.070675  0.088  -0.535991  0.054033  2.33371  0.078  -0.579558  0.044059  2.325359  0.067  -1.104124  0.07946  -0.318349  -0.509923  0.051633  2.341914  0.071
O  O133  1  0.19727027  0.66293513  0.47945396  1  -0.562895  0.066996  2.070554  0.088  -0.535971  0.054037  2.333516  0.078  -0.579555  0.044063  2.32518  0.067  -1.104263  0.079451  -0.318388  -0.509913  0.051624  2.341732  0.071
O  O134  1  0.30272722  0.16294294  0.97945530  1  -0.562861  -0.066994  2.07044  -0.088  -0.535895  -0.054037  2.333501  -0.078  -0.579437  -0.044061  2.325191  -0.067  -1.104196  -0.079453  -0.318325  -0.509836  -0.051622  2.341706  -0.071
O  O135  1  0.80272669  0.33705805  0.52054802  1  -0.56291  -0.066989  2.070506  -0.088  -0.535948  -0.054036  2.333493  -0.078  -0.579499  -0.044061  2.325191  -0.067  -1.104475  -0.079446  -0.318404  -0.509894  -0.051619  2.341707  -0.071
O  O136  1  0.26976721  0.06363531  0.16605271  1  -0.251786  -0.004306  2.411194  -0.006  -0.192252  -0.00224  2.65363  -0.004  -0.20863  -0.001205  2.656556  -0.002  -1.07587  -0.004369  -0.178482  -0.180055  -0.002851  2.651081  -0.004
O  O137  1  0.76975876  0.43636832  0.33394940  1  -0.251851  -0.00431  2.411422  -0.006  -0.192275  -0.002241  2.653811  -0.004  -0.208652  -0.001206  2.656736  -0.002  -1.075926  -0.004368  -0.178457  -0.180069  -0.002849  2.65126  -0.004
O  O138  1  0.73022579  0.93636315  0.83395406  1  -0.251739  0.004303  2.411419  0.006  -0.192254  0.002239  2.653767  0.004  -0.208633  0.001205  2.656692  0.002  -1.076053  0.004367  -0.178441  -0.180046  0.002849  2.651212  0.004
O  O139  1  0.23023226  0.56363101  0.66604643  1  -0.251647  0.004302  2.411586  0.006  -0.192224  0.002239  2.653969  0.004  -0.208604  0.001206  2.656897  0.002  -1.076335  0.004375  -0.178456  -0.180019  0.002851  2.651412  0.004
O  O140  1  0.51652806  0.03128332  0.08305566  1  -0.550586  0.062746  2.104899  0.084  -0.513988  0.053516  2.370042  0.078  -0.553917  0.045125  2.361333  0.069  -1.071262  0.074991  -0.292674  -0.490326  0.048904  2.378268  0.068
O  O141  1  0.01652263  0.46872294  0.41694628  1  -0.550565  0.062742  2.104975  0.084  -0.513942  0.053514  2.370035  0.078  -0.553895  0.045124  2.361393  0.069  -1.07133  0.074969  -0.292703  -0.49031  0.048889  2.378302  0.068
O  O142  1  0.48345305  0.96872657  0.91695011  1  -0.550649  -0.062744  2.10509  -0.084  -0.513908  -0.053516  2.370251  -0.078  -0.553832  -0.045125  2.361629  -0.069  -1.071582  -0.074969  -0.292642  -0.490271  -0.048887  2.378544  -0.068
O  O143  1  0.98345847  0.53128167  0.58305057  1  -0.550553  -0.062742  2.10508  -0.084  -0.513877  -0.053516  2.370229  -0.078  -0.553799  -0.045125  2.361591  -0.069  -1.071561  -0.074955  -0.292601  -0.490236  -0.04888  2.378485  -0.068
O  O144  1  0.86881524  0.98251807  0.95691982  1  -0.617612  0.046623  2.209104  0.061  -0.58879  0.04084  2.506345  0.057  -0.637014  0.034662  2.493259  0.051  -1.131872  0.05845  -0.322892  -0.555863  0.038565  2.515972  0.052
O  O145  1  0.36882171  0.51747961  0.54308124  1  -0.617587  0.046619  2.209256  0.061  -0.588804  0.040839  2.506444  0.057  -0.637027  0.034661  2.493342  0.051  -1.131912  0.058443  -0.322957  -0.555883  0.038557  2.516071  0.052
O  O146  1  0.13115992  0.01747950  0.04308553  1  -0.617716  -0.046618  2.209372  -0.061  -0.588944  -0.040837  2.506437  -0.057  -0.637171  -0.034657  2.493353  -0.051  -1.130939  -0.058447  -0.322975  -0.556035  -0.03856  2.51607  -0.052
O  O147  1  0.63115939  0.48251709  0.45691581  1  -0.617652  -0.046616  2.20934  -0.061  -0.58891  -0.040836  2.506411  -0.057  -0.637135  -0.034657  2.493326  -0.051  -1.131008  -0.058448  -0.323011  -0.555989  -0.03856  2.516035  -0.052
