# generated using pymatgen
data_CuH10C14(NO2)2
_symmetry_space_group_name_H-M   'P 1'
_cell_length_a   7.41815167
_cell_length_b   8.96424351
_cell_length_c   11.10516679
_cell_angle_alpha   76.75257079
_cell_angle_beta   75.28803972
_cell_angle_gamma   71.03963445
_symmetry_Int_Tables_number   1
_chemical_formula_structural   CuH10C14(NO2)2
_chemical_formula_sum   'Cu2 H20 C28 N4 O8'
_cell_volume   666.77183943
_cell_formula_units_Z   2
loop_
 _symmetry_equiv_pos_site_id
 _symmetry_equiv_pos_as_xyz
  1  'x, y, z'
loop_
 _atom_site_type_symbol
 _atom_site_label
 _atom_site_symmetry_multiplicity
 _atom_site_fract_x
 _atom_site_fract_y
 _atom_site_fract_z
 _atom_site_occupancy
 _atom_site_pbe_bader_charge
 _atom_site_pbe_bader_spin_density
 _atom_site_pbe_cm5_charge
 _atom_site_pbe_ddec_charge
 _atom_site_pbe_ddec_spin_density
 _atom_site_pbe_ddec_sum_bond_order
 _atom_site_pbe_magmom
Cu  Cu0  1  0.33348028  0.24139669  0.71529695  1  1.038245  0.541757  0.746063  0.738579  0.705793  2.260887  0.541
Cu  Cu1  1  0.66652498  0.75860095  0.28469613  1  1.038342  0.541759  0.746064  0.738564  0.705794  2.260814  0.541
H  H2  1  0.93170689  0.21312560  0.85120803  1  0.162013  0.002407  0.128253  0.114967  0.001112  0.988992  0.002
H  H3  1  0.06829463  0.78687087  0.14878491  1  0.161917  0.002408  0.128251  0.115015  0.001112  0.98894  0.002
H  H4  1  0.62966297  0.40214898  0.95021173  1  0.089723  0.001054  0.108172  0.109599  0.000533  1.015775  0.001
H  H5  1  0.37034335  0.59784021  0.04979075  1  0.089893  0.001055  0.108201  0.109639  0.000533  1.015634  0.001
H  H6  1  0.63502676  0.68316452  0.95265866  1  0.078663  4e-06  0.116351  0.11332  -4.7e-05  0.974238  0.0
H  H7  1  0.36498285  0.31681736  0.04735630  1  0.078477  4e-06  0.116359  0.113275  -4.7e-05  0.974121  0.0
H  H8  1  0.93743957  0.76027872  0.85769906  1  0.125072  0.001279  0.116511  0.133798  0.000618  0.999897  0.001
H  H9  1  0.06256089  0.23971041  0.14231060  1  0.125061  0.001279  0.11649  0.133795  0.000618  0.999863  0.001
H  H10  1  0.22467149  0.79374653  0.79449626  1  0.100012  0.00179  0.116186  0.131455  0.00107  1.004307  0.001
H  H11  1  0.77531602  0.20625704  0.20550655  1  0.100088  0.00179  0.116185  0.131444  0.00107  1.004399  0.001
H  H12  1  0.53757352  0.83161052  0.67237343  1  0.146093  1e-06  0.116799  0.124663  -5.8e-05  0.990001  0.0
H  H13  1  0.46241911  0.16839422  0.32762932  1  0.14607  1e-06  0.116784  0.124682  -5.8e-05  0.990012  0.0
H  H14  1  0.78537662  0.60470591  0.56736668  1  0.171012  0.000853  0.113212  0.136387  0.000395  1.03243  0.001
H  H15  1  0.21462548  0.39529872  0.43264099  1  0.170936  0.000853  0.113197  0.136384  0.000395  1.032452  0.001
H  H16  1  0.70042861  0.35101402  0.59244480  1  0.15201  0.002619  0.121456  0.102865  0.001239  1.015409  0.002
H  H17  1  0.29957983  0.64898819  0.40756325  1  0.151918  0.00262  0.121431  0.102867  0.00124  1.01525  0.002
H  H18  1  0.91402041  0.83472015  0.61692285  1  0.062034  0.000418  0.102077  0.094091  0.000101  0.998077  0.0
H  H19  1  0.08598389  0.16528468  0.38306734  1  0.061525  0.000418  0.102075  0.094155  0.000101  0.998023  0.0
H  H20  1  0.21695696  0.88449736  0.57965647  1  0.068515  0.00114  0.096488  0.091074  0.000713  1.042859  0.001
H  H21  1  0.78305102  0.11550862  0.42033478  1  0.068474  0.00114  0.096502  0.091124  0.000713  1.042765  0.001
C  C22  1  0.92858031  0.33313713  0.85896783  1  0.487058  -0.000265  0.062129  0.12038  -0.000834  3.897948  -0.001
C  C23  1  0.07141982  0.66685935  0.14102532  1  0.487728  -0.000266  0.0621  0.120299  -0.000835  3.898021  -0.001
C  C24  1  0.76092706  0.44023445  0.91283052  1  -0.03361  0.005047  -0.079662  -0.129416  0.003413  3.974418  0.004
C  C25  1  0.23907708  0.55975230  0.08717720  1  -0.034529  0.00505  -0.079728  -0.129552  0.003413  3.974631  0.004
C  C26  1  0.76435274  0.59478501  0.91352770  1  -0.050791  -0.001059  -0.062083  -0.023602  -0.001398  3.971334  -0.001
C  C27  1  0.23564383  0.40520775  0.08647921  1  -0.05054  -0.00106  -0.062068  -0.023416  -0.001399  3.971431  -0.001
C  C28  1  0.93516981  0.63828465  0.86149014  1  0.036469  0.002984  -0.071465  -0.143705  0.002209  3.907163  0.002
C  C29  1  0.06483397  0.36170685  0.13851952  1  0.036417  0.002984  -0.071364  -0.143702  0.002209  3.90703  0.002
C  C30  1  0.10027024  0.52382738  0.81172356  1  0.430647  0.003128  0.120412  0.169509  0.001851  3.988151  0.002
C  C31  1  0.89972275  0.47617261  0.18827724  1  0.430927  0.003126  0.12041  0.169542  0.00185  3.988087  0.002
C  C32  1  0.28949221  0.55427413  0.75336114  1  0.450262  0.001801  0.113968  0.154189  0.000841  3.999291  0.001
C  C33  1  0.71050889  0.44572577  0.24664388  1  0.450262  0.0018  0.113913  0.154141  0.00084  3.999557  0.001
C  C34  1  0.33108838  0.69649219  0.74948657  1  0.06581  0.004596  -0.074068  -0.152747  0.003397  3.926891  0.003
C  C35  1  0.66890871  0.30350778  0.25051543  1  0.06578  0.004597  -0.074042  -0.152657  0.003398  3.926905  0.003
C  C36  1  0.50972119  0.71704363  0.68124248  1  -0.065528  -0.003033  -0.054898  -0.000793  -0.003521  3.907789  -0.002
C  C37  1  0.49027856  0.28295629  0.31876184  1  -0.06573  -0.003033  -0.05486  -0.000871  -0.003522  3.907836  -0.002
C  C38  1  0.64502304  0.59308695  0.62277681  1  -0.048044  0.006799  -0.07542  -0.123572  0.004528  3.916179  0.005
C  C39  1  0.35497618  0.40691413  0.37723009  1  -0.047457  0.006799  -0.075405  -0.123559  0.004529  3.916086  0.005
C  C40  1  0.59730774  0.45167190  0.63469110  1  0.464271  -0.001419  0.056783  0.11842  -0.002009  3.91182  -0.002
C  C41  1  0.40269672  0.54832554  0.36531926  1  0.46404  -0.001418  0.056816  0.118475  -0.002008  3.911712  -0.002
C  C42  1  0.90034019  0.96264258  0.58362250  1  -0.001731  0.015698  -0.08278  -0.129291  0.010933  3.76783  0.012
C  C43  1  0.09966131  0.03736226  0.41636811  1  -0.000728  0.015694  -0.082799  -0.12946  0.010931  3.76786  0.012
C  C44  1  0.73020782  0.05458914  0.67301073  1  1.557061  0.001025  0.194571  0.577516  0.001024  4.212009  0.0
C  C45  1  0.26979019  0.94541329  0.32698351  1  1.556952  0.001023  0.194588  0.577699  0.001025  4.212021  0.0
C  C46  1  0.11967579  0.12450056  0.61724482  1  1.533885  0.001582  0.200128  0.591931  0.001179  4.14924  -0.001
C  C47  1  0.88030592  0.87550910  0.38274880  1  1.534152  0.001582  0.20007  0.591883  0.001178  4.149018  -0.001
C  C48  1  0.10271384  0.99376282  0.55901878  1  0.000239  0.013957  -0.091419  -0.13904  0.010128  3.77086  0.011
C  C49  1  0.89728910  0.00624202  0.44097071  1  0.000524  0.013957  -0.091434  -0.139175  0.010128  3.770943  0.011
N  N50  1  0.09410053  0.37446344  0.81107946  1  -1.189824  0.080176  -0.343692  -0.276188  0.053579  3.629966  0.069
N  N51  1  0.90589984  0.62553533  0.18892046  1  -1.189939  0.080169  -0.3437  -0.276187  0.053576  3.630021  0.069
N  N52  1  0.42390746  0.43340757  0.69751936  1  -1.236391  0.086421  -0.347704  -0.283853  0.057678  3.630414  0.075
N  N53  1  0.57609211  0.56658877  0.30248559  1  -1.236478  0.086427  -0.347667  -0.283838  0.057682  3.630575  0.075
O  O54  1  0.22031866  0.07508713  0.70660105  1  -1.106677  0.114988  -0.335915  -0.541337  0.073654  2.294355  0.103
O  O55  1  0.77968403  0.92492731  0.29338233  1  -1.106926  0.114997  -0.335877  -0.54124  0.073662  2.294078  0.103
O  O56  1  0.04637738  0.26836680  0.57590008  1  -1.185753  0.005435  -0.322007  -0.560329  0.002788  2.152713  0.005
O  O57  1  0.95359128  0.73164054  0.42409407  1  -1.185583  0.005433  -0.322021  -0.560409  0.002787  2.15274  0.005
O  O58  1  0.57481258  0.12014050  0.62443821  1  -1.117121  0.104806  -0.338979  -0.538783  0.067221  2.372108  0.094
O  O59  1  0.42518901  0.87986435  0.37555057  1  -1.117432  0.104803  -0.339013  -0.538868  0.067217  2.372229  0.094
O  O60  1  0.74560125  0.05744367  0.78169110  1  -1.184045  0.00401  -0.349458  -0.58002  0.001869  2.074342  0.003
O  O61  1  0.25440549  0.94255752  0.21830295  1  -1.183717  0.00401  -0.349469  -0.580121  0.001869  2.074401  0.003
