# generated using pymatgen
data_ZnH11C14NO4
_symmetry_space_group_name_H-M   'P 1'
_cell_length_a   7.46361964
_cell_length_b   10.84210999
_cell_length_c   17.65017062
_cell_angle_alpha   86.56834824
_cell_angle_beta   79.87294825
_cell_angle_gamma   69.90667270
_symmetry_Int_Tables_number   1
_chemical_formula_structural   ZnH11C14NO4
_chemical_formula_sum   'Zn4 H44 C56 N4 O16'
_cell_volume   1320.44517890
_cell_formula_units_Z   4
loop_
 _symmetry_equiv_pos_site_id
 _symmetry_equiv_pos_as_xyz
  1  'x, y, z'
loop_
 _atom_site_type_symbol
 _atom_site_label
 _atom_site_symmetry_multiplicity
 _atom_site_fract_x
 _atom_site_fract_y
 _atom_site_fract_z
 _atom_site_occupancy
 _atom_site_hle17_bader_spin_density
 _atom_site_hle17_ddec_charge
 _atom_site_hle17_ddec_spin_density
 _atom_site_hle17_ddec_sum_bond_order
 _atom_site_hle17_magmom
 _atom_site_hse06_10hf_bader_charge
 _atom_site_hse06_10hf_bader_spin_density
 _atom_site_hse06_10hf_ddec_charge
 _atom_site_hse06_10hf_ddec_spin_density
 _atom_site_hse06_10hf_ddec_sum_bond_order
 _atom_site_hse06_10hf_magmom
 _atom_site_hse06_bader_spin_density
 _atom_site_hse06_ddec_charge
 _atom_site_hse06_ddec_spin_density
 _atom_site_hse06_ddec_sum_bond_order
 _atom_site_hse06_magmom
 _atom_site_pbe_bader_spin_density
 _atom_site_pbe_cm5_charge
 _atom_site_pbe_ddec_charge
 _atom_site_pbe_ddec_spin_density
 _atom_site_pbe_ddec_sum_bond_order
 _atom_site_pbe_magmom
Zn  Zn0  1  0.17052626  0.94923783  0.16742882  1  0  1.072891  0  1.810883  0  1.313502  0  0.884392  0  2.291735  0  0  0.934243  0  2.231505  0  0  0.700448  0.849442  0  2.333225  0
Zn  Zn1  1  0.11835786  0.05120277  0.66762714  1  0  1.072232  0  1.812782  0  1.311617  0  0.883423  0  2.293709  0  0  0.933177  0  2.233528  0  0  0.700356  0.848476  0  2.335209  0
Zn  Zn2  1  0.52763037  0.03696172  0.22635064  1  0  1.095965  0  1.756518  0  1.363428  0  0.925362  0  2.206118  0  0  0.97536  0  2.147782  0  0  0.686694  0.890266  0  2.246186  0
Zn  Zn3  1  0.56343388  0.96319597  0.72619205  1  0  1.095936  0  1.75589  0  1.364707  0  0.925438  0  2.205412  0  0  0.975387  0  2.147115  0  0  0.686642  0.890248  0  2.245475  0
H  H4  1  0.13870240  0.57901571  0.24309729  1  0  0.099709  0  0.951289  0  0.106505  0  0.111097  0  1.010243  0  0  0.114605  0  1.007763  0  0  0.105646  0.108532  0  1.012151  0
H  H5  1  0.71649293  0.42173960  0.74325348  1  0  0.099981  0  0.951427  0  0.078807  0  0.111257  0  1.010389  0  0  0.114839  0  1.007799  0  0  0.105612  0.108612  0  1.012374  0
H  H6  1  0.05493978  0.37722547  0.27939591  1  0  0.092856  0  0.975086  0  0.074861  0  0.101798  0  1.037447  0  0  0.104701  0  1.03617  0  0  0.100084  0.099641  0  1.038574  0
H  H7  1  0.43105835  0.62355468  0.77940664  1  0  0.092467  0  0.976675  0  0.081065  0  0.101331  0  1.039141  0  0  0.104173  0  1.037957  0  0  0.099863  0.099306  0  1.040086  0
H  H8  1  0.74075341  0.36520304  0.25308802  1  0  0.105701  0  0.993393  0  0.158546  0  0.110276  0  1.060818  0  0  0.114287  0  1.058037  0  0  0.098702  0.107275  0  1.06293  0
H  H9  1  0.10513677  0.63506401  0.75293960  1  0  0.104751  0  0.994804  0  0.164238  0  0.109578  0  1.061991  0  0  0.113703  0  1.059088  0  0  0.098835  0.106592  0  1.064107  0
H  H10  1  0.51755970  0.55507252  0.19374308  1  0  0.100948  0  0.93676  0  0.071128  0  0.113488  0  0.991607  0  0  0.117062  0  0.989691  0  0  0.105982  0.110894  0  0.993123  0
H  H11  1  0.07214147  0.44497236  0.69357748  1  0  0.100568  0  0.936791  0  0.082491  0  0.113169  0  0.991602  0  0  0.116736  0  0.989702  0  0  0.105832  0.110559  0  0.993192  0
H  H12  1  0.14310751  0.24263064  0.41608491  1  0  0.100026  0  0.945504  0  0.09994  0  0.111374  0  1.003699  0  0  0.115067  0  1.000645  0  0  0.10548  0.108667  0  1.005991  0
H  H13  1  0.38429444  0.75726190  0.91557632  1  0  0.09985  0  0.945222  0  0.094825  0  0.111439  0  1.003086  0  0  0.115142  0  1.000037  0  0  0.105625  0.108727  0  1.005449  0
H  H14  1  0.91386018  0.34192523  0.53526636  1  0  0.098103  0  0.94622  0  0.094038  0  0.10846  0  1.004987  0  0  0.112047  0  1.003113  0  0  0.100594  0.105844  0  1.006531  0
H  H15  1  0.25486484  0.65775575  0.03468083  1  0  0.097979  0  0.946423  0  0.091177  0  0.108719  0  1.004614  0  0  0.112248  0  1.002784  0  0  0.100956  0.106232  0  1.006037  0
H  H16  1  0.57206755  0.34279695  0.55200216  1  0  0.080448  0  0.983181  0  0.077915  0  0.089557  0  1.047839  0  0  0.09177  0  1.047293  0  0  0.096077  0.087938  0  1.04824  0
H  H17  1  0.91403568  0.65669225  0.05161669  1  0  0.080801  0  0.982191  0  0.072243  0  0.090053  0  1.046704  0  0  0.092222  0  1.046191  0  0  0.096077  0.088487  0  1.047134  0
H  H18  1  0.46840099  0.24181829  0.45480661  1  0  0.103438  0  0.94921  0  0.074975  0  0.114283  0  1.008584  0  0  0.117912  0  1.006263  0  0  0.102488  0.111557  0  1.010553  0
H  H19  1  0.70916383  0.75751830  0.95460434  1  0  0.102755  0  0.950171  0  0.079879  0  0.114111  0  1.008972  0  0  0.117576  0  1.006827  0  0  0.102682  0.111539  0  1.010772  0
H  H20  1  0.87074286  0.19862079  0.14217145  1  0  0.095187  0  0.940986  0  0.152631  0  0.102363  0  1.006278  0  0  0.104647  0  1.004565  0  0  0.121893  0.100653  0  1.007479  0
H  H21  1  0.06847395  0.80163600  0.64246635  1  0  0.096155  0  0.940748  0  0.147581  0  0.10286  0  1.006324  0  0  0.105152  0  1.004603  0  0  0.12211  0.101094  0  1.007686  0
H  H22  1  0.76192878  0.33782236  0.03010485  1  0  0.108725  0  0.940032  0  0.084527  0  0.122988  0  0.990893  0  0  0.125458  0  0.99169  0  0  0.109562  0.121188  0  0.990572  0
H  H23  1  0.09800045  0.66233072  0.53044566  1  0  0.10929  0  0.939824  0  0.075971  0  0.123183  0  0.990888  0  0  0.125699  0  0.991632  0  0  0.109781  0.121289  0  0.990683  0
H  H24  1  0.24340223  0.06434158  0.88395596  1  0  0.123575  0  0.94274  0  0.095929  0  0.135085  0  0.998464  0  0  0.137964  0  0.998145  0  0  0.112899  0.132909  0  0.99905  0
H  H25  1  0.30604646  0.93558623  0.38412091  1  0  0.123162  0  0.94323  0  0.127169  0  0.135263  0  0.998182  0  0  0.138168  0  0.997858  0  0  0.113098  0.133121  0  0.99865  0
H  H26  1  0.33503047  0.93837238  0.00218289  1  0  0.083533  0  0.953288  0  0.14181  0  0.091727  0  1.019438  0  0  0.093926  0  1.017037  0  0  0.119851  0.090004  0  1.021384  0
H  H27  1  0.27260690  0.06162651  0.50234475  1  0  0.083537  0  0.953782  0  0.137291  0  0.091156  0  1.020544  0  0  0.09321  0  1.018291  0  0  0.119575  0.089502  0  1.022395  0
H  H28  1  0.82989302  0.38619339  0.88958057  1  0  0.111402  0  0.935766  0  0.039081  0  0.134118  0  0.991775  0  0  0.135525  0  0.99136  0  0  0.094953  0.132956  0  0.992289  0
H  H29  1  0.21340563  0.61386140  0.38994147  1  0  0.11092  0  0.935927  0  0.029623  0  0.133493  0  0.992161  0  0  0.134927  0  0.991718  0  0  0.094701  0.13247  0  0.99243  0
H  H30  1  0.04467904  0.28351135  0.83112445  1  0  0.123625  0  0.947938  0  0.065604  0  0.142405  0  1.012982  0  0  0.143572  0  1.013412  0  0  0.096714  0.141459  0  1.012774  0
H  H31  1  0.32587069  0.71628771  0.33139506  1  0  0.123171  0  0.94771  0  0.074066  0  0.142407  0  1.012166  0  0  0.143592  0  1.012575  0  0  0.096587  0.141476  0  1.01197  0
H  H32  1  0.83867313  0.23558157  0.85149704  1  0  0.132856  0  0.924337  0  0.070933  0  0.156998  0  0.979257  0  0  0.158073  0  0.979666  0  0  0.103941  0.156209  0  0.978973  0
H  H33  1  0.07196730  0.76441644  0.35183711  1  0  0.132596  0  0.92596  0  0.074997  0  0.156511  0  0.981192  0  0  0.157612  0  0.981598  0  0  0.103894  0.155711  0  0.980882  0
H  H34  1  0.29910686  0.30128156  0.18560173  1  0  0.081304  0  0.962577  0  0.122772  0  0.089704  0  1.027344  0  0  0.091489  0  1.025902  0  0  0.11607  0.088313  0  1.028518  0
H  H35  1  0.59894101  0.69898352  0.68543858  1  0  0.081398  0  0.963204  0  0.125655  0  0.089737  0  1.028277  0  0  0.091447  0  1.026904  0  0  0.116076  0.0883  0  1.029497  0
H  H36  1  0.21280239  0.43548559  0.06913087  1  0  0.107468  0  0.956339  0  0.0936  0  0.119021  0  1.01523  0  0  0.12104  0  1.016351  0  0  0.106545  0.117563  0  1.014613  0
H  H37  1  0.64677710  0.56451273  0.56900169  1  0  0.107057  0  0.956311  0  0.087026  0  0.118713  0  1.015321  0  0  0.120752  0  1.016404  0  0  0.106086  0.117343  0  1.014552  0
H  H38  1  0.60633425  0.10404348  0.93150116  1  0  0.127287  0  0.963331  0  0.171264  0  0.134004  0  1.025507  0  0  0.138265  0  1.023495  0  0  0.106647  0.130927  0  1.027065  0
H  H39  1  0.70976141  0.89562069  0.43131353  1  0  0.127231  0  0.964199  0  0.142524  0  0.134009  0  1.026546  0  0  0.138185  0  1.024667  0  0  0.106475  0.130888  0  1.028165  0
H  H40  1  0.67471657  0.98461966  0.05416155  1  0  0.088778  0  0.948205  0  0.124033  0  0.096354  0  1.012835  0  0  0.097813  0  1.012575  0  0  0.117045  0.095281  0  1.013002  0
H  H41  1  0.65873123  0.01530028  0.55396113  1  0  0.089179  0  0.947416  0  0.116468  0  0.096651  0  1.012304  0  0  0.098179  0  1.011896  0  0  0.117089  0.095699  0  1.012332  0
H  H42  1  0.20831199  0.42807978  0.92659492  1  0  0.115199  0  0.947089  0  0.05552  0  0.138232  0  1.003919  0  0  0.138958  0  1.00528  0  0  0.094269  0.137689  0  1.002984  0
H  H43  1  0.63580534  0.57127242  0.42640750  1  0  0.115611  0  0.946094  0  0.049999  0  0.138264  0  1.003251  0  0  0.138945  0  1.004651  0  0  0.094385  0.137877  0  1.002028  0
H  H44  1  0.45253695  0.41573181  0.90065737  1  0  0.112856  0  0.94802  0  0.068244  0  0.135683  0  1.008896  0  0  0.135699  0  1.010707  0  0  0.095262  0.135666  0  1.007728  0
H  H45  1  0.86755757  0.58392210  0.40063907  1  0  0.11314  0  0.949347  0  0.080711  0  0.135819  0  1.01016  0  0  0.135825  0  1.011964  0  0  0.095439  0.135783  0  1.008965  0
H  H46  1  0.37647082  0.29272712  0.86964362  1  0  0.120453  0  0.942993  0  0.057382  0  0.142072  0  1.001353  0  0  0.142954  0  1.002511  0  0  0.096285  0.141387  0  1.000689  0
H  H47  1  0.66870551  0.70654108  0.36943585  1  0  0.120744  0  0.941659  0  0.052233  0  0.14226  0  1.000216  0  0  0.143081  0  1.00143  0  0  0.096545  0.141584  0  0.999488  0
C  C48  1  0.54308146  0.78455474  0.15577327  1  0  0.670529  0  3.862728  0  1.599811  0  0.614985  0  4.163344  0  0  0.649246  0  4.153922  0  0  0.215615  0.591209  0  4.169552  0
C  C49  1  0.32700058  0.21545461  0.65585591  1  0  0.6691  0  3.864394  0  1.607215  0  0.614529  0  4.163833  0  0  0.6488  0  4.154369  0  0  0.216441  0.590934  0  4.169808  0
C  C50  1  0.92791484  0.80221884  0.18391353  1  0  0.662397  0  3.890429  0  1.605347  0  0.608922  0  4.183214  0  0  0.644275  0  4.175591  0  0  0.214313  0.584979  0  4.18751  0
C  C51  1  0.72915158  0.19823433  0.68411126  1  0  0.664455  0  3.885899  0  1.601212  0  0.610708  0  4.17855  0  0  0.646094  0  4.170847  0  0  0.2141  0.586626  0  4.183098  0
C  C52  1  0.69495669  0.67635926  0.18942601  1  0  -0.056371  0  3.730021  0  -0.090121  0  -0.041755  0  3.96377  0  0  -0.044327  0  3.983235  0  0  -0.007107  -0.039934  0  3.950778  0
C  C53  1  0.37062666  0.32381843  0.68946195  1  0  -0.054743  0  3.730747  0  -0.096003  0  -0.041217  0  3.964454  0  0  -0.043762  0  3.983938  0  0  -0.007044  -0.03947  0  3.951446  0
C  C54  1  0.87142798  0.68309256  0.20330595  1  0  -0.10212  0  3.758581  0  -0.033879  0  -0.086823  0  3.993198  0  0  -0.094697  0  4.015195  0  0  -0.020568  -0.081826  0  3.978514  0
C  C55  1  0.55359667  0.31730315  0.70345748  1  0  -0.1041  0  3.761177  0  -0.011037  0  -0.087176  0  3.994096  0  0  -0.095196  0  4.0163  0  0  -0.019866  -0.081917  0  3.979153  0
C  C56  1  0.00135975  0.57289343  0.23399644  1  0  -0.070697  0  3.746154  0  -0.022489  0  -0.095349  0  3.996611  0  0  -0.094129  0  4.015054  0  0  -0.083917  -0.096082  0  3.984326  0
C  C57  1  0.57312697  0.42768150  0.73414422  1  0  -0.070688  0  3.745658  0  0.002203  0  -0.09589  0  3.9962  0  0  -0.094645  0  4.014528  0  0  -0.084438  -0.096577  0  3.983689  0
C  C58  1  0.95511410  0.45994627  0.25318354  1  0  -0.080422  0  3.770837  0  -0.074823  0  -0.093393  0  4.02371  0  0  -0.096307  0  4.044124  0  0  -0.093086  -0.091598  0  4.010032  0
C  C59  1  0.41401518  0.54066646  0.75322674  1  0  -0.080777  0  3.770069  0  -0.048485  0  -0.09377  0  4.023182  0  0  -0.096627  0  4.043668  0  0  -0.092852  -0.091961  0  4.009248  0
C  C60  1  0.78016116  0.45308262  0.23914548  1  0  -0.048528  0  3.728362  0  0.007512  0  -0.062721  0  3.977427  0  0  -0.062096  0  3.995905  0  0  -0.08495  -0.062834  0  3.964764  0
C  C61  1  0.23243324  0.54730378  0.73906155  1  0  -0.046155  0  3.72683  0  -0.075695  0  -0.060667  0  3.975857  0  0  -0.060129  0  3.994281  0  0  -0.084909  -0.060636  0  3.963145  0
C  C62  1  0.65278514  0.56022992  0.20636331  1  0  -0.091746  0  3.733295  0  -0.075081  0  -0.111422  0  3.977086  0  0  -0.114199  0  3.996378  0  0  -0.086177  -0.109573  0  3.964031  0
C  C63  1  0.21241227  0.43997186  0.70624692  1  0  -0.092392  0  3.731638  0  -0.070083  0  -0.111935  0  3.975765  0  0  -0.114715  0  3.995054  0  0  -0.086544  -0.110218  0  3.96284  0
C  C64  1  0.66725245  0.13600853  0.31865989  1  0  0.661673  0  3.903576  0  1.631131  0  0.606811  0  4.208061  0  0  0.64204  0  4.198613  0  0  0.200308  0.582738  0  4.213805  0
C  C65  1  0.80218236  0.86349381  0.81837885  1  0  0.663321  0  3.904295  0  1.61635  0  0.608045  0  4.209195  0  0  0.643308  0  4.199696  0  0  0.200311  0.583899  0  4.21502  0
C  C66  1  0.08203089  0.12143367  0.30123962  1  0  0.659944  0  3.900215  0  1.600347  0  0.605578  0  4.196318  0  0  0.640973  0  4.188314  0  0  0.216022  0.58157  0  4.201091  0
C  C67  1  0.20187423  0.87871411  0.80106787  1  0  0.657833  0  3.897036  0  1.596381  0  0.602974  0  4.194079  0  0  0.638302  0  4.186153  0  0  0.215196  0.578935  0  4.198712  0
C  C68  1  0.74537258  0.18503272  0.37938683  1  0  -0.029334  0  3.685127  0  -0.02743  0  -0.015609  0  3.916788  0  0  -0.017301  0  3.936058  0  0  -0.000313  -0.014578  0  3.903996  0
C  C69  1  0.92894439  0.81470905  0.87919360  1  0  -0.031618  0  3.687759  0  -0.106435  0  -0.017093  0  3.919305  0  0  -0.018893  0  3.938614  0  0  -0.00047  -0.015889  0  3.906085  0
C  C70  1  0.93670933  0.18591093  0.36955414  1  0  -0.101458  0  3.746305  0  -0.020238  0  -0.085703  0  3.980093  0  0  -0.094757  0  4.004259  0  0  -0.019899  -0.079902  0  3.963956  0
C  C71  1  0.12107825  0.81404394  0.86927865  1  0  -0.100453  0  3.747917  0  -0.003501  0  -0.085786  0  3.98292  0  0  -0.094742  0  4.007033  0  0  -0.019589  -0.079773  0  3.966448  0
C  C72  1  0.99400857  0.24425906  0.42543794  1  0  -0.069876  0  3.759304  0  -0.004479  0  -0.093438  0  4.009895  0  0  -0.092683  0  4.02982  0  0  -0.08395  -0.093545  0  3.996285  0
C  C73  1  0.23682166  0.75562742  0.92501564  1  0  -0.070087  0  3.758933  0  -0.024647  0  -0.093558  0  4.009729  0  0  -0.092853  0  4.029656  0  0  -0.084765  -0.09383  0  3.99645  0
C  C74  1  0.86525042  0.30045349  0.49130219  1  0  -0.082166  0  3.768552  0  -0.084058  0  -0.096506  0  4.023707  0  0  -0.099489  0  4.043719  0  0  -0.094562  -0.094694  0  4.010047  0
C  C75  1  0.16459897  0.69919787  0.99082255  1  0  -0.081218  0  3.768089  0  -0.049962  0  -0.095622  0  4.022884  0  0  -0.098532  0  4.04286  0  0  -0.094473  -0.093963  0  4.009721  0
C  C76  1  0.67581277  0.29942248  0.50104173  1  0  -0.047066  0  3.761856  0  -0.076179  0  -0.063948  0  4.01596  0  0  -0.062905  0  4.035105  0  0  -0.089074  -0.064229  0  4.002276  0
C  C77  1  0.97425075  0.70008977  0.00066383  1  0  -0.048637  0  3.76289  0  -0.062357  0  -0.065772  0  4.017338  0  0  -0.064663  0  4.036385  0  0  -0.089223  -0.066326  0  4.004363  0
C  C78  1  0.61658813  0.24204273  0.44577933  1  0  -0.099592  0  3.731876  0  -0.029285  0  -0.119584  0  3.978256  0  0  -0.122698  0  3.997623  0  0  -0.089318  -0.117505  0  3.965044  0
C  C79  1  0.85749251  0.75742842  0.94550736  1  0  -0.097443  0  3.733079  0  0.033332  0  -0.118183  0  3.9796  0  0  -0.121105  0  3.998982  0  0  -0.089459  -0.116066  0  3.966434  0
C  C80  1  0.94973887  0.17367100  0.08384223  1  0  0.141387  0  3.686332  0  0.466571  0  0.107188  0  3.941724  0  0  0.115648  0  3.959826  0  0  0.048366  0.101907  0  3.929295  0
C  C81  1  0.12223197  0.82655551  0.58410562  1  0  0.140601  0  3.688527  0  0.441291  0  0.106991  0  3.943405  0  0  0.115442  0  3.961507  0  0  0.048357  0.10155  0  3.93115  0
C  C82  1  0.88984431  0.24960939  0.02087517  1  0  -0.184803  0  3.711145  0  -0.059658  0  -0.201623  0  3.953357  0  0  -0.211194  0  3.976239  0  0  -0.085039  -0.195591  0  3.938123  0
C  C83  1  0.13772900  0.75056194  0.52116871  1  0  -0.185512  0  3.711401  0  -0.057754  0  -0.201511  0  3.95341  0  0  -0.211158  0  3.976228  0  0  -0.085127  -0.195238  0  3.938127  0
C  C84  1  0.99015427  0.21114496  0.94631667  1  0  0.210852  0  3.715613  0  0.005173  0  0.232322  0  3.950934  0  0  0.239181  0  3.972241  0  0  0.020664  0.227835  0  3.936401  0
C  C85  1  0.19927057  0.78899679  0.44658334  1  0  0.211529  0  3.715091  0  0.023898  0  0.231813  0  3.952008  0  0  0.238774  0  3.973188  0  0  0.020585  0.227309  0  3.937427  0
C  C86  1  0.15455561  0.09783464  0.93968799  1  0  -0.166341  0  3.665426  0  -0.013089  0  -0.183003  0  3.906558  0  0  -0.192827  0  3.929286  0  0  -0.080076  -0.176919  0  3.891906  0
C  C87  1  0.25079150  0.90219793  0.43989196  1  0  -0.167805  0  3.666469  0  -0.02454  0  -0.184486  0  3.907825  0  0  -0.194353  0  3.930427  0  0  -0.08037  -0.178188  0  3.892798  0
C  C88  1  0.20795184  0.02681453  0.00496694  1  0  0.138553  0  3.71855  0  0.489182  0  0.104904  0  3.971567  0  0  0.113145  0  3.991181  0  0  0.050015  0.099632  0  3.958511  0
C  C89  1  0.23365079  0.97325974  0.50514212  1  0  0.140862  0  3.718342  0  0.469584  0  0.107634  0  3.971613  0  0  0.116012  0  3.991153  0  0  0.050848  0.102265  0  3.958364  0
C  C90  1  0.92263103  0.28428653  0.87623931  1  0  -0.348369  0  3.699885  0  -0.052819  0  -0.430084  0  3.934697  0  0  -0.432646  0  3.942791  0  0  -0.233937  -0.427939  0  3.928997  0
C  C91  1  0.20455635  0.71570821  0.37654094  1  0  -0.347502  0  3.701912  0  -0.060399  0  -0.428923  0  3.936761  0  0  -0.431572  0  3.944792  0  0  -0.233646  -0.426814  0  3.931037  0
C  C92  1  0.36344178  0.26233763  0.12799754  1  0  0.133313  0  3.720787  0  0.474634  0  0.100211  0  3.97323  0  0  0.107826  0  3.992659  0  0  0.042451  0.095389  0  3.959899  0
C  C93  1  0.62450780  0.73779787  0.62783839  1  0  0.134968  0  3.721738  0  0.445072  0  0.101812  0  3.97441  0  0  0.109471  0  3.993845  0  0  0.042969  0.096957  0  3.961263  0
C  C94  1  0.31796581  0.33629316  0.06273902  1  0  -0.19171  0  3.713819  0  -0.099715  0  -0.206519  0  3.955806  0  0  -0.215918  0  3.978898  0  0  -0.088949  -0.200404  0  3.940134  0
C  C95  1  0.65290963  0.66371267  0.56260648  1  0  -0.19227  0  3.714873  0  0.043864  0  -0.207315  0  3.956618  0  0  -0.216722  0  3.979723  0  0  -0.08933  -0.201413  0  3.941153  0
C  C96  1  0.40404468  0.28171155  0.98961182  1  0  0.204013  0  3.732889  0  0.05156  0  0.224059  0  3.96931  0  0  0.230651  0  3.990559  0  0  0.015234  0.219865  0  3.954704  0
C  C97  1  0.68458173  0.71807851  0.48944559  1  0  0.201551  0  3.73391  0  -0.076147  0  0.222452  0  3.969239  0  0  0.229031  0  3.990488  0  0  0.01464  0.218234  0  3.9547  0
C  C98  1  0.53679695  0.15326753  0.98659941  1  0  -0.189113  0  3.690691  0  -0.055561  0  -0.203345  0  3.935516  0  0  -0.21287  0  3.956504  0  0  -0.087149  -0.197189  0  3.921517  0
C  C99  1  0.68913424  0.84650834  0.48640170  1  0  -0.187388  0  3.688599  0  -0.010502  0  -0.202085  0  3.933193  0  0  -0.211579  0  3.954267  0  0  -0.086753  -0.195917  0  3.919275  0
C  C100  1  0.57380018  0.08490474  0.05445810  1  0  0.139035  0  3.700083  0  0.44703  0  0.105207  0  3.956657  0  0  0.113327  0  3.975205  0  0  0.045527  0.099947  0  3.943985  0
C  C101  1  0.65795493  0.91499772  0.55427575  1  0  0.138382  0  3.699104  0  0.449219  0  0.10469  0  3.955605  0  0  0.112821  0  3.974184  0  0  0.045253  0.099261  0  3.943058  0
C  C102  1  0.35653652  0.35781569  0.91796786  1  0  -0.350063  0  3.723109  0  -0.09107  0  -0.432015  0  3.956434  0  0  -0.435469  0  3.967555  0  0  -0.238593  -0.429398  0  3.948739  0
C  C103  1  0.71360792  0.64168326  0.41782732  1  0  -0.350378  0  3.722494  0  -0.078601  0  -0.432042  0  3.955938  0  0  -0.435398  0  3.96706  0  0  -0.23916  -0.429561  0  3.948159  0
N  N104  1  0.10647334  0.06284889  0.07591805  1  0  -0.358102  0  3.345292  0  -1.326661  0  -0.27203  0  3.634693  0  0  -0.293839  0  3.648397  0  0  -0.339723  -0.257488  0  3.625194  0
N  N105  1  0.16837183  0.93733722  0.57612592  1  0  -0.358941  0  3.346195  0  -1.302381  0  -0.273199  0  3.635669  0  0  -0.29491  0  3.649114  0  0  -0.340316  -0.258585  0  3.626327  0
N  N106  1  0.48722698  0.13772554  0.12427398  1  0  -0.355828  0  3.333018  0  -1.294285  0  -0.275968  0  3.609863  0  0  -0.297325  0  3.626465  0  0  -0.335549  -0.26152  0  3.598371  0
N  N107  1  0.62395429  0.86238054  0.62408809  1  0  -0.355835  0  3.334566  0  -1.299059  0  -0.275888  0  3.611649  0  0  -0.297353  0  3.628332  0  0  -0.33502  -0.261583  0  3.600314  0
O  O108  1  0.43193363  0.88106771  0.20310709  1  0  -0.704416  0  2.138486  0  -1.209695  0  -0.617419  0  2.434966  0  0  -0.648258  0  2.413725  0  0  -0.334326  -0.595593  0  2.448951  0
O  O109  1  0.31212240  0.11910253  0.70322690  1  0  -0.703522  0  2.140555  0  -1.208684  0  -0.617071  0  2.436978  0  0  -0.647754  0  2.415538  0  0  -0.334416  -0.595184  0  2.450936  0
O  O110  1  0.51043962  0.77421056  0.09036794  1  0  -0.573043  0  1.895967  0  -1.176744  0  -0.526674  0  2.117872  0  0  -0.549634  0  2.10884  0  0  -0.291534  -0.510494  0  2.123628  0
O  O111  1  0.28433183  0.22556380  0.59041130  1  0  -0.572906  0  1.895204  0  -1.181518  0  -0.526791  0  2.11649  0  0  -0.549717  0  2.107489  0  0  -0.29217  -0.510542  0  2.122277  0
O  O112  1  0.80577120  0.91018693  0.16761564  1  0  -0.645357  0  2.072802  0  -1.231476  0  -0.583244  0  2.340183  0  0  -0.609606  0  2.327129  0  0  -0.311348  -0.564777  0  2.348438  0
O  O113  1  0.71502998  0.09019107  0.66772406  1  0  -0.646561  0  2.070014  0  -1.220908  0  -0.584649  0  2.337825  0  0  -0.611013  0  2.324731  0  0  -0.311614  -0.566137  0  2.34608  0
O  O114  1  0.10689571  0.78650058  0.18346292  1  0  -0.627773  0  2.052159  0  -1.189594  0  -0.554771  0  2.323265  0  0  -0.584034  0  2.30915  0  0  -0.318594  -0.534207  0  2.332164  0
O  O115  1  0.89237451  0.21404801  0.68372437  1  0  -0.627977  0  2.049088  0  -1.185074  0  -0.554587  0  2.319681  0  0  -0.583985  0  2.305868  0  0  -0.318086  -0.53412  0  2.328621  0
O  O116  1  0.61677531  0.21137328  0.26298159  1  0  -0.623972  0  1.937596  0  -1.204687  0  -0.568866  0  2.168161  0  0  -0.59616  0  2.15891  0  0  -0.316983  -0.549375  0  2.173698  0
O  O117  1  0.82760548  0.78813872  0.76258940  1  0  -0.624063  0  1.937663  0  -1.198378  0  -0.568809  0  2.167849  0  0  -0.596151  0  2.158742  0  0  -0.316446  -0.549386  0  2.173446  0
O  O118  1  0.64059351  0.02450052  0.32751846  1  0  -0.63317  0  1.953671  0  -1.185883  0  -0.567901  0  2.199806  0  0  -0.597106  0  2.187403  0  0  -0.323969  -0.547136  0  2.207494  0
O  O119  1  0.66380674  0.97485809  0.82733111  1  0  -0.633739  0  1.954487  0  -1.19559  0  -0.568513  0  2.201362  0  0  -0.59777  0  2.188835  0  0  -0.324172  -0.547811  0  2.209245  0
O  O120  1  0.24740707  0.13429324  0.29107695  1  0  -0.64503  0  2.066316  0  -1.218278  0  -0.584646  0  2.335361  0  0  -0.610713  0  2.32067  0  0  -0.314085  -0.56648  0  2.344805  0
O  O121  1  0.38027162  0.86542788  0.79065168  1  0  -0.643936  0  2.064405  0  -1.214551  0  -0.583608  0  2.333717  0  0  -0.609569  0  2.318928  0  0  -0.313391  -0.565342  0  2.343122  0
O  O122  1  0.02511969  0.05625443  0.25845081  1  0  -0.627077  0  2.133033  0  -1.208671  0  -0.546339  0  2.405495  0  0  -0.575265  0  2.390572  0  0  -0.309681  -0.52638  0  2.415276  0
O  O123  1  0.07953122  0.94440267  0.75858481  1  0  -0.626954  0  2.132238  0  -1.210214  0  -0.544675  0  2.403182  0  0  -0.57347  0  2.388227  0  0  -0.309562  -0.524581  0  2.41279  0
