# generated using pymatgen
data_AlH7C12O5
_symmetry_space_group_name_H-M   'P 1'
_cell_length_a   6.68991051
_cell_length_b   17.28481290
_cell_length_c   19.44180758
_cell_angle_alpha   108.12124806
_cell_angle_beta   89.99889282
_cell_angle_gamma   90.00002319
_symmetry_Int_Tables_number   1
_chemical_formula_structural   AlH7C12O5
_chemical_formula_sum   'Al4 H28 C48 O20'
_cell_volume   2136.62480455
_cell_formula_units_Z   4
loop_
 _symmetry_equiv_pos_site_id
 _symmetry_equiv_pos_as_xyz
  1  'x, y, z'
loop_
 _atom_site_type_symbol
 _atom_site_label
 _atom_site_symmetry_multiplicity
 _atom_site_fract_x
 _atom_site_fract_y
 _atom_site_fract_z
 _atom_site_occupancy
 _atom_site_pbe_bader_charge
 _atom_site_pbe_bader_spin_density
 _atom_site_pbe_cm5_charge
 _atom_site_pbe_ddec_charge
 _atom_site_pbe_ddec_spin_density
 _atom_site_pbe_ddec_sum_bond_order
 _atom_site_pbe_magmom
Al  Al0  1  0.89535421  0.50044270  0.50013633  1  2.503531  0  0.399117  1.651655  0  2.576307  0
Al  Al1  1  0.39535499  0.49955805  0.49986871  1  2.503421  0  0.39915  1.65161  0  2.576406  0
Al  Al2  1  0.36901838  0.00028095  0.00080363  1  2.503543  0  0.399102  1.653431  0  2.573968  0
Al  Al3  1  0.86901746  0.99972094  0.99920444  1  2.503538  0  0.399068  1.653369  0  2.573898  0
H  H4  1  0.42501908  0.18834380  0.19040949  1  0.097081  0  0.11256  0.110254  0  0.982105  0
H  H5  1  0.92503172  0.81162482  0.80960522  1  0.096575  0  0.112615  0.11036  0  0.982002  0
H  H6  1  0.96584846  0.20076822  0.20096498  1  0.091381  0  0.109806  0.125314  0  0.992619  0
H  H7  1  0.46585664  0.79927566  0.79901472  1  0.09144  0  0.109887  0.125432  0  0.992567  0
H  H8  1  0.44054092  0.30126122  0.30492574  1  0.115712  0  0.111722  0.108283  0  0.979227  0
H  H9  1  0.94052225  0.69873236  0.69506899  1  0.115804  0  0.111707  0.108332  0  0.979158  0
H  H10  1  0.98017004  0.30268632  0.30120874  1  0.053477  0  0.110268  0.125538  0  0.993182  0
H  H11  1  0.48016176  0.69730635  0.69880926  1  0.0534  0  0.110238  0.12554  0  0.993199  0
H  H12  1  0.42884637  0.41315238  0.67945729  1  0.096925  0  0.11002  0.120188  0  0.993208  0
H  H13  1  0.92885923  0.58684432  0.32054139  1  0.096786  0  0.109973  0.120078  0  0.993291  0
H  H14  1  0.85679963  0.31620408  0.59393706  1  0.067726  0  0.107216  0.114247  0  0.999635  0
H  H15  1  0.35680390  0.68379363  0.40607221  1  0.067603  0  0.107223  0.114269  0  0.999712  0
H  H16  1  0.69339471  0.20889339  0.63560058  1  0.0683  0  0.104793  0.108592  0  0.988363  0
H  H17  1  0.19338681  0.79109860  0.36440522  1  0.068157  0  0.104753  0.108514  0  0.988406  0
H  H18  1  0.68667475  0.12499012  0.71786356  1  0.057198  0  0.105599  0.109929  0  0.9865  0
H  H19  1  0.18665518  0.87499947  0.28213853  1  0.057271  0  0.105541  0.109835  0  0.986376  0
H  H20  1  0.83786458  0.08659173  0.82030679  1  0.081368  0  0.10985  0.119467  0  0.993311  0
H  H21  1  0.33784458  0.91339354  0.17969290  1  0.081126  0  0.109881  0.119593  0  0.993177  0
H  H22  1  0.40870353  0.18430708  0.90658637  1  0.082912  0  0.107155  0.114457  0  1.000426  0
H  H23  1  0.90869362  0.81568388  0.09340711  1  0.082705  0  0.107171  0.114479  0  1.000442  0
H  H24  1  0.57348664  0.29076471  0.86414881  1  0.084505  0  0.10484  0.108426  0  0.988733  0
H  H25  1  0.07348300  0.70922718  0.13584171  1  0.084388  0  0.104858  0.108407  0  0.988876  0
H  H26  1  0.58082545  0.37432946  0.78166519  1  0.067575  0  0.10545  0.10926  0  0.987464  0
H  H27  1  0.08082750  0.62566428  0.21832741  1  0.067343  0  0.105435  0.109213  0  0.987571  0
H  H28  1  0.64666804  0.39284859  0.47869633  1  0.60067  0  0.356722  0.434669  0  0.846041  0
H  H29  1  0.14666679  0.60715106  0.52129066  1  0.601338  0  0.356708  0.434588  0  0.846077  0
H  H30  1  0.61916499  0.10702997  0.01905953  1  0.601655  0  0.356061  0.433638  0  0.847601  0
H  H31  1  0.11916462  0.89297207  0.98094941  1  0.601669  0  0.356071  0.433668  0  0.847584  0
C  C32  1  0.64562526  0.58150490  0.41844232  1  1.566853  0  0.266905  0.645462  0  4.091162  0
C  C33  1  0.14561089  0.41849368  0.58156357  1  1.567392  0  0.266831  0.64554  0  4.090752  0
C  C34  1  0.64411169  0.61310316  0.61140167  1  1.55552  0  0.258609  0.675892  0  4.11958  0
C  C35  1  0.14413189  0.38689678  0.38860479  1  1.5552  0  0.258651  0.676128  0  4.119576  0
C  C36  1  0.28335800  0.21391021  0.21542405  1  0.012778  0  -0.067662  -0.023747  0  3.976899  0
C  C37  1  0.78336764  0.78607619  0.78458170  1  0.013136  0  -0.067749  -0.023843  0  3.976928  0
C  C38  1  0.11479373  0.18005137  0.18061310  1  -0.101962  0  -0.083754  -0.228948  0  3.86934  0
C  C39  1  0.61481230  0.81996209  0.81938518  1  -0.102081  0  -0.083872  -0.22916  0  3.869327  0
C  C40  1  0.29261072  0.28071624  0.28272808  1  -0.041707  0  -0.067721  -0.023509  0  3.983929  0
C  C41  1  0.79260245  0.71927713  0.71727275  1  -0.041371  0  -0.067729  -0.023522  0  3.98401  0
C  C42  1  0.13243072  0.31958787  0.31993024  1  -0.017572  0  -0.083543  -0.228586  0  3.881504  0
C  C43  1  0.63241793  0.68041198  0.68007582  1  -0.017801  0  -0.083433  -0.22855  0  3.881573  0
C  C44  1  0.30270659  0.37327957  0.67988362  1  -0.020842  0  -0.081586  -0.150912  0  3.932925  0
C  C45  1  0.80272359  0.62672139  0.32012093  1  -0.020867  0  -0.081529  -0.150764  0  3.932735  0
C  C46  1  0.14297713  0.36902630  0.63232384  1  -0.009092  0  -0.019151  -0.041181  0  4.024605  0
C  C47  1  0.64298690  0.63097346  0.36768209  1  -0.009303  0  -0.019144  -0.041102  0  4.024505  0
C  C48  1  0.97990689  0.31791228  0.63116090  1  -0.000795  0  -0.082046  -0.146816  0  3.939189  0
C  C49  1  0.47990920  0.68208488  0.36884310  1  -0.001037  0  -0.082117  -0.147033  0  3.93938  0
C  C50  1  0.97520144  0.26840687  0.67616788  1  -0.043366  0  -0.009066  0.071491  0  4.052744  0
C  C51  1  0.47520048  0.73159169  0.32383511  1  -0.042876  0  -0.009056  0.071521  0  4.052772  0
C  C52  1  0.13541079  0.27396031  0.72623356  1  -0.014348  0  0.002349  -3.7e-05  0  3.915713  0
C  C53  1  0.63541104  0.72603421  0.27376541  1  -0.014223  0  0.002435  3.3e-05  0  3.915749  0
C  C54  1  0.29962598  0.32785929  0.72849215  1  -0.01552  0  -0.008352  0.073827  0  4.04283  0
C  C55  1  0.79963223  0.67213789  0.27150809  1  -0.015558  0  -0.008344  0.073875  0  4.042661  0
C  C56  1  0.81485473  0.21260674  0.67394832  1  -0.007044  0  -0.089036  -0.130243  0  4.016279  0
C  C57  1  0.31484633  0.78739045  0.32605551  1  -0.006952  0  -0.088988  -0.130151  0  4.016227  0
C  C58  1  0.81112242  0.16628713  0.71939178  1  -0.069788  0  -0.088962  -0.129877  0  4.015258  0
C  C59  1  0.31111965  0.83370833  0.28061371  1  -0.069757  0  -0.088963  -0.129734  0  4.015111  0
C  C60  1  0.96724342  0.17181919  0.77127628  1  -0.008721  0  -0.008881  0.072332  0  4.044567  0
C  C61  1  0.46723452  0.82817690  0.22872786  1  -0.008468  0  -0.008828  0.072216  0  4.044537  0
C  C62  1  0.13126436  0.22584498  0.77364283  1  -0.031231  0  0.00228  0.000629  0  3.915511  0
C  C63  1  0.63125989  0.77414649  0.22635563  1  -0.031672  0  0.002255  0.000751  0  3.915598  0
C  C64  1  0.29124643  0.23147667  0.82381155  1  -0.051883  0  -0.009245  0.072398  0  4.051729  0
C  C65  1  0.79123726  0.76851507  0.17618281  1  -0.05158  0  -0.009284  0.07232  0  4.051801  0
C  C66  1  0.45191750  0.28707673  0.82584661  1  -0.091763  0  -0.088929  -0.130481  0  4.016722  0
C  C67  1  0.95191727  0.71291675  0.17414799  1  -0.092751  0  -0.088872  -0.130347  0  4.016794  0
C  C68  1  0.45598614  0.33322368  0.78024638  1  0.006766  0  -0.089007  -0.129415  0  4.015378  0
C  C69  1  0.95598477  0.66676976  0.21974816  1  0.00766  0  -0.089075  -0.129515  0  4.015521  0
C  C70  1  0.96383545  0.12658933  0.82002067  1  -0.035228  0  -0.081309  -0.149568  0  3.933156  0
C  C71  1  0.46382028  0.87339894  0.17997914  1  -0.035262  0  -0.081298  -0.149735  0  3.933136  0
C  C72  1  0.12285347  0.13119575  0.86794650  1  -0.00862  0  -0.019158  -0.041266  0  4.025967  0
C  C73  1  0.62283648  0.86879577  0.13205368  1  -0.008207  0  -0.019162  -0.041072  0  4.025699  0
C  C74  1  0.28599089  0.18230846  0.86914549  1  0.002029  0  -0.08267  -0.148926  0  3.940146  0
C  C75  1  0.78597846  0.81768156  0.13085054  1  0.002255  0  -0.082697  -0.14908  0  3.940358  0
C  C76  1  0.61900814  0.88740297  0.88825996  1  1.561655  0  0.258843  0.675758  0  4.120774  0
C  C77  1  0.11900308  0.11260266  0.11174253  1  1.562277  0  0.258801  0.675639  0  4.120741  0
C  C78  1  0.61925641  0.91805726  0.08114776  1  1.565556  0  0.266869  0.646236  0  4.091296  0
C  C79  1  0.11926304  0.08194135  0.91885791  1  1.565923  0  0.266731  0.646086  0  4.09193  0
O  O80  1  0.47468940  0.58603032  0.58400308  1  -1.251989  0  -0.239345  -0.59776  0  2.317725  0
O  O81  1  0.97470054  0.41396894  0.41600532  1  -1.251974  0  -0.239371  -0.59794  0  2.31771  0
O  O82  1  0.81600516  0.56191868  0.43716081  1  -1.251029  0  -0.237623  -0.594012  0  2.335636  0
O  O83  1  0.31598741  0.43808064  0.56284248  1  -1.252303  0  -0.237688  -0.594043  0  2.335386  0
O  O84  1  0.81490772  0.58782832  0.58446588  1  -1.261909  0  -0.239041  -0.600532  0  2.311301  0
O  O85  1  0.31492339  0.41217333  0.41553745  1  -1.261874  0  -0.239045  -0.600593  0  2.311466  0
O  O86  1  0.97643572  0.43611670  0.56022728  1  -1.262344  0  -0.238468  -0.59688  0  2.342932  0
O  O87  1  0.47644605  0.56388467  0.43978057  1  -1.262878  0  -0.238589  -0.596855  0  2.343014  0
O  O88  1  0.64551620  0.45166316  0.49277390  1  -1.404401  0  -0.448543  -0.998322  0  2.215265  0
O  O89  1  0.14551816  0.54833698  0.50723146  1  -1.405097  0  -0.448509  -0.998264  0  2.215397  0
O  O90  1  0.78787657  0.93493254  0.05885547  1  -1.257752  0  -0.237932  -0.597401  0  2.343711  0
O  O91  1  0.28787310  0.06509306  0.94117535  1  -1.258164  0  -0.237869  -0.59734  0  2.344008  0
O  O92  1  0.44891913  0.91309407  0.91609871  1  -1.256484  0  -0.241403  -0.599696  0  2.295207  0
O  O93  1  0.94891407  0.08692361  0.08389556  1  -1.256203  0  -0.241381  -0.599691  0  2.295111  0
O  O94  1  0.44856110  0.93835051  0.06327722  1  -1.260032  0  -0.237306  -0.594315  0  2.336171  0
O  O95  1  0.94856506  0.06163319  0.93671410  1  -1.260016  0  -0.237197  -0.594197  0  2.336336  0
O  O96  1  0.28901732  0.08602169  0.08520602  1  -1.262996  0  -0.238488  -0.601168  0  2.342914  0
O  O97  1  0.78902087  0.91396095  0.91481421  1  -1.26244  0  -0.238491  -0.601277  0  2.342945  0
O  O98  1  0.61924205  0.04842084  0.00754102  1  -1.405993  0  -0.447784  -0.997665  0  2.217073  0
O  O99  1  0.11924152  0.95158163  0.99246576  1  -1.405998  0  -0.447827  -0.997693  0  2.217035  0
