# generated using pymatgen
data_CuH12C14IN4
_symmetry_space_group_name_H-M   'P 1'
_cell_length_a   10.00328966
_cell_length_b   11.62454159
_cell_length_c   13.80120000
_cell_angle_alpha   95.66325441
_cell_angle_beta   90.22681154
_cell_angle_gamma   94.06988482
_symmetry_Int_Tables_number   1
_chemical_formula_structural   CuH12C14IN4
_chemical_formula_sum   'Cu4 H48 C56 I4 N16'
_cell_volume   1592.89633111
_cell_formula_units_Z   4
loop_
 _symmetry_equiv_pos_site_id
 _symmetry_equiv_pos_as_xyz
  1  'x, y, z'
loop_
 _atom_site_type_symbol
 _atom_site_label
 _atom_site_symmetry_multiplicity
 _atom_site_fract_x
 _atom_site_fract_y
 _atom_site_fract_z
 _atom_site_occupancy
 _atom_site_hle17_bader_spin_density
 _atom_site_hle17_ddec_charge
 _atom_site_hle17_ddec_spin_density
 _atom_site_hle17_ddec_sum_bond_order
 _atom_site_hle17_magmom
 _atom_site_hse06_10hf_bader_spin_density
 _atom_site_hse06_10hf_ddec_charge
 _atom_site_hse06_10hf_ddec_spin_density
 _atom_site_hse06_10hf_ddec_sum_bond_order
 _atom_site_hse06_10hf_magmom
 _atom_site_hse06_bader_spin_density
 _atom_site_hse06_ddec_charge
 _atom_site_hse06_ddec_spin_density
 _atom_site_hse06_ddec_sum_bond_order
 _atom_site_hse06_magmom
 _atom_site_pbe_bader_charge
 _atom_site_pbe_bader_spin_density
 _atom_site_pbe_cm5_charge
 _atom_site_pbe_ddec_charge
 _atom_site_pbe_ddec_spin_density
 _atom_site_pbe_ddec_sum_bond_order
 _atom_site_pbe_magmom
Cu  Cu0  1  0.11952119  0.53498962  0.54090619  1  0  0.262853  0  2.175192  0  0  0.157665  0  2.684368  0  0  0.164821  0  2.632285  0  0.500932  0  0.339398  0.156843  0  2.716202  0
Cu  Cu1  1  0.88047629  0.46500793  0.45909266  1  0  0.262899  0  2.175105  0  0  0.157735  0  2.684266  0  0  0.164825  0  2.632291  0  0.500991  0  0.339404  0.156925  0  2.716101  0
Cu  Cu2  1  0.62323422  0.53827788  0.96597275  1  0  0.267941  0  2.160674  0  0  0.160818  0  2.669256  0  0  0.167342  0  2.618345  0  0.507591  0  0.342976  0.160399  0  2.700901  0
Cu  Cu3  1  0.37676141  0.46172141  0.03402551  1  0  0.267946  0  2.160735  0  0  0.160789  0  2.66933  0  0  0.167269  0  2.618412  0  0.507656  0  0.342968  0.160371  0  2.700974  0
H  H4  1  0.29128474  0.70021470  0.44016538  1  0  0.076394  0  0.953535  0  0  0.085401  0  1.016537  0  0  0.088325  0  1.013744  0  0.100162  0  0.108135  0.083048  0  1.01888  0
H  H5  1  0.70871903  0.29978632  0.55983812  1  0  0.076423  0  0.95349  0  0  0.085415  0  1.016505  0  0  0.088341  0  1.013711  0  0.100163  0  0.108171  0.083061  0  1.01885  0
H  H6  1  0.50053014  0.70303061  0.34157875  1  0  0.116808  0  0.929867  0  0  0.131115  0  0.979587  0  0  0.13453  0  0.978929  0  0.094252  0  0.111919  0.128319  0  0.981075  0
H  H7  1  0.49947262  0.29697041  0.65842040  1  0  0.116834  0  0.92986  0  0  0.131131  0  0.979595  0  0  0.134541  0  0.978936  0  0.094263  0  0.111921  0.128334  0  0.981082  0
H  H8  1  0.50902524  0.33634806  0.36956940  1  0  0.113449  0  0.937054  0  0  0.126503  0  0.990468  0  0  0.129264  0  0.990756  0  0.107248  0  0.112757  0.124492  0  0.990474  0
H  H9  1  0.49097331  0.66365036  0.63042953  1  0  0.113453  0  0.937069  0  0  0.126524  0  0.990454  0  0  0.129282  0  0.990751  0  0.107203  0  0.112761  0.124512  0  0.99046  0
H  H10  1  0.29835842  0.34902354  0.46460521  1  0  0.072986  0  0.955293  0  0  0.081939  0  1.018636  0  0  0.084701  0  1.016378  0  0.111567  0  0.10342  0.079664  0  1.020857  0
H  H11  1  0.70163921  0.65097574  0.53539451  1  0  0.072995  0  0.955274  0  0  0.081952  0  1.018626  0  0  0.084713  0  1.016366  0  0.111587  0  0.10343  0.079675  0  1.020849  0
H  H12  1  0.63450058  0.55402062  0.22118426  1  0  0.09944  0  0.949028  0  0  0.109521  0  1.022308  0  0  0.111583  0  1.020762  0  0.108087  0  0.109834  0.107883  0  1.023537  0
H  H13  1  0.36549797  0.44597780  0.77881539  1  0  0.099416  0  0.948977  0  0  0.10947  0  1.022269  0  0  0.111532  0  1.020722  0  0.108123  0  0.109816  0.107836  0  1.023496  0
H  H14  1  0.72916267  0.58200463  0.33177317  1  0  0.100871  0  0.939834  0  0  0.111006  0  1.012064  0  0  0.114137  0  1.008976  0  0.113388  0  0.110645  0.107702  0  1.015786  0
H  H15  1  0.27083495  0.41799466  0.66822799  1  0  0.100882  0  0.939911  0  0  0.110992  0  1.012118  0  0  0.114117  0  1.009038  0  0.113269  0  0.11065  0.107691  0  1.015839  0
H  H16  1  0.59165005  0.32713070  0.15607842  1  0  0.135435  0  0.959627  0  0  0.136509  0  1.03992  0  0  0.141096  0  1.034589  0  0.175179  0  0.124531  0.132953  0  1.044035  0
H  H17  1  0.40835050  0.67286772  0.84392268  1  0  0.135406  0  0.959648  0  0  0.136482  0  1.03993  0  0  0.141069  0  1.034602  0  0.175191  0  0.124516  0.132926  0  1.044048  0
H  H18  1  0.57527560  0.12089684  0.09966122  1  0  0.085907  0  0.980186  0  0  0.09413  0  1.051306  0  0  0.096916  0  1.049406  0  0.051526  0  0.093883  0.092072  0  1.052798  0
H  H19  1  0.42472616  0.87910418  0.90033575  1  0  0.085907  0  0.980161  0  0  0.094146  0  1.051263  0  0  0.09693  0  1.049367  0  0.051604  0  0.093904  0.092089  0  1.052754  0
H  H20  1  0.59711259  0.93168253  0.00117629  1  0  0.083524  0  0.974599  0  0  0.094208  0  1.039152  0  0  0.096516  0  1.038122  0  0.04916  0  0.093238  0.092371  0  1.040299  0
H  H21  1  0.40289110  0.06831762  0.99882134  1  0  0.083481  0  0.974584  0  0  0.094194  0  1.039136  0  0  0.096501  0  1.038108  0  0.049255  0  0.093232  0.092358  0  1.040286  0
H  H22  1  0.80989737  0.83697302  0.00078735  1  0  0.082819  0  0.96359  0  0  0.091472  0  1.029054  0  0  0.09404  0  1.028139  0  0.066139  0  0.093545  0.089722  0  1.029548  0
H  H23  1  0.19010633  0.16302713  0.99921174  1  0  0.082758  0  0.963567  0  0  0.091418  0  1.029035  0  0  0.093987  0  1.028118  0  0.066156  0  0.093531  0.089667  0  1.029529  0
H  H24  1  0.00176790  0.92572917  0.10761599  1  0  0.089835  0  0.944104  0  0  0.103373  0  0.997137  0  0  0.105901  0  0.997111  0  0.051827  0  0.099517  0.101648  0  0.9971  0
H  H25  1  0.99823601  0.07427359  0.89238330  1  0  0.089836  0  0.944072  0  0  0.103406  0  0.99707  0  0  0.105938  0  0.997038  0  0.051705  0  0.099544  0.101679  0  0.997034  0
H  H26  1  0.97640789  0.10951881  0.21058653  1  0  0.087702  0  0.996843  0  0  0.094406  0  1.06854  0  0  0.096441  0  1.068656  0  0.115422  0  0.094305  0.092944  0  1.068457  0
H  H27  1  0.02359081  0.89048135  0.78941036  1  0  0.087699  0  0.996761  0  0  0.094393  0  1.068471  0  0  0.09643  0  1.06859  0  0.115556  0  0.094278  0.09293  0  1.068389  0
H  H28  1  0.80379954  0.35376613  0.00810543  1  0  0.071707  0  0.956586  0  0  0.08101  0  1.020031  0  0  0.083743  0  1.017875  0  0.096217  0  0.102859  0.079068  0  1.021603  0
H  H29  1  0.19619887  0.64623056  0.99189480  1  0  0.071738  0  0.956579  0  0  0.081034  0  1.020024  0  0  0.083769  0  1.017865  0  0.096271  0  0.102891  0.079093  0  1.021596  0
H  H30  1  0.01629865  0.34037648  0.09918636  1  0  0.111472  0  0.941509  0  0  0.123646  0  0.998154  0  0  0.126087  0  0.998866  0  0.084368  0  0.110992  0.121714  0  0.998113  0
H  H31  1  0.98369911  0.65962454  0.90081495  1  0  0.111501  0  0.941536  0  0  0.123667  0  0.998182  0  0  0.126112  0  0.998889  0  0.084795  0  0.111012  0.121734  0  0.998141  0
H  H32  1  0.99879326  0.70259813  0.20262812  1  0  0.112842  0  0.94577  0  0  0.124689  0  1.002355  0  0  0.127976  0  1.001823  0  0.094523  0  0.106631  0.122133  0  1.003459  0
H  H33  1  0.00120094  0.29740809  0.79736999  1  0  0.112779  0  0.945758  0  0  0.124676  0  1.002313  0  0  0.127945  0  1.001801  0  0.0946  0  0.106582  0.12212  0  1.003418  0
H  H34  1  0.78460666  0.69965221  0.10867970  1  0  0.073232  0  0.969281  0  0  0.079984  0  1.038213  0  0  0.082739  0  1.035858  0  0.112551  0  0.104729  0.078045  0  1.039596  0
H  H35  1  0.21538882  0.30034534  0.89131697  1  0  0.073256  0  0.969253  0  0  0.080008  0  1.038184  0  0  0.082765  0  1.035829  0  0.112644  0  0.104752  0.078069  0  1.039566  0
H  H36  1  0.23517780  0.58186596  0.18084931  1  0  0.099366  0  0.94297  0  0  0.109783  0  1.016357  0  0  0.112954  0  1.013386  0  0.126537  0  0.109082  0.106468  0  1.02002  0
H  H37  1  0.76481911  0.41813680  0.81915286  1  0  0.099362  0  0.942955  0  0  0.109807  0  1.016377  0  0  0.112978  0  1.013409  0  0.126478  0  0.10907  0.10649  0  1.02004  0
H  H38  1  0.14353615  0.55686426  0.28849364  1  0  0.098346  0  0.948215  0  0  0.108255  0  1.021831  0  0  0.110125  0  1.020691  0  0.148066  0  0.109769  0.10676  0  1.022863  0
H  H39  1  0.85646091  0.44314023  0.71150650  1  0  0.098332  0  0.948218  0  0  0.108271  0  1.021845  0  0  0.11014  0  1.020708  0  0.148102  0  0.109752  0.106775  0  1.022875  0
H  H40  1  0.08918149  0.33069977  0.31417750  1  0  0.135687  0  0.965036  0  0  0.136537  0  1.045608  0  0  0.141485  0  1.039647  0  0.179738  0  0.126029  0.132795  0  1.050065  0
H  H41  1  0.91081928  0.66930125  0.68582527  1  0  0.135729  0  0.965009  0  0  0.136586  0  1.045568  0  0  0.141526  0  1.039616  0  0.179676  0  0.126041  0.132844  0  1.050026  0
H  H42  1  0.09641120  0.15028317  0.37574282  1  0  0.088409  0  0.985296  0  0  0.095557  0  1.056047  0  0  0.0984  0  1.054718  0  0.092535  0  0.087335  0.09335  0  1.057331  0
H  H43  1  0.90359435  0.84971525  0.62426047  1  0  0.088496  0  0.985299  0  0  0.095606  0  1.056068  0  0  0.098446  0  1.054745  0  0.092417  0  0.087351  0.093398  0  1.057354  0
H  H44  1  0.07569228  0.94830843  0.41926343  1  0  0.089721  0  0.954207  0  0  0.100937  0  1.01161  0  0  0.104007  0  1.010296  0  0.084618  0  0.092339  0.098417  0  1.013065  0
H  H45  1  0.92430919  0.05168912  0.58073543  1  0  0.089724  0  0.954128  0  0  0.100938  0  1.011545  0  0  0.10401  0  1.010227  0  0.084663  0  0.092325  0.098418  0  1.012999  0
H  H46  1  0.20878612  0.79926377  0.33306854  1  0  0.070717  0  0.99643  0  0  0.078602  0  1.067337  0  0  0.081075  0  1.066483  0  0.049166  0  0.081592  0.076491  0  1.068619  0
H  H47  1  0.79121850  0.20073551  0.66693264  1  0  0.070737  0  0.996372  0  0  0.078611  0  1.067287  0  0  0.081099  0  1.066423  0  0.049191  0  0.0816  0.07651  0  1.068559  0
H  H48  1  0.36933057  0.85355646  0.20353981  1  0  0.083428  0  1.003453  0  0  0.092719  0  1.068235  0  0  0.0956  0  1.067199  0  0.088553  0  0.077104  0.090646  0  1.069046  0
H  H49  1  0.63067534  0.14644629  0.79646457  1  0  0.083416  0  1.003439  0  0  0.092721  0  1.06822  0  0  0.095604  0  1.067184  0  0.088568  0  0.077109  0.090648  0  1.069032  0
H  H50  1  0.38863682  0.05491498  0.15859231  1  0  0.087261  0  0.986559  0  0  0.095657  0  1.055965  0  0  0.098244  0  1.054626  0  0.082157  0  0.097177  0.093902  0  1.05669  0
H  H51  1  0.61136165  0.94508258  0.84140727  1  0  0.087187  0  0.98652  0  0  0.095562  0  1.055954  0  0  0.098144  0  1.054628  0  0.082236  0  0.097147  0.093808  0  1.056678  0
C  C52  1  0.34334903  0.62162062  0.42233173  1  0  0.113356  0  3.718596  0  0  0.085521  0  3.968346  0  0  0.092297  0  3.985016  0  0.455051  0  0.033613  0.081147  0  3.957523  0
C  C53  1  0.65664953  0.37837780  0.57766719  1  0  0.113357  0  3.718546  0  0  0.085546  0  3.968295  0  0  0.092308  0  3.984949  0  0.455009  0  0.033617  0.081171  0  3.957474  0
C  C54  1  0.45975215  0.62255492  0.36806625  1  0  -0.168383  0  3.708622  0  0  -0.184617  0  3.95177  0  0  -0.192785  0  3.972792  0  -0.019689  0  -0.086506  -0.179927  0  3.938767  0
C  C55  1  0.54024961  0.37744610  0.63193507  1  0  -0.168446  0  3.708663  0  0  -0.184672  0  3.951795  0  0  -0.192835  0  3.972816  0  -0.019689  0  -0.08649  -0.179985  0  3.938802  0
C  C56  1  0.52366749  0.51936822  0.34831888  1  0  0.136238  0  3.712111  0  0  0.149197  0  3.960125  0  0  0.154936  0  3.981126  0  -0.00456  0  0.009754  0.144777  0  3.946538  0
C  C57  1  0.47633314  0.48063107  0.65168084  1  0  0.136277  0  3.712102  0  0  0.149243  0  3.960028  0  0  0.154982  0  3.981033  0  -0.004574  0  0.009727  0.144825  0  3.946444  0
C  C58  1  0.46492965  0.41935711  0.38321067  1  0  -0.162168  0  3.715742  0  0  -0.18831  0  3.971983  0  0  -0.196765  0  3.995223  0  -0.084378  0  -0.088655  -0.182528  0  3.956556  0
C  C59  1  0.53506983  0.58064044  0.61678746  1  0  -0.162265  0  3.715844  0  0  -0.188404  0  3.972073  0  0  -0.196863  0  3.995317  0  -0.084254  0  -0.088673  -0.182621  0  3.956646  0
C  C60  1  0.34731750  0.42568662  0.43632441  1  0  0.12011  0  3.721547  0  0  0.094721  0  3.970408  0  0  0.101371  0  3.988285  0  0.49075  0  0.036992  0.09011  0  3.958562  0
C  C61  1  0.65268313  0.57431267  0.56367604  1  0  0.120173  0  3.721592  0  0  0.094762  0  3.9705  0  0  0.101403  0  3.988359  0  0.490481  0  0.037018  0.090151  0  3.958655  0
C  C62  1  0.65243771  0.52201512  0.29239950  1  0  -0.073963  0  3.641545  0  0  -0.146422  0  3.877516  0  0  -0.144231  0  3.88504  0  0.28052  0  -0.043203  -0.147717  0  3.873491  0
C  C63  1  0.34756091  0.47798416  0.70759949  1  0  -0.073992  0  3.641526  0  0  -0.146305  0  3.87742  0  0  -0.14411  0  3.884942  0  0.280606  0  -0.04318  -0.147609  0  3.873401  0
C  C64  1  0.67312607  0.32247999  0.20748130  1  0  -0.075216  0  3.598921  0  0  -0.139178  0  3.860012  0  0  -0.134621  0  3.873078  0  0.375098  0  0.031422  -0.141873  0  3.851371  0
C  C65  1  0.32687540  0.67751756  0.79251901  1  0  -0.075186  0  3.598793  0  0  -0.139091  0  3.859932  0  0  -0.134532  0  3.872999  0  0.375097  0  0.031477  -0.141786  0  3.851289  0
C  C66  1  0.76205790  0.23814055  0.21949065  1  0  0.101826  0  3.823973  0  0  0.100036  0  4.086221  0  0  0.099947  0  4.106965  0  0.409063  0  0.092903  0.099873  0  4.072128  0
C  C67  1  0.23793972  0.76185874  0.78051124  1  0  0.101764  0  3.824045  0  0  0.099967  0  4.086282  0  0  0.099876  0  4.10703  0  0.409129  0  0.092856  0.099804  0  4.072189  0
C  C68  1  0.77452634  0.12723416  0.16177465  1  0  0.032441  0  3.828012  0  0  0.054339  0  4.04723  0  0  0.053691  0  4.071977  0  -0.000811  0  -0.0132  0.055073  0  4.030137  0
C  C69  1  0.22547464  0.87276947  0.83822181  1  0  0.032494  0  3.828046  0  0  0.054408  0  4.047244  0  0  0.053761  0  4.071988  0  -0.001086  0  -0.013163  0.055141  0  4.030151  0
C  C70  1  0.66795572  0.07704183  0.10175617  1  0  -0.114453  0  3.746615  0  0  -0.133894  0  3.98619  0  0  -0.137069  0  4.008409  0  -0.100264  0  -0.094482  -0.131755  0  3.971022  0
C  C71  1  0.33204497  0.92295833  0.89824291  1  0  -0.11445  0  3.746604  0  0  -0.133902  0  3.986179  0  0  -0.137075  0  4.008396  0  -0.100065  0  -0.094505  -0.131762  0  3.971012  0
C  C72  1  0.68089212  0.97229869  0.04564195  1  0  -0.062621  0  3.789009  0  0  -0.075759  0  4.036388  0  0  -0.077533  0  4.059241  0  0.09042  0  -0.096161  -0.074716  0  4.021477  0
C  C73  1  0.31910958  0.02770146  0.95435712  1  0  -0.062612  0  3.789  0  0  -0.075792  0  4.036393  0  0  -0.077567  0  4.059247  0  0.090308  0  -0.096185  -0.074752  0  4.021485  0
C  C74  1  0.80072298  0.91758825  0.04691107  1  0  -0.074304  0  3.781143  0  0  -0.090207  0  4.033316  0  0  -0.09244  0  4.055248  0  -0.117187  0  -0.09675  -0.088623  0  4.018356  0
C  C75  1  0.19927857  0.08241017  0.95308714  1  0  -0.074268  0  3.781104  0  0  -0.09017  0  4.033275  0  0  -0.092405  0  4.055214  0  -0.117178  0  -0.096749  -0.088587  0  4.018316  0
C  C76  1  0.90725875  0.96698669  0.10631496  1  0  -0.072703  0  3.792926  0  0  -0.082767  0  4.037883  0  0  -0.084693  0  4.059693  0  -0.055051  0  -0.094089  -0.081444  0  4.022625  0
C  C77  1  0.09274501  0.03301434  0.89368129  1  0  -0.072656  0  3.793058  0  0  -0.08275  0  4.038001  0  0  -0.084679  0  4.059815  0  -0.054918  0  -0.094098  -0.081425  0  4.02274  0
C  C78  1  0.89397368  0.07093679  0.16389908  1  0  -0.103353  0  3.729587  0  0  -0.12371  0  3.969138  0  0  -0.126099  0  3.990486  0  -0.028152  0  -0.093152  -0.121743  0  3.954226  0
C  C79  1  0.10602716  0.92906509  0.83610158  1  0  -0.1034  0  3.729668  0  0  -0.123758  0  3.969218  0  0  -0.126151  0  3.990573  0  -0.028325  0  -0.09314  -0.121788  0  3.954304  0
C  C80  1  0.85129618  0.42940563  0.05165665  1  0  0.119577  0  3.72563  0  0  0.092928  0  3.974032  0  0  0.099654  0  3.991847  0  0.500491  0  0.036077  0.088381  0  3.962034  0
C  C81  1  0.14870038  0.57059279  0.94834372  1  0  0.119605  0  3.725665  0  0  0.092965  0  3.974027  0  0  0.099697  0  3.991843  0  0.500444  0  0.0361  0.088417  0  3.962031  0
C  C82  1  0.97026182  0.42281004  0.10259460  1  0  -0.162129  0  3.717899  0  0  -0.186623  0  3.973477  0  0  -0.194932  0  3.996934  0  -0.021043  0  -0.089601  -0.181044  0  3.95798  0
C  C83  1  0.02973388  0.57719011  0.89740590  1  0  -0.162225  0  3.718197  0  0  -0.18671  0  3.973733  0  0  -0.195022  0  3.997188  0  -0.021735  0  -0.089654  -0.181132  0  3.958238  0
C  C84  1  0.02761228  0.52159217  0.15712376  1  0  0.133211  0  3.710121  0  0  0.145488  0  3.958264  0  0  0.151004  0  3.979349  0  -0.05888  0  0.008359  0.141325  0  3.944499  0
C  C85  1  0.97238363  0.47841058  0.84287914  1  0  0.133231  0  3.710205  0  0  0.145581  0  3.958332  0  0  0.151102  0  3.979412  0  -0.058412  0  0.008359  0.141416  0  3.944568  0
C  C86  1  0.95995427  0.62339562  0.15962509  1  0  -0.166284  0  3.703643  0  0  -0.181651  0  3.944621  0  0  -0.189731  0  3.965563  0  -0.049387  0  -0.08724  -0.176991  0  3.931412  0
C  C87  1  0.04004172  0.37660800  0.84037643  1  0  -0.166182  0  3.703518  0  0  -0.181605  0  3.944473  0  0  -0.18967  0  3.965418  0  -0.049677  0  -0.087188  -0.176945  0  3.931264  0
C  C88  1  0.84104012  0.62252372  0.10730579  1  0  0.115213  0  3.708011  0  0  0.087542  0  3.955738  0  0  0.094506  0  3.972135  0  0.486324  0  0.033924  0.083194  0  3.944742  0
C  C89  1  0.15895750  0.37747557  0.89268957  1  0  0.115046  0  3.707939  0  0  0.087359  0  3.955688  0  0  0.094326  0  3.97208  0  0.486172  0  0.03382  0.08301  0  3.944694  0
C  C90  1  0.15835725  0.52374939  0.21196696  1  0  -0.070799  0  3.636872  0  0  -0.143047  0  3.874302  0  0  -0.140972  0  3.88209  0  0.21908  0  -0.043415  -0.144247  0  3.870037  0
C  C91  1  0.84163852  0.47625163  0.78803435  1  0  -0.070679  0  3.636484  0  0  -0.143115  0  3.874204  0  0  -0.141046  0  3.881996  0  0.219139  0  -0.043386  -0.144304  0  3.869927  0
C  C92  1  0.17029366  0.32334929  0.26241243  1  0  -0.075681  0  3.609509  0  0  -0.139415  0  3.872686  0  0  -0.134995  0  3.885485  0  0.320094  0  0.031896  -0.142313  0  3.864571  0
C  C93  1  0.82970610  0.67665173  0.73759178  1  0  -0.075636  0  3.60967  0  0  -0.139379  0  3.872808  0  0  -0.134953  0  3.885611  0  0.320477  0  0.031935  -0.142276  0  3.864692  0
C  C94  1  0.24909282  0.23297155  0.23211330  1  0  0.099973  0  3.821262  0  0  0.097087  0  4.086828  0  0  0.097185  0  4.107552  0  0.493758  0  0.092165  0.096761  0  4.072981  0
C  C95  1  0.75090795  0.76702947  0.76788875  1  0  0.099889  0  3.821319  0  0  0.097071  0  4.086805  0  0  0.097168  0  4.107525  0  0.493823  0  0.092167  0.096746  0  4.072957  0
C  C96  1  0.24402709  0.11624527  0.26319823  1  0  0.026509  0  3.820891  0  0  0.047045  0  4.044111  0  0  0.04598  0  4.0694  0  -0.054746  0  -0.013368  0.047927  0  4.026982  0
C  C97  1  0.75596953  0.88375402  0.73679786  1  0  0.026523  0  3.820909  0  0  0.047033  0  4.044124  0  0  0.045981  0  4.069407  0  -0.054604  0  -0.013353  0.047919  0  4.026994  0
C  C98  1  0.15683743  0.08572789  0.33779899  1  0  -0.112401  0  3.740966  0  0  -0.128705  0  3.979017  0  0  -0.131796  0  4.000579  0  -0.025499  0  -0.093709  -0.126518  0  3.964438  0
C  C99  1  0.84316519  0.91427139  0.66220001  1  0  -0.112453  0  3.741124  0  0  -0.128707  0  3.979156  0  0  -0.131805  0  4.000721  0  -0.025251  0  -0.093737  -0.126523  0  3.964577  0
C  C100  1  0.14510777  0.97220942  0.36264055  1  0  -0.067042  0  3.787795  0  0  -0.078198  0  4.031562  0  0  -0.080074  0  4.05326  0  -0.074098  0  -0.096811  -0.076982  0  4.016826  0
C  C101  1  0.85489378  0.02778900  0.63736128  1  0  -0.06713  0  3.787925  0  0  -0.078282  0  4.031688  0  0  -0.080163  0  4.053389  0  -0.074398  0  -0.096817  -0.077068  0  4.016955  0
C  C102  1  0.22081691  0.88826866  0.31424021  1  0  -0.080461  0  3.796555  0  0  -0.095033  0  4.043607  0  0  -0.097382  0  4.066211  0  -0.068201  0  -0.103162  -0.093268  0  4.028753  0
C  C103  1  0.77918956  0.11172889  0.68576229  1  0  -0.080415  0  3.796642  0  0  -0.094982  0  4.043706  0  0  -0.097337  0  4.066299  0  -0.068206  0  -0.10315  -0.093222  0  4.028845  0
C  C104  1  0.30984967  0.91849309  0.24173325  1  0  -0.077494  0  3.798713  0  0  -0.085266  0  4.037764  0  0  -0.087549  0  4.059642  0  -0.084006  0  -0.10191  -0.083876  0  4.023123  0
C  C105  1  0.69015295  0.08150620  0.75826721  1  0  -0.077535  0  3.798834  0  0  -0.08531  0  4.037881  0  0  -0.087598  0  4.059761  0  -0.084019  0  -0.10194  -0.083921  0  4.023242  0
C  C106  1  0.32137215  0.03167095  0.21629182  1  0  -0.097025  0  3.732372  0  0  -0.117725  0  3.972037  0  0  -0.12045  0  3.993927  0  -0.043725  0  -0.091692  -0.115734  0  3.956798  0
C  C107  1  0.67863154  0.96832920  0.78370799  1  0  -0.09692  0  3.732321  0  0  -0.117608  0  3.972037  0  0  -0.120338  0  3.993925  0  -0.043868  0  -0.09165  -0.115621  0  3.956797  0
I  I108  1  0.97656696  0.67800205  0.45025840  1  0  -0.459383  0  1.415898  0  0  -0.407671  0  1.813365  0  0  -0.423328  0  1.776428  0  -0.489413  0  -0.213845  -0.395207  0  1.838372  0
I  I109  1  0.02343080  0.32199897  0.54974291  1  0  -0.459382  0  1.415935  0  0  -0.407663  0  1.813384  0  0  -0.423328  0  1.776468  0  -0.489428  0  -0.213844  -0.395198  0  1.838393  0
I  I110  1  0.47442831  0.67568883  0.07721129  1  0  -0.457002  0  1.450028  0  0  -0.404071  0  1.861193  0  0  -0.419785  0  1.824634  0  -0.490784  0  -0.208585  -0.392283  0  1.885703  0
I  I111  1  0.52556738  0.32431133  0.92278922  1  0  -0.457013  0  1.450083  0  0  -0.404064  0  1.861237  0  0  -0.419783  0  1.824685  0  -0.490875  0  -0.208587  -0.392278  0  1.885748  0
N  N112  1  0.28649289  0.52480763  0.45633542  1  0  -0.285507  0  3.370356  0  0  -0.216603  0  3.66166  0  0  -0.229099  0  3.671073  0  -1.23484  0  -0.36476  -0.209012  0  3.655506  0
N  N113  1  0.71350566  0.47519079  0.54366568  1  0  -0.285514  0  3.370428  0  0  -0.216632  0  3.66177  0  0  -0.229084  0  3.671137  0  -1.23464  0  -0.364808  -0.209045  0  3.65562  0
N  N114  1  0.70988541  0.41081578  0.27572161  1  0  0.066761  0  3.546336  0  0  0.183423  0  3.724303  0  0  0.174451  0  3.74994  0  -0.807369  0  -0.138478  0.189282  0  3.7072  0
N  N115  1  0.29011328  0.58918437  0.72427746  1  0  0.066827  0  3.546267  0  0  0.183272  0  3.724437  0  0  0.174297  0  3.75008  0  -0.807396  0  -0.138544  0.189135  0  3.707332  0
N  N116  1  0.81569004  0.38273644  0.32946470  1  0  -0.080669  0  3.181807  0  0  -0.059608  0  3.507272  0  0  -0.058161  0  3.508232  0  -0.181201  0  -0.144238  -0.061216  0  3.506574  0
N  N117  1  0.18431166  0.61726372  0.67053365  1  0  -0.080536  0  3.181824  0  0  -0.059392  0  3.507272  0  0  -0.057946  0  3.508237  0  -0.181196  0  -0.144146  -0.060995  0  3.506566  0
N  N118  1  0.84720712  0.27874631  0.29496901  1  0  -0.225793  0  2.962448  0  0  -0.215168  0  3.253562  0  0  -0.217517  0  3.263604  0  -0.605197  0  -0.203  -0.213496  0  3.247219  0
N  N119  1  0.15279357  0.72125384  0.70503007  1  0  -0.225857  0  2.962683  0  0  -0.215237  0  3.253775  0  0  -0.217591  0  3.263826  0  -0.605193  0  -0.20299  -0.213566  0  3.247431  0
N  N120  1  0.78689190  0.52741986  0.05285977  1  0  -0.288988  0  3.372795  0  0  -0.217933  0  3.662123  0  0  -0.230498  0  3.671541  0  -1.231051  0  -0.36486  -0.210323  0  3.65622  0
N  N121  1  0.21310665  0.47257856  0.94713988  1  0  -0.288922  0  3.372754  0  0  -0.217836  0  3.662052  0  0  -0.230407  0  3.671466  0  -1.230993  0  -0.364814  -0.210226  0  3.656149  0
N  N122  1  0.21252407  0.41122487  0.21035369  1  0  0.064819  0  3.558568  0  0  0.180574  0  3.73715  0  0  0.17176  0  3.762753  0  -0.807184  0  -0.139766  0.186373  0  3.720015  0
N  N123  1  0.78747392  0.58877875  0.78964856  1  0  0.064675  0  3.558711  0  0  0.180445  0  3.737422  0  0  0.171636  0  3.763026  0  -0.8081  0  -0.139807  0.186242  0  3.720285  0
N  N124  1  0.31255432  0.37787512  0.14893690  1  0  -0.083304  0  3.179912  0  0  -0.061779  0  3.507551  0  0  -0.059748  0  3.507589  0  -0.181567  0  -0.14424  -0.063479  0  3.507148  0
N  N125  1  0.68744666  0.62212850  0.85106681  1  0  -0.083233  0  3.180034  0  0  -0.061748  0  3.507726  0  0  -0.059731  0  3.507792  0  -0.181012  0  -0.144229  -0.063448  0  3.507322  0
N  N126  1  0.33503922  0.27030379  0.16277355  1  0  -0.2311  0  2.952817  0  0  -0.220024  0  3.249253  0  0  -0.222555  0  3.259307  0  -0.593845  0  -0.201975  -0.217804  0  3.242354  0
N  N127  1  0.66496069  0.72969897  0.83722864  1  0  -0.231108  0  2.952852  0  0  -0.220027  0  3.249271  0  0  -0.222555  0  3.259329  0  -0.59399  0  -0.202  -0.217807  0  3.242371  0
