# generated using pymatgen
data_CuH16C10N2ClO2
_symmetry_space_group_name_H-M   'P 1'
_cell_length_a   7.49079817
_cell_length_b   8.74437582
_cell_length_c   10.53845751
_cell_angle_alpha   65.84830544
_cell_angle_beta   70.09467285
_cell_angle_gamma   83.28734510
_symmetry_Int_Tables_number   1
_chemical_formula_structural   CuH16C10N2ClO2
_chemical_formula_sum   'Cu2 H32 C20 N4 Cl2 O4'
_cell_volume   592.03645163
_cell_formula_units_Z   2
loop_
 _symmetry_equiv_pos_site_id
 _symmetry_equiv_pos_as_xyz
  1  'x, y, z'
loop_
 _atom_site_type_symbol
 _atom_site_label
 _atom_site_symmetry_multiplicity
 _atom_site_fract_x
 _atom_site_fract_y
 _atom_site_fract_z
 _atom_site_occupancy
 _atom_site_hle17_ddec_charge
 _atom_site_hle17_ddec_spin_density
 _atom_site_hle17_ddec_sum_bond_order
 _atom_site_hle17_magmom
 _atom_site_hse06_10hf_ddec_charge
 _atom_site_hse06_10hf_ddec_spin_density
 _atom_site_hse06_10hf_ddec_sum_bond_order
 _atom_site_hse06_10hf_magmom
 _atom_site_hse06_ddec_charge
 _atom_site_hse06_ddec_spin_density
 _atom_site_hse06_ddec_sum_bond_order
 _atom_site_hse06_magmom
 _atom_site_pbe_cm5_charge
 _atom_site_pbe_ddec_charge
 _atom_site_pbe_ddec_spin_density
 _atom_site_pbe_ddec_sum_bond_order
 _atom_site_pbe_magmom
Cu  Cu0  1  0.22011483  0.45127474  0.41881339  1  0.800256  -0.623634  1.871022  -0.454  0.795968  -0.761995  2.271722  -0.604  0.896507  -0.85808  2.191555  -0.704  0.629624  0.72883  -0.623143  2.329638  -0.487
Cu  Cu1  1  0.77988580  0.54872737  0.58117867  1  0.800258  0.623633  1.871212  0.454  0.796036  0.761999  2.271846  0.604  0.896455  0.858075  2.19179  0.704  0.629651  0.728894  0.623146  2.329761  0.487
H  H2  1  0.36594977  0.08545970  0.45439484  1  0.113899  -3.2e-05  0.951222  0.0  0.126017  -0.000228  1.005531  -0.001  0.129061  -0.000161  1.003261  -0.001  0.121906  0.123466  -0.000254  1.007486  -0.001
H  H3  1  0.63405497  0.91453989  0.54559995  1  0.113919  3.1e-05  0.951166  0.0  0.126032  0.000228  1.005477  0.001  0.129078  0.000162  1.003204  0.001  0.121915  0.123481  0.000254  1.007431  0.001
H  H4  1  0.21804670  0.89894129  0.35138413  1  0.133955  -0.000734  0.969911  -0.001  0.139279  -0.000577  1.037066  -0.001  0.143805  -0.000416  1.032994  -0.001  0.120646  0.135708  -0.000605  1.040304  -0.001
H  H5  1  0.78195934  0.10105452  0.64861257  1  0.133933  0.000735  0.969936  0.001  0.139253  0.000576  1.037091  0.001  0.143774  0.000416  1.033026  0.001  0.120656  0.135683  0.000605  1.040328  0.001
H  H6  1  0.87764765  0.95572627  0.29442100  1  0.080657  -0.000775  0.933799  0.0  0.09626  -0.000746  0.998041  0.0  0.097123  -0.000561  0.997656  0.0  0.104466  0.095409  -0.000784  0.998678  0.0
H  H7  1  0.12234972  0.04426822  0.70558288  1  0.080615  0.000775  0.933741  0.0  0.096215  0.000746  0.998  0.0  0.097077  0.000561  0.997617  0.0  0.104454  0.095365  0.000784  0.998637  0.0
H  H8  1  0.05336961  0.05152178  0.12243062  1  0.072653  -6.9e-05  0.92694  0.0  0.092068  -0.000101  0.986559  0.0  0.092405  -6.7e-05  0.986366  0.0  0.108847  0.091686  -0.000112  0.986907  0.0
H  H9  1  0.94662650  0.94847526  0.87756891  1  0.072652  7e-05  0.926909  0.0  0.092101  0.000101  0.986504  0.0  0.09244  6.7e-05  0.986309  0.0  0.108869  0.09172  0.000112  0.986851  0.0
H  H10  1  0.88707604  0.32486195  0.08148206  1  0.063207  -5.6e-05  0.944869  0.0  0.082788  -4.2e-05  1.006787  0.0  0.082913  -2.6e-05  1.007697  0.0  0.09039  0.08269  -5e-05  1.006115  0.0
H  H11  1  0.11292271  0.67513377  0.91852395  1  0.063242  5.6e-05  0.944924  0.0  0.08288  4.2e-05  1.006756  0.0  0.083002  2.6e-05  1.007663  0.0  0.090437  0.082783  5e-05  1.006084  0.0
H  H12  1  0.70909797  0.23165282  0.25410127  1  0.071873  -3e-06  0.934948  0.0  0.090872  -6e-06  0.9955  0.0  0.091755  -1e-06  0.996006  0.0  0.091068  0.089986  -9e-06  0.995409  0.0
H  H13  1  0.29090507  0.76834417  0.74590333  1  0.071956  2e-06  0.934897  0.0  0.090959  6e-06  0.995441  0.0  0.091838  1e-06  0.995947  0.0  0.091096  0.090071  9e-06  0.995349  0.0
H  H14  1  0.80695834  0.11681325  0.99954272  1  0.057061  0.000155  0.953064  0.0  0.076442  0.000175  1.015429  0.0  0.077756  0.000127  1.014807  0.0  0.080805  0.075524  0.00019  1.015893  0.0
H  H15  1  0.19303778  0.88318875  0.00045990  1  0.057011  -0.000155  0.953044  0.0  0.076399  -0.000175  1.015409  0.0  0.077714  -0.000127  1.014787  0.0  0.080779  0.075482  -0.00019  1.015874  0.0
H  H16  1  0.62186439  0.03100643  0.16899869  1  0.062448  4e-06  0.934919  0.0  0.084227  -6e-06  0.990504  0.0  0.084952  -1.3e-05  0.991563  0.0  0.086626  0.083496  -2e-06  0.990016  0.0
H  H17  1  0.37813037  0.96899682  0.83100287  1  0.062431  -4e-06  0.934908  0.0  0.0842  6e-06  0.990525  0.0  0.084924  1.3e-05  0.991584  0.0  0.086612  0.083469  2e-06  0.990039  0.0
H  H18  1  0.65459877  0.39536059  0.94477503  1  0.053079  -0.000183  0.953568  0.0  0.07086  -0.000176  1.020766  0.0  0.070627  -0.000162  1.021964  0.0  0.078891  0.070919  -0.000155  1.020094  0.0
H  H19  1  0.34540168  0.60464393  0.05522575  1  0.053143  0.000183  0.953594  0.0  0.070867  0.000176  1.020848  0.0  0.07063  0.000162  1.022055  0.0  0.078899  0.070927  0.000155  1.020175  0.0
H  H20  1  0.46755971  0.31238162  0.11222152  1  0.056222  6.2e-05  0.959234  0.0  0.074903  3.3e-05  1.022626  0.0  0.074593  2.9e-05  1.025165  0.0  0.081272  0.07511  3.1e-05  1.020966  0.0
H  H21  1  0.53243934  0.68762290  0.88777863  1  0.056248  -6.1e-05  0.959314  0.0  0.074935  -3.4e-05  1.022686  0.0  0.074624  -2.9e-05  1.02523  0.0  0.081275  0.075141  -3.1e-05  1.021028  0.0
H  H22  1  0.57092860  0.19551156  0.85907235  1  0.053658  -0.000115  0.950933  0.0  0.071282  -9.5e-05  1.018378  0.0  0.07219  -8.7e-05  1.018415  0.0  0.079161  0.070399  -8.4e-05  1.01873  0.0
H  H23  1  0.42907462  0.80449046  0.14092862  1  0.053651  0.000114  0.950943  0.0  0.071254  9.5e-05  1.018395  0.0  0.072162  8.7e-05  1.018434  0.0  0.079162  0.070373  8.4e-05  1.018745  0.0
H  H24  1  0.38662858  0.10641031  0.02664771  1  0.047999  1.6e-05  0.959415  0.0  0.066049  1.7e-05  1.027015  0.0  0.066715  1.3e-05  1.027779  0.0  0.081552  0.065652  1.7e-05  1.026404  0.0
H  H25  1  0.61337469  0.89359544  0.97335390  1  0.047998  -1.6e-05  0.959356  0.0  0.066028  -1.7e-05  1.026975  0.0  0.066694  -1.3e-05  1.027738  0.0  0.081531  0.065629  -1.7e-05  1.026369  0.0
H  H26  1  0.96174517  0.37463623  0.26495566  1  0.101833  0.000103  0.959057  0.0  0.110569  3e-06  1.023645  0.0  0.113191  -4e-06  1.020034  0.0  0.13087  0.108447  -3e-06  1.026391  0.0
H  H27  1  0.03825508  0.62535829  0.73504565  1  0.101823  -0.000103  0.95905  0.0  0.110558  -3e-06  1.023643  0.0  0.11318  4e-06  1.020034  0.0  0.130846  0.108436  3e-06  1.026387  0.0
H  H28  1  0.22219091  0.38444993  0.97426852  1  0.079766  1.1e-05  0.97223  0.0  0.100812  1.2e-05  1.038934  0.0  0.102151  9e-06  1.039159  0.0  0.077105  0.10001  1.6e-05  1.038539  0.0
H  H29  1  0.77780804  0.61555083  0.02573291  1  0.079795  -1e-05  0.972219  0.0  0.10084  -1.2e-05  1.038923  0.0  0.10218  -9e-06  1.039148  0.0  0.077117  0.100032  -1.6e-05  1.038533  0.0
H  H30  1  0.25715603  0.31455595  0.83169450  1  0.093562  0.000594  0.966198  0.0  0.115701  0.000626  1.026893  0.0  0.118075  0.000477  1.026067  0.0  0.073336  0.11396  0.000654  1.027593  0.0
H  H31  1  0.74284434  0.68544482  0.16830660  1  0.093577  -0.000592  0.966152  0.0  0.115701  -0.000627  1.026869  0.0  0.118076  -0.000477  1.026041  0.0  0.07332  0.113959  -0.000654  1.027568  0.0
H  H32  1  0.40815476  0.47413346  0.80687883  1  0.078307  -0.000329  0.980424  0.0  0.093391  -0.000355  1.059061  0.0  0.093785  -0.000345  1.059328  0.0  0.075507  0.092403  -0.000301  1.059863  0.0
H  H33  1  0.59184568  0.52586981  0.19312142  1  0.078269  0.000329  0.98042  0.0  0.093379  0.000355  1.059023  0.0  0.093771  0.000345  1.059295  0.0  0.075484  0.09239  0.000301  1.059828  0.0
C  C34  1  0.26048239  0.11708418  0.39913893  1  0.007347  -0.001826  3.716393  -0.002  -0.023437  -0.002108  3.991334  -0.002  -0.018837  -0.001187  4.010184  -0.001  -0.002204  -0.02663  -0.00241  3.979885  -0.003
C  C35  1  0.73952373  0.88291291  0.60085542  1  0.007258  0.001826  3.716429  0.002  -0.023519  0.002108  3.991376  0.002  -0.018919  0.001186  4.010213  0.001  -0.002286  -0.026707  0.00241  3.979918  0.003
C  C36  1  0.18980464  0.02520422  0.34718989  1  -0.048487  -0.004208  3.627962  -0.005  -0.089526  -0.002634  3.888429  -0.003  -0.087273  -0.002205  3.903542  -0.003  0.006868  -0.091009  -0.002591  3.878719  -0.003
C  C37  1  0.81020012  0.97479538  0.65280394  1  -0.04845  0.004208  3.627984  0.005  -0.089494  0.002633  3.888473  0.003  -0.087238  0.002204  3.903587  0.003  0.006897  -0.090977  0.002591  3.87876  0.003
C  C38  1  0.95059307  0.07587301  0.21493304  1  0.004518  -0.001617  3.628043  -0.002  -0.059855  -0.001433  3.888486  -0.001  -0.055317  -0.001086  3.899449  -0.001  -0.052664  -0.062706  -0.001497  3.880855  -0.001
C  C39  1  0.04940579  0.92412399  0.78506966  1  0.004735  0.001614  3.627882  0.002  -0.059687  0.001434  3.888393  0.001  -0.055146  0.001085  3.899334  0.001  -0.052597  -0.062539  0.001497  3.880763  0.001
C  C40  1  0.81074440  0.20589148  0.16161451  1  -0.130291  -8e-06  3.701543  0.0  -0.171973  -4e-05  3.964162  0.0  -0.173286  -1.2e-05  3.978436  0.0  -0.164005  -0.17083  -5.9e-05  3.954168  0.0
C  C41  1  0.18925165  0.79410676  0.83838843  1  -0.130528  1e-05  3.701639  0.0  -0.172243  4e-05  3.964266  0.0  -0.173541  1.2e-05  3.97852  0.0  -0.164072  -0.171096  5.9e-05  3.954272  0.0
C  C42  1  0.70352110  0.14741633  0.08864042  1  -0.104825  0.000122  3.695591  0.0  -0.142128  0.000108  3.952369  0.0  -0.143381  6.2e-05  3.966592  0.0  -0.168002  -0.141113  0.00014  3.942381  0.0
C  C43  1  0.29647788  0.85258444  0.91136005  1  -0.104697  -0.000124  3.69556  0.0  -0.142001  -0.000109  3.952341  0.0  -0.143259  -6.1e-05  3.966557  0.0  -0.167967  -0.140992  -0.00014  3.942358  0.0
C  C44  1  0.57104869  0.27976266  0.02446917  1  -0.110506  -4.2e-05  3.696034  0.0  -0.145922  -8.6e-05  3.947627  0.0  -0.147144  -9e-05  3.964497  0.0  -0.17358  -0.144785  -5.5e-05  3.935644  0.0
C  C45  1  0.42895038  0.72024187  0.97553002  1  -0.110633  4.3e-05  3.696358  0.0  -0.146039  8.6e-05  3.947938  0.0  -0.147263  9e-05  3.964812  0.0  -0.173639  -0.144901  5.5e-05  3.935957  0.0
C  C46  1  0.46598546  0.22443378  0.94851201  1  -0.069756  -8.8e-05  3.720654  0.0  -0.105362  -0.00011  3.982774  0.0  -0.106609  -0.000119  3.998747  0.0  -0.17513  -0.104374  -7.7e-05  3.971729  0.0
C  C47  1  0.53401641  0.77557074  0.05148844  1  -0.069723  8.9e-05  3.720613  0.0  -0.105241  0.000111  3.982612  0.0  -0.106489  0.00012  3.998588  0.0  -0.175079  -0.104253  7.7e-05  3.971565  0.0
C  C48  1  0.05276388  0.27189613  0.30069846  1  0.157962  0.005435  3.65801  0.005  0.101906  0.001295  3.925569  0.001  0.118347  0.001981  3.939967  0.002  0.139518  0.091347  0.000698  3.916091  0.001
C  C49  1  0.94723354  0.72809838  0.69930351  1  0.157948  -0.005445  3.658058  -0.005  0.101895  -0.001296  3.92562  -0.001  0.118335  -0.001982  3.940014  -0.002  0.139548  0.091338  -0.000698  3.916137  -0.001
C  C50  1  0.33117450  0.35561178  0.88673695  1  -0.284115  0.000348  3.718196  0.0  -0.355985  0.000279  3.963913  0.0  -0.35868  0.000116  3.975719  0.0  -0.25571  -0.353781  0.000369  3.956028  0.0
C  C51  1  0.66882596  0.64439150  0.11326233  1  -0.284125  -0.000351  3.718138  0.0  -0.356028  -0.000279  3.963856  0.0  -0.358727  -0.000117  3.975667  0.0  -0.255686  -0.353818  -0.00037  3.955976  0.0
C  C52  1  0.53223862  0.41027366  0.51306855  1  0.515218  0.000625  3.926773  0.001  0.478948  0.000543  4.218839  0.001  0.512495  0.00045  4.217856  0.001  0.205899  0.454418  0.000498  4.219095  0.001
C  C53  1  0.46775770  0.58972842  0.48692640  1  0.515415  -0.000622  3.926578  -0.001  0.479163  -0.000543  4.218616  -0.001  0.512711  -0.000451  4.217632  -0.001  0.206045  0.454633  -0.000496  4.218873  -0.001
N  N54  1  0.17389836  0.27083534  0.36943184  1  -0.371893  -0.072212  3.392094  -0.09  -0.334463  -0.052426  3.723695  -0.069  -0.371356  -0.044926  3.746429  -0.062  -0.389024  -0.312292  -0.049123  3.711447  -0.063
N  N55  1  0.82610056  0.72916045  0.63056746  1  -0.371816  0.072217  3.392089  0.09  -0.334407  0.052424  3.723697  0.069  -0.371272  0.044924  3.746415  0.062  -0.388986  -0.312232  0.049122  3.711433  0.063
N  N56  1  0.05947410  0.12511046  0.28509677  1  -0.059897  -0.000996  3.565974  -0.001  0.038303  -0.000889  3.776822  -0.001  0.023299  -0.000614  3.803787  -0.001  -0.237958  0.04816  -0.000948  3.758451  -0.001
N  N57  1  0.94052910  0.87488782  0.71490261  1  -0.059984  0.001  3.565988  0.001  0.038214  0.000889  3.776859  0.001  0.023208  0.000614  3.803827  0.001  -0.238047  0.04807  0.000948  3.758488  0.001
Cl  Cl58  1  0.02521722  0.63933625  0.30994796  1  -0.499196  -0.123934  1.016834  -0.143  -0.513128  -0.079724  1.324389  -0.097  -0.550405  -0.062731  1.29813  -0.078  -0.270659  -0.49106  -0.078269  1.345174  -0.093
Cl  Cl59  1  0.97477056  0.36066951  0.69005248  1  -0.499194  0.123932  1.016847  0.143  -0.513139  0.079722  1.324383  0.097  -0.550408  0.06273  1.298132  0.078  -0.27064  -0.491057  0.07827  1.345161  0.093
O  O60  1  0.43992737  0.32007144  0.48743036  1  -0.513723  -0.048653  2.065458  -0.065  -0.485841  -0.043407  2.324358  -0.063  -0.526787  -0.03659  2.317377  -0.056  -0.289057  -0.45371  -0.040217  2.328127  -0.057
O  O61  1  0.56007720  0.67992435  0.51256858  1  -0.513838  0.048656  2.065442  0.065  -0.485992  0.043409  2.324371  0.063  -0.526913  0.036594  2.317364  0.056  -0.289127  -0.453854  0.040214  2.328132  0.057
O  O62  1  0.67403897  0.36438185  0.55824698  1  -0.51282  0.047618  2.133268  0.063  -0.47905  0.0375  2.396215  0.054  -0.522654  0.031817  2.393174  0.048  -0.286394  -0.445367  0.034492  2.397341  0.048
O  O63  1  0.32595885  0.63562894  0.44175041  1  -0.51286  -0.047616  2.133146  -0.063  -0.479091  -0.037498  2.396093  -0.054  -0.522714  -0.031811  2.393057  -0.048  -0.286436  -0.445414  -0.034494  2.397229  -0.048
