# generated using pymatgen
data_CdH10C13S(NO)4
_symmetry_space_group_name_H-M   'P 1'
_cell_length_a   9.39748246
_cell_length_b   20.07081724
_cell_length_c   20.94772255
_cell_angle_alpha   90.00007314
_cell_angle_beta   89.99999645
_cell_angle_gamma   90.00002378
_symmetry_Int_Tables_number   1
_chemical_formula_structural   CdH10C13S(NO)4
_chemical_formula_sum   'Cd8 H80 C104 S8 N32 O32'
_cell_volume   3951.05789115
_cell_formula_units_Z   8
loop_
 _symmetry_equiv_pos_site_id
 _symmetry_equiv_pos_as_xyz
  1  'x, y, z'
loop_
 _atom_site_type_symbol
 _atom_site_label
 _atom_site_symmetry_multiplicity
 _atom_site_fract_x
 _atom_site_fract_y
 _atom_site_fract_z
 _atom_site_occupancy
 _atom_site_pbe_bader_charge
 _atom_site_pbe_bader_spin_density
 _atom_site_pbe_cm5_charge
 _atom_site_pbe_ddec_charge
 _atom_site_pbe_ddec_spin_density
 _atom_site_pbe_ddec_sum_bond_order
 _atom_site_pbe_magmom
Cd  Cd0  1  0.51000276  0.55335399  0.42705010  1  1.251537  0  0.776339  0.89024  0  2.196784  0
Cd  Cd1  1  0.98999506  0.44664571  0.92705044  1  1.251529  0  0.776291  0.890156  0  2.196776  0
Cd  Cd2  1  0.48999721  0.05335418  0.07295020  1  1.251531  0  0.776325  0.890208  0  2.196778  0
Cd  Cd3  1  0.01000412  0.94664594  0.57295021  1  1.251548  0  0.776316  0.890193  0  2.196778  0
Cd  Cd4  1  0.48999628  0.44664642  0.57294990  1  1.251527  0  0.776319  0.890183  0  2.196796  0
Cd  Cd5  1  0.01000292  0.55335370  0.07295003  1  1.251526  0  0.776323  0.890189  0  2.196789  0
Cd  Cd6  1  0.51000396  0.94664523  0.92705027  1  1.251535  0  0.776327  0.890211  0  2.196793  0
Cd  Cd7  1  0.98999705  0.05335397  0.42705026  1  1.25153  0  0.776317  0.890206  0  2.196818  0
H  H8  1  0.45616696  0.31326712  0.46632821  1  0.102853  0  0.108115  0.127596  0  1.011107  0
H  H9  1  0.04383431  0.68673253  0.96632838  1  0.10286  0  0.108105  0.12758  0  1.011099  0
H  H10  1  0.54383324  0.81326741  0.03367193  1  0.102844  0  0.10811  0.127589  0  1.01111  0
H  H11  1  0.95616570  0.18673276  0.53367196  1  0.102856  0  0.108117  0.127605  0  1.011088  0
H  H12  1  0.54383421  0.68673279  0.53367179  1  0.102854  0  0.108114  0.1276  0  1.011101  0
H  H13  1  0.95616473  0.31326738  0.03367257  1  0.102853  0  0.108117  0.127605  0  1.011089  0
H  H14  1  0.45616367  0.18673051  0.96632711  1  0.102819  0  0.108085  0.127561  0  1.011144  0
H  H15  1  0.04383440  0.81326765  0.46632756  1  0.102856  0  0.108115  0.127599  0  1.011102  0
H  H16  1  0.56725197  0.19089394  0.46623695  1  0.115947  0  0.104832  0.118589  0  1.009523  0
H  H17  1  0.93274691  0.80910581  0.96623726  1  0.115957  0  0.104844  0.118604  0  1.009507  0
H  H18  1  0.43274705  0.69089420  0.03376304  1  0.115957  0  0.104852  0.11861  0  1.009521  0
H  H19  1  0.06725322  0.30910586  0.53376322  1  0.115964  0  0.104851  0.118611  0  1.009488  0
H  H20  1  0.43274707  0.80910597  0.53376257  1  0.115948  0  0.104845  0.118614  0  1.009535  0
H  H21  1  0.06725214  0.19089410  0.03376369  1  0.115956  0  0.104843  0.118606  0  1.009553  0
H  H22  1  0.56724773  0.30910471  0.96623648  1  0.115986  0  0.104837  0.118636  0  1.009533  0
H  H23  1  0.93274795  0.69089404  0.46623677  1  0.115951  0  0.104841  0.11861  0  1.009544  0
H  H24  1  0.37270212  0.44227173  0.31978109  1  0.12827  0  0.122221  0.120325  0  0.986333  0
H  H25  1  0.12729917  0.55772972  0.81978062  1  0.12826  0  0.122208  0.120338  0  0.986327  0
H  H26  1  0.62730032  0.94227073  0.18021968  1  0.128271  0  0.122216  0.120337  0  0.986347  0
H  H27  1  0.87270073  0.05772913  0.68022003  1  0.128287  0  0.122206  0.120323  0  0.98633  0
H  H28  1  0.62730012  0.55772918  0.68021986  1  0.128273  0  0.122213  0.120337  0  0.986342  0
H  H29  1  0.87270093  0.44227069  0.18021985  1  0.128276  0  0.122221  0.120344  0  0.986341  0
H  H30  1  0.37270191  0.05772868  0.81978079  1  0.128267  0  0.122222  0.120354  0  0.986299  0
H  H31  1  0.12729725  0.94227177  0.31978092  1  0.128022  0  0.122239  0.120363  0  0.986316  0
H  H32  1  0.31812795  0.47146826  0.19099527  1  0.183427  0  0.122688  0.141517  0  1.047685  0
H  H33  1  0.18187442  0.52853252  0.69099572  1  0.183392  0  0.122665  0.141495  0  1.047699  0
H  H34  1  0.68187558  0.97146794  0.30900458  1  0.18339  0  0.122685  0.141513  0  1.047709  0
H  H35  1  0.81812545  0.02853210  0.80900442  1  0.183388  0  0.122682  0.141508  0  1.04773  0
H  H36  1  0.68187535  0.52853215  0.80900473  1  0.183387  0  0.12268  0.141503  0  1.047722  0
H  H37  1  0.81812568  0.47146789  0.30900475  1  0.183392  0  0.122685  0.141511  0  1.047707  0
H  H38  1  0.31812878  0.02853197  0.69099542  1  0.183417  0  0.122676  0.141494  0  1.047705  0
H  H39  1  0.18187146  0.97146831  0.19099558  1  0.183427  0  0.122689  0.141522  0  1.047682  0
H  H40  1  0.55210238  0.62911712  0.27601606  1  0.127109  0  0.135545  0.108092  0  0.991074  0
H  H41  1  0.94789759  0.37088337  0.77601584  1  0.127142  0  0.135545  0.108088  0  0.991071  0
H  H42  1  0.44789766  0.12911651  0.22398385  1  0.127142  0  0.135543  0.108081  0  0.991079  0
H  H43  1  0.05210258  0.87088381  0.72398425  1  0.127159  0  0.135548  0.108048  0  0.991133  0
H  H44  1  0.44789773  0.37088378  0.72398346  1  0.127154  0  0.13554  0.108057  0  0.991127  0
H  H45  1  0.05210251  0.62911654  0.22398416  1  0.127144  0  0.13555  0.108097  0  0.99106  0
H  H46  1  0.55210351  0.87088140  0.77601567  1  0.127088  0  0.135544  0.108116  0  0.990981  0
H  H47  1  0.94789752  0.12911759  0.27601575  1  0.127099  0  0.135546  0.108099  0  0.991017  0
H  H48  1  0.46050339  0.64615820  0.16193876  1  0.109913  0  0.135019  0.098039  0  0.957458  0
H  H49  1  0.03949579  0.35384254  0.66193948  1  0.109936  0  0.134971  0.098031  0  0.957496  0
H  H50  1  0.53949666  0.14615776  0.33806070  1  0.109927  0  0.135015  0.098066  0  0.957464  0
H  H51  1  0.96050330  0.85384232  0.83806106  1  0.109939  0  0.135027  0.098078  0  0.957446  0
H  H52  1  0.53949565  0.35384221  0.83806029  1  0.109932  0  0.134981  0.098038  0  0.957436  0
H  H53  1  0.96050325  0.64615787  0.33806100  1  0.109933  0  0.13503  0.09808  0  0.95743  0
H  H54  1  0.46050451  0.85384165  0.66193834  1  0.10991  0  0.135013  0.098053  0  0.957453  0
H  H55  1  0.03949574  0.14615809  0.16193846  1  0.109918  0  0.135009  0.098048  0  0.957468  0
H  H56  1  0.34020519  0.58635093  0.12933852  1  0.169504  0  0.134295  0.118949  0  1.004799  0
H  H57  1  0.15979506  0.41364926  0.62933835  1  0.169494  0  0.13429  0.118945  0  1.004799  0
H  H58  1  0.65979481  0.08635106  0.37066182  1  0.169499  0  0.134292  0.118971  0  1.004782  0
H  H59  1  0.84020515  0.91364956  0.87066226  1  0.16949  0  0.134269  0.118944  0  1.004795  0
H  H60  1  0.65979491  0.41364947  0.87066196  1  0.169494  0  0.134292  0.118939  0  1.004797  0
H  H61  1  0.84020398  0.58635065  0.37066164  1  0.169483  0  0.134287  0.118947  0  1.004806  0
H  H62  1  0.34020530  0.91364935  0.62933818  1  0.169504  0  0.134295  0.118976  0  1.004758  0
H  H63  1  0.15979602  0.08635085  0.12933869  1  0.169491  0  0.134291  0.118956  0  1.004786  0
H  H64  1  0.45169245  0.47808526  0.07871194  1  0.192914  0  0.121717  0.135118  0  1.048991  0
H  H65  1  0.04830674  0.52191486  0.57871239  1  0.192928  0  0.121708  0.135067  0  1.04902  0
H  H66  1  0.54830682  0.97808557  0.42128744  1  0.192939  0  0.121717  0.135057  0  1.04903  0
H  H67  1  0.95169419  0.02191511  0.92128726  1  0.192929  0  0.121697  0.135047  0  1.049045  0
H  H68  1  0.54830659  0.52191464  0.92128757  1  0.192932  0  0.121703  0.135057  0  1.049005  0
H  H69  1  0.95169336  0.47808504  0.42128760  1  0.192925  0  0.1217  0.135044  0  1.049013  0
H  H70  1  0.45169328  0.02191434  0.57871208  1  0.192937  0  0.121698  0.135065  0  1.049013  0
H  H71  1  0.04830698  0.97808479  0.07871225  1  0.192921  0  0.121692  0.135034  0  1.049026  0
H  H72  1  0.72088476  0.45905813  0.02431890  1  0.168645  0  0.1199  0.127171  0  1.016974  0
H  H73  1  0.77911525  0.54094203  0.52431889  1  0.168385  0  0.119901  0.127174  0  1.016965  0
H  H74  1  0.27911557  0.95905796  0.47568141  1  0.168639  0  0.119898  0.127173  0  1.016953  0
H  H75  1  0.22088570  0.04094270  0.97568127  1  0.168675  0  0.119888  0.127136  0  1.016942  0
H  H76  1  0.27911535  0.54094228  0.97568109  1  0.168395  0  0.119895  0.127141  0  1.016999  0
H  H77  1  0.22088486  0.45905838  0.47568110  1  0.168332  0  0.119903  0.127156  0  1.016976  0
H  H78  1  0.72088454  0.04094195  0.52431907  1  0.168331  0  0.1199  0.127149  0  1.016986  0
H  H79  1  0.77911440  0.95905820  0.02431873  1  0.168329  0  0.119893  0.127148  0  1.016964  0
H  H80  1  0.72278215  0.63881570  0.12908315  1  0.161355  0  0.141006  0.113105  0  0.976994  0
H  H81  1  0.77721678  0.36118410  0.62908196  1  0.16136  0  0.140983  0.113112  0  0.977024  0
H  H82  1  0.27721683  0.13881575  0.37091725  1  0.161354  0  0.14098  0.113099  0  0.977021  0
H  H83  1  0.22278232  0.86118427  0.87091763  1  0.161367  0  0.140996  0.113112  0  0.977009  0
H  H84  1  0.27721690  0.36118421  0.87091733  1  0.16136  0  0.140986  0.113126  0  0.977  0
H  H85  1  0.22278226  0.63881581  0.37091708  1  0.161358  0  0.140997  0.113103  0  0.977  0
H  H86  1  0.72278327  0.86118416  0.62908227  1  0.161363  0  0.140989  0.113115  0  0.977016  0
H  H87  1  0.77721885  0.13881613  0.12908284  1  0.161353  0  0.140992  0.113094  0  0.976998  0
C  C88  1  0.65874144  0.34828213  0.42999158  1  -0.187933  0  -0.029426  -0.12658  0  3.994423  0
C  C89  1  0.84126064  0.65171806  0.92999122  1  -0.188174  0  -0.029509  -0.126657  0  3.994566  0
C  C90  1  0.34125878  0.84828193  0.07000860  1  -0.188316  0  -0.029441  -0.126568  0  3.994433  0
C  C91  1  0.15874041  0.15171769  0.57000907  1  -0.188182  0  -0.029467  -0.126604  0  3.994492  0
C  C92  1  0.34126079  0.65171827  0.57000890  1  -0.188159  0  -0.029486  -0.12664  0  3.994543  0
C  C93  1  0.15873947  0.34828234  0.07000878  1  -0.188194  0  -0.029505  -0.126623  0  3.994521  0
C  C94  1  0.65873919  0.15171748  0.92999044  1  -0.188208  0  -0.029447  -0.126554  0  3.99459  0
C  C95  1  0.84125969  0.84828172  0.42999092  1  -0.188288  0  -0.029449  -0.126541  0  3.994395  0
C  C96  1  0.56319136  0.30044054  0.45104062  1  -0.009309  0  -0.100187  -0.103533  0  3.990528  0
C  C97  1  0.93680859  0.69955919  0.95104079  1  -0.00912  0  -0.100143  -0.10345  0  3.990512  0
C  C98  1  0.43680882  0.80044132  0.04895950  1  -0.009097  0  -0.100199  -0.103551  0  3.990527  0
C  C99  1  0.06319038  0.19955926  0.54895956  1  -0.009103  0  -0.100162  -0.103486  0  3.990424  0
C  C100  1  0.43680981  0.69955937  0.54895938  1  -0.009128  0  -0.100153  -0.103467  0  3.990502  0
C  C101  1  0.06319046  0.30044072  0.04895968  1  -0.009117  0  -0.10017  -0.103513  0  3.990524  0
C  C102  1  0.56318809  0.19955709  0.95104002  1  -0.009133  0  -0.100122  -0.103422  0  3.990552  0
C  C103  1  0.93680973  0.80044114  0.45103996  1  -0.00912  0  -0.100162  -0.103498  0  3.990503  0
C  C104  1  0.62143353  0.23577701  0.45008295  1  -0.058324  0  -0.102014  -0.115593  0  4.007252  0
C  C105  1  0.87856642  0.76422272  0.95008273  1  -0.058319  0  -0.102016  -0.11562  0  4.007236  0
C  C106  1  0.37856660  0.73577729  0.04991709  1  -0.058311  0  -0.102001  -0.115558  0  4.007203  0
C  C107  1  0.12143473  0.26422280  0.54991722  1  -0.058318  0  -0.10202  -0.115611  0  4.007211  0
C  C108  1  0.37856658  0.76422290  0.54991704  1  -0.058326  0  -0.102014  -0.115631  0  4.007261  0
C  C109  1  0.12143262  0.23577719  0.04991774  1  -0.058322  0  -0.101994  -0.115584  0  4.007197  0
C  C110  1  0.62143138  0.26422212  0.95008243  1  -0.058306  0  -0.102046  -0.115763  0  4.007431  0
C  C111  1  0.87856751  0.73577710  0.45008230  1  -0.058319  0  -0.102012  -0.115619  0  4.007313  0
C  C112  1  0.76021219  0.23488317  0.42731962  1  -0.202063  0  -0.030415  -0.124713  0  3.999521  0
C  C113  1  0.73978776  0.76511603  0.92731988  1  -0.202061  0  -0.030393  -0.124691  0  3.999539  0
C  C114  1  0.23978794  0.73488345  0.07268042  1  -0.202065  0  -0.030436  -0.124777  0  3.999516  0
C  C115  1  0.26021232  0.26511617  0.57268007  1  -0.202091  0  -0.030423  -0.124767  0  3.99961  0
C  C116  1  0.23978792  0.76511674  0.57267942  1  -0.202065  0  -0.030431  -0.124745  0  3.999543  0
C  C117  1  0.26021234  0.23488388  0.07268012  1  -0.202052  0  -0.030408  -0.124736  0  3.999525  0
C  C118  1  0.76020897  0.26511596  0.92732005  1  -0.202044  0  -0.030394  -0.1247  0  3.999514  0
C  C119  1  0.73978885  0.73488324  0.42731944  1  -0.202066  0  -0.030439  -0.1248  0  3.999556  0
C  C120  1  0.85415221  0.17629862  0.42041286  1  1.562015  0  0.176396  0.54806  0  4.31151  0
C  C121  1  0.64584774  0.82370057  0.92041272  1  1.562018  0  0.176363  0.547957  0  4.311622  0
C  C122  1  0.14584893  0.67629889  0.07958758  1  1.562003  0  0.176389  0.547986  0  4.311526  0
C  C123  1  0.35415133  0.32370074  0.57958730  1  1.562009  0  0.176376  0.54799  0  4.31155  0
C  C124  1  0.14584896  0.82370079  0.57958761  1  1.562001  0  0.176394  0.548022  0  4.31151  0
C  C125  1  0.35415130  0.17629934  0.07958775  1  1.561995  0  0.176394  0.547986  0  4.311544  0
C  C126  1  0.85415118  0.32370102  0.92041289  1  1.56208  0  0.176532  0.548268  0  4.311067  0
C  C127  1  0.64584877  0.67629916  0.42041222  1  1.562016  0  0.176396  0.548033  0  4.311507  0
C  C128  1  0.63661108  0.42104698  0.42700657  1  1.590208  0  0.190022  0.574415  0  4.270741  0
C  C129  1  0.86338887  0.57895321  0.92700660  1  1.590212  0  0.189978  0.574319  0  4.270711  0
C  C130  1  0.36338921  0.92104679  0.07299322  1  1.590233  0  0.189975  0.574315  0  4.270726  0
C  C131  1  0.13661105  0.07895284  0.57299360  1  1.59024  0  0.189971  0.574321  0  4.270735  0
C  C132  1  0.36338903  0.57895293  0.57299390  1  1.59022  0  0.190031  0.574437  0  4.270718  0
C  C133  1  0.13661123  0.42104719  0.07299339  1  1.590238  0  0.189965  0.574274  0  4.270741  0
C  C134  1  0.63661089  0.07895163  0.92700630  1  1.590294  0  0.18998  0.574334  0  4.27062  0
C  C135  1  0.86338799  0.92104707  0.42700544  1  1.590247  0  0.190091  0.574435  0  4.270665  0
C  C136  1  0.40393284  0.48487685  0.29115079  1  0.330025  0  -0.004183  -0.028637  0  4.002872  0
C  C137  1  0.09606632  0.51512406  0.79115314  1  0.329985  0  -0.004181  -0.028686  0  4.002883  0
C  C138  1  0.59606750  0.98487639  0.20884716  1  0.330005  0  -0.004172  -0.02861  0  4.002878  0
C  C139  1  0.90393460  0.01512401  0.70884746  1  0.329991  0  -0.00414  -0.028597  0  4.002843  0
C  C140  1  0.59606620  0.51512405  0.70884729  1  0.330008  0  -0.004159  -0.028612  0  4.002899  0
C  C141  1  0.90393272  0.48487635  0.20884733  1  0.330012  0  -0.004173  -0.028639  0  4.002833  0
C  C142  1  0.40393473  0.01512352  0.79115093  1  0.330043  0  -0.004157  -0.028642  0  4.002807  0
C  C143  1  0.09606550  0.98487639  0.29115063  1  0.330298  0  -0.004196  -0.028669  0  4.002843  0
C  C144  1  0.37537946  0.49815230  0.22814252  1  0.339658  0  0.00016  -0.103343  0  3.891947  0
C  C145  1  0.12462291  0.50185002  0.72814247  1  0.339743  0  0.000207  -0.103281  0  3.891852  0
C  C146  1  0.62462303  0.99815043  0.27185784  1  0.339743  0  0.000171  -0.103328  0  3.891824  0
C  C147  1  0.87537695  0.00184956  0.77185812  1  0.339732  0  0.000158  -0.10337  0  3.89195  0
C  C148  1  0.62462277  0.50184960  0.77185795  1  0.339741  0  0.000175  -0.103349  0  3.891921  0
C  C149  1  0.87537826  0.49815039  0.27185801  1  0.339743  0  0.000145  -0.103338  0  3.891841  0
C  C150  1  0.37538027  0.00184798  0.72814264  1  0.339657  0  0.000187  -0.103306  0  3.891923  0
C  C151  1  0.12461997  0.99815185  0.22814235  1  0.339734  0  0.000167  -0.103349  0  3.891926  0
C  C152  1  0.49945102  0.58126605  0.27101931  1  0.972275  0  0.13445  0.079225  0  3.959406  0
C  C153  1  0.00055028  0.41873533  0.77101868  1  0.972314  0  0.13444  0.079192  0  3.959437  0
C  C154  1  0.50055110  0.08126496  0.22898102  1  0.972311  0  0.134453  0.079255  0  3.959513  0
C  C155  1  0.99944888  0.91873547  0.72898146  1  0.972232  0  0.134457  0.079272  0  3.959452  0
C  C156  1  0.50055015  0.41873535  0.72898117  1  0.972301  0  0.13444  0.079234  0  3.959485  0
C  C157  1  0.99944983  0.58126507  0.22898180  1  0.972211  0  0.134406  0.079185  0  3.959462  0
C  C158  1  0.49945113  0.91873396  0.77101850  1  0.972206  0  0.134404  0.079117  0  3.959413  0
C  C159  1  0.00054910  0.08126643  0.27101949  1  0.972194  0  0.134431  0.079199  0  3.959342  0
C  C160  1  0.44171749  0.59282254  0.15440568  1  0.619483  0  0.063158  0.009235  0  3.857839  0
C  C161  1  0.05828276  0.40717818  0.65440504  1  0.619484  0  0.063168  0.009192  0  3.857952  0
C  C162  1  0.55828252  0.09282212  0.34559466  1  0.619487  0  0.063126  0.009125  0  3.857942  0
C  C163  1  0.94171745  0.90717847  0.84559509  1  0.619488  0  0.063143  0.009162  0  3.857921  0
C  C164  1  0.55828262  0.40717836  0.84559479  1  0.619499  0  0.063189  0.009268  0  3.857834  0
C  C165  1  0.94171628  0.59282173  0.34559496  1  0.619485  0  0.063119  0.009184  0  3.857925  0
C  C166  1  0.44171865  0.90717729  0.65440486  1  0.619493  0  0.063134  0.009133  0  3.857897  0
C  C167  1  0.05828266  0.09282244  0.15440491  1  0.619464  0  0.063135  0.00916  0  3.85791  0
C  C168  1  0.54901534  0.50723456  0.08066778  1  0.259127  0  0.002883  -0.099743  0  3.884448  0
C  C169  1  0.95098359  0.49276567  0.58066771  1  0.259128  0  0.002946  -0.099604  0  3.884316  0
C  C170  1  0.45098352  0.00723521  0.41933246  1  0.259122  0  0.002918  -0.099631  0  3.88445  0
C  C171  1  0.04901669  0.99276587  0.91933252  1  0.259117  0  0.002881  -0.099709  0  3.884521  0
C  C172  1  0.45098370  0.49276535  0.91933269  1  0.259108  0  0.002855  -0.099727  0  3.884497  0
C  C173  1  0.04901545  0.50723474  0.41933277  1  0.259099  0  0.002914  -0.099623  0  3.884358  0
C  C174  1  0.54901658  0.99276520  0.58066706  1  0.259101  0  0.002846  -0.099766  0  3.884604  0
C  C175  1  0.95098448  0.00723453  0.08066699  1  0.259096  0  0.002873  -0.099686  0  3.884533  0
C  C176  1  0.68152955  0.49916563  0.05425822  1  0.371269  0  -0.000238  -0.023658  0  3.967835  0
C  C177  1  0.81846939  0.50083457  0.55425864  1  0.371578  0  -0.000225  -0.023668  0  3.967855  0
C  C178  1  0.31847081  0.99916542  0.44574214  1  0.371313  0  -0.000245  -0.023671  0  3.967807  0
C  C179  1  0.18153047  0.00083520  0.94574195  1  0.371247  0  -0.000157  -0.023477  0  3.967888  0
C  C180  1  0.31846949  0.50083478  0.94574177  1  0.371555  0  -0.00016  -0.023522  0  3.967893  0
C  C181  1  0.18152966  0.49916534  0.44574184  1  0.371625  0  -0.000206  -0.023599  0  3.967782  0
C  C182  1  0.68153036  0.00083448  0.55425833  1  0.371624  0  -0.000159  -0.023511  0  3.968018  0
C  C183  1  0.81847070  0.99916521  0.05425852  1  0.371635  0  -0.000194  -0.023571  0  3.967925  0
C  C184  1  0.68769401  0.59251463  0.10741251  1  0.944051  0  0.139631  0.082349  0  3.94375  0
C  C185  1  0.81230599  0.40748514  0.60741233  1  0.944054  0  0.139648  0.082311  0  3.943796  0
C  C186  1  0.31230600  0.09251521  0.39258784  1  0.94404  0  0.139679  0.082362  0  3.943807  0
C  C187  1  0.18769316  0.90748534  0.89258780  1  0.944061  0  0.139653  0.082353  0  3.943745  0
C  C188  1  0.31230610  0.40748528  0.89258797  1  0.944061  0  0.13965  0.082304  0  3.943813  0
C  C189  1  0.18769412  0.59251477  0.39258767  1  0.944055  0  0.139654  0.082348  0  3.94387  0
C  C190  1  0.68769411  0.90748520  0.60741168  1  0.944058  0  0.13967  0.082348  0  3.943777  0
C  C191  1  0.81230589  0.09251507  0.10741220  1  0.944047  0  0.139644  0.082348  0  3.943771  0
S  S192  1  0.81880451  0.31357254  0.40758196  1  0.27226  0  0.09128  0.15421  0  2.840936  0
S  S193  1  0.68119651  0.68642663  0.90758165  1  0.272264  0  0.09128  0.154216  0  2.840957  0
S  S194  1  0.18119675  0.81357283  0.09241865  1  0.272372  0  0.091282  0.154237  0  2.840902  0
S  S195  1  0.31880351  0.18642732  0.59241821  1  0.272272  0  0.091294  0.154248  0  2.840973  0
S  S196  1  0.18119666  0.68642687  0.59241804  1  0.272283  0  0.091292  0.154221  0  2.840955  0
S  S197  1  0.31880253  0.31357327  0.09241835  1  0.272281  0  0.0913  0.154245  0  2.840952  0
S  S198  1  0.81880229  0.18642658  0.90758182  1  0.272286  0  0.091251  0.154191  0  2.840985  0
S  S199  1  0.68119766  0.81357259  0.40758083  1  0.272382  0  0.091266  0.154211  0  2.840955  0
N  N200  1  0.48074173  0.53703669  0.31718564  1  -1.201157  0  -0.354862  -0.300983  0  3.55339  0
N  N201  1  0.01925849  0.46296326  0.81718506  1  -1.201152  0  -0.354834  -0.300903  0  3.553489  0
N  N202  1  0.51925929  0.03703653  0.18281512  1  -1.20117  0  -0.354848  -0.300971  0  3.553554  0
N  N203  1  0.98074176  0.96296333  0.68281514  1  -1.201159  0  -0.354836  -0.300925  0  3.55349  0
N  N204  1  0.51925944  0.46296322  0.68281484  1  -1.201178  0  -0.354844  -0.300947  0  3.553538  0
N  N205  1  0.98074161  0.53703665  0.18281541  1  -1.201149  0  -0.354815  -0.300897  0  3.553446  0
N  N206  1  0.48074188  0.96296188  0.81718488  1  -1.20112  0  -0.354833  -0.300934  0  3.553399  0
N  N207  1  0.01925728  0.03703707  0.31718534  1  -1.20115  0  -0.354851  -0.300973  0  3.553407  0
N  N208  1  0.43654055  0.55971930  0.21606344  1  -1.230639  0  -0.24541  0.010996  0  3.78961  0
N  N209  1  0.06346076  0.44028151  0.71606331  1  -1.230706  0  -0.245427  0.010978  0  3.78957  0
N  N210  1  0.56346049  0.05971879  0.28393686  1  -1.230718  0  -0.245426  0.010923  0  3.789619  0
N  N211  1  0.93653948  0.94028171  0.78393733  1  -1.230654  0  -0.245446  0.010965  0  3.789577  0
N  N212  1  0.56346062  0.44028161  0.78393656  1  -1.230722  0  -0.245434  0.010961  0  3.789582  0
N  N213  1  0.93653935  0.55971890  0.28393668  1  -1.230661  0  -0.24541  0.010919  0  3.789643  0
N  N214  1  0.43654175  0.94028062  0.71606313  1  -1.23056  0  -0.245409  0.011036  0  3.789599  0
N  N215  1  0.06345956  0.05971870  0.21606314  1  -1.230621  0  -0.245385  0.011047  0  3.789554  0
N  N216  1  0.55457324  0.56669056  0.11420559  1  -1.209648  0  -0.244502  0.016601  0  3.786528  0
N  N217  1  0.94542782  0.43330972  0.61420545  1  -1.209649  0  -0.244499  0.016602  0  3.786502  0
N  N218  1  0.44542674  0.06669016  0.38579472  1  -1.209657  0  -0.24449  0.016662  0  3.78651  0
N  N219  1  0.05457241  0.93330988  0.88579471  1  -1.209659  0  -0.244529  0.016553  0  3.78654  0
N  N220  1  0.44542687  0.43330985  0.88579440  1  -1.209652  0  -0.244488  0.016597  0  3.786589  0
N  N221  1  0.05457228  0.56669019  0.38579407  1  -1.209646  0  -0.244476  0.016602  0  3.786587  0
N  N222  1  0.55457336  0.93330975  0.61420480  1  -1.209653  0  -0.244502  0.016629  0  3.786524  0
N  N223  1  0.94542770  0.06669053  0.11420528  1  -1.20964  0  -0.244479  0.016625  0  3.786513  0
N  N224  1  0.76627568  0.55282515  0.07110113  1  -1.191917  0  -0.359074  -0.295649  0  3.547522  0
N  N225  1  0.73372432  0.44717457  0.57110005  1  -1.191986  0  -0.35909  -0.295643  0  3.547527  0
N  N226  1  0.23372536  0.05282576  0.42890011  1  -1.191966  0  -0.359099  -0.295697  0  3.547588  0
N  N227  1  0.26627486  0.94717483  0.92890012  1  -1.191962  0  -0.359093  -0.295717  0  3.547549  0
N  N228  1  0.23372443  0.44717476  0.92889982  1  -1.191981  0  -0.359091  -0.295678  0  3.547552  0
N  N229  1  0.26627472  0.55282534  0.42889946  1  -1.19197  0  -0.359124  -0.295714  0  3.547645  0
N  N230  1  0.76627581  0.94717464  0.57109988  1  -1.192001  0  -0.3591  -0.295706  0  3.54756  0
N  N231  1  0.73372419  0.05282507  0.07110083  1  -1.191959  0  -0.359065  -0.295659  0  3.547552  0
O  O232  1  0.97452382  0.18150418  0.39421861  1  -1.172791  0  -0.347255  -0.569623  0  2.105124  0
O  O233  1  0.52547614  0.81849547  0.89421846  1  -1.1728  0  -0.347234  -0.569564  0  2.105179  0
O  O234  1  0.02547626  0.68150396  0.10578184  1  -1.17277  0  -0.347222  -0.569553  0  2.105154  0
O  O235  1  0.47452399  0.31849570  0.60578155  1  -1.172788  0  -0.347261  -0.569592  0  2.105063  0
O  O236  1  0.02547629  0.81849523  0.60578139  1  -1.172785  0  -0.347254  -0.569593  0  2.105107  0
O  O237  1  0.47452291  0.18150493  0.10578153  1  -1.172787  0  -0.347258  -0.56958  0  2.105123  0
O  O238  1  0.97452171  0.31849545  0.89421959  1  -1.172805  0  -0.347367  -0.569729  0  2.104883  0
O  O239  1  0.52547718  0.68150470  0.39421844  1  -1.172804  0  -0.347255  -0.569586  0  2.105116  0
O  O240  1  0.80435055  0.12091673  0.44324061  1  -1.149412  0  -0.338731  -0.554392  0  2.24461  0
O  O241  1  0.69564940  0.87908299  0.94324101  1  -1.1494  0  -0.338708  -0.554324  0  2.24461  0
O  O242  1  0.19565054  0.62091648  0.05675929  1  -1.14941  0  -0.338756  -0.554374  0  2.244566  0
O  O243  1  0.30435079  0.37908262  0.55675908  1  -1.149396  0  -0.338705  -0.554321  0  2.244621  0
O  O244  1  0.19564955  0.87908268  0.55675939  1  -1.149394  0  -0.338728  -0.554358  0  2.244587  0
O  O245  1  0.30434965  0.12091742  0.05675946  1  -1.149386  0  -0.338735  -0.554357  0  2.244588  0
O  O246  1  0.80434744  0.37908293  0.94324118  1  -1.149429  0  -0.338734  -0.554419  0  2.244502  0
O  O247  1  0.69564932  0.62091728  0.44324092  1  -1.14939  0  -0.338727  -0.55438  0  2.24459  0
O  O248  1  0.72778764  0.45806739  0.40097321  1  -1.191534  0  -0.321664  -0.558487  0  2.19286  0
O  O249  1  0.77221231  0.54193227  0.90097320  1  -1.191531  0  -0.321594  -0.558412  0  2.192811  0
O  O250  1  0.27221161  0.95806771  0.09902662  1  -1.191533  0  -0.321606  -0.558434  0  2.192803  0
O  O251  1  0.22778864  0.04193245  0.59902696  1  -1.191544  0  -0.321606  -0.558443  0  2.192812  0
O  O252  1  0.27221246  0.54193252  0.59902678  1  -1.191536  0  -0.321661  -0.558494  0  2.192874  0
O  O253  1  0.22778780  0.45806813  0.09902679  1  -1.19154  0  -0.321609  -0.558424  0  2.192826  0
O  O254  1  0.72778849  0.04193120  0.90097290  1  -1.191589  0  -0.321617  -0.558446  0  2.192773  0
O  O255  1  0.77221253  0.95806746  0.40097400  1  -1.191569  0  -0.321694  -0.55849  0  2.192859  0
O  O256  1  0.51940523  0.44287918  0.45238023  1  -1.167119  0  -0.34168  -0.568867  0  2.305026  0
O  O257  1  0.98059578  0.55712055  0.95238023  1  -1.1671  0  -0.341687  -0.568838  0  2.304991  0
O  O258  1  0.48059508  0.94287947  0.04762006  1  -1.167082  0  -0.341688  -0.568844  0  2.305054  0
O  O259  1  0.01940306  0.05712061  0.54762042  1  -1.167108  0  -0.3417  -0.568855  0  2.305005  0
O  O260  1  0.48059701  0.55712123  0.54762025  1  -1.167108  0  -0.341701  -0.568899  0  2.305001  0
O  O261  1  0.01940326  0.44287936  0.04761977  1  -1.167135  0  -0.341683  -0.568833  0  2.305018  0
O  O262  1  0.51940290  0.05711994  0.95237993  1  -1.167159  0  -0.341694  -0.568882  0  2.304997  0
O  O263  1  0.98059492  0.94287979  0.45238005  1  -1.167125  0  -0.341708  -0.568908  0  2.305031  0
