# generated using pymatgen
data_Cu4SiH8(C5N2)4
_symmetry_space_group_name_H-M   'P 1'
_cell_length_a   29.21252677
_cell_length_b   29.22689564
_cell_length_c   29.22302601
_cell_angle_alpha   109.35061868
_cell_angle_beta   109.46157284
_cell_angle_gamma   109.58879813
_symmetry_Int_Tables_number   1
_chemical_formula_structural   Cu4SiH8(C5N2)4
_chemical_formula_sum   'Cu24 Si6 H48 C120 N48'
_cell_volume   19209.74493280
_cell_formula_units_Z   6
loop_
 _symmetry_equiv_pos_site_id
 _symmetry_equiv_pos_as_xyz
  1  'x, y, z'
loop_
 _atom_site_type_symbol
 _atom_site_label
 _atom_site_symmetry_multiplicity
 _atom_site_fract_x
 _atom_site_fract_y
 _atom_site_fract_z
 _atom_site_occupancy
 _atom_site_pbe_bader_charge
 _atom_site_pbe_bader_spin_density
 _atom_site_pbe_cm5_charge
 _atom_site_pbe_ddec_charge
 _atom_site_pbe_ddec_spin_density
 _atom_site_pbe_ddec_sum_bond_order
 _atom_site_pbe_magmom
Cu  Cu0  1  0.61691290  0.54393939  0.56702607  1  0.546852  0  0.49281  0.211004  0  2.109515  0
Cu  Cu1  1  0.56587810  0.61831058  0.54037126  1  0.546917  0  0.491342  0.21268  0  2.094972  0
Cu  Cu2  1  0.54135301  0.56845446  0.61728937  1  0.547134  0  0.490778  0.212754  0  2.094143  0
Cu  Cu3  1  0.88344323  0.95073008  0.42688190  1  0.547022  0  0.494363  0.210545  0  2.116552  0
Cu  Cu4  1  0.93444968  0.97462370  0.55201429  1  0.548606  0  0.491527  0.212761  0  2.097534  0
Cu  Cu5  1  0.95906967  0.07628275  0.52721237  1  0.548018  0  0.491397  0.211957  0  2.096986  0
Cu  Cu6  1  0.52300871  0.95570926  0.07344985  1  0.545223  0  0.494145  0.211508  0  2.114791  0
Cu  Cu7  1  0.42180526  0.88203027  0.94804405  1  0.548152  0  0.492331  0.211343  0  2.101244  0
Cu  Cu8  1  0.54850633  0.93188534  0.97338365  1  0.549451  0  0.490128  0.212895  0  2.092819  0
Cu  Cu9  1  0.97634530  0.54944297  0.93267510  1  0.547025  0  0.494674  0.20999  0  2.118596  0
Cu  Cu10  1  0.07758193  0.52541181  0.95998106  1  0.546621  0  0.491999  0.213063  0  2.099631  0
Cu  Cu11  1  0.95106119  0.42392081  0.88308190  1  0.548057  0  0.491151  0.211703  0  2.096446  0
Cu  Cu12  1  0.11615761  0.06696115  0.04348065  1  0.546943  0  0.492705  0.211812  0  2.107967  0
Cu  Cu13  1  0.06503952  0.03976458  0.11776577  1  0.547988  0  0.492612  0.212734  0  2.102397  0
Cu  Cu14  1  0.04031068  0.11658868  0.06797683  1  0.546944  0  0.490476  0.212436  0  2.09182  0
Cu  Cu15  1  0.38491549  0.92675676  0.45066610  1  0.546964  0  0.492773  0.210916  0  2.108386  0
Cu  Cu16  1  0.43523555  0.05212786  0.47441798  1  0.547843  0  0.492255  0.211866  0  2.100682  0
Cu  Cu17  1  0.46028194  0.02720862  0.57602240  1  0.546239  0  0.490521  0.21285  0  2.092034  0
Cu  Cu18  1  0.02365038  0.57317444  0.45629501  1  0.543764  0  0.492152  0.210654  0  2.106719  0
Cu  Cu19  1  0.92212995  0.44784571  0.38223818  1  0.551143  0  0.491716  0.212181  0  2.098088  0
Cu  Cu20  1  0.04881807  0.47284741  0.43259021  1  0.547216  0  0.490372  0.212639  0  2.090883  0
Cu  Cu21  1  0.47627290  0.43297290  0.04890432  1  0.547034  0  0.492158  0.211449  0  2.105688  0
Cu  Cu22  1  0.57773405  0.46015995  0.02499542  1  0.547033  0  0.492126  0.212134  0  2.101494  0
Cu  Cu23  1  0.45103174  0.38291842  0.92340519  1  0.549027  0  0.49046  0.212364  0  2.092253  0
Si  Si24  1  0.62678540  0.37662998  0.74955420  1  2.89425  0  0.178054  1.083661  0  4.224207  0
Si  Si25  1  0.87294090  0.12336840  0.25015221  1  2.896067  0  0.177993  1.083532  0  4.223939  0
Si  Si26  1  0.37360408  0.75027537  0.62398399  1  2.884426  0  0.179269  1.082502  0  4.217168  0
Si  Si27  1  0.12635668  0.24983391  0.87652942  1  2.886952  0  0.179172  1.081807  0  4.220406  0
Si  Si28  1  0.74988478  0.62501574  0.37431855  1  2.891877  0  0.177476  1.084371  0  4.224701  0
Si  Si29  1  0.24942257  0.87496697  0.12536135  1  2.897404  0  0.176609  1.083335  0  4.233201  0
H  H30  1  0.68462826  0.54512552  0.50173851  1  0.103618  0  0.128367  0.122466  0  0.977103  0
H  H31  1  0.61502095  0.64645139  0.46438831  1  0.099365  0  0.128559  0.12226  0  0.97761  0
H  H32  1  0.54401249  0.50255749  0.68544104  1  0.109867  0  0.128624  0.122376  0  0.975656  0
H  H33  1  0.64745812  0.47000879  0.61658729  1  0.122067  0  0.128392  0.122152  0  0.977401  0
H  H34  1  0.49972578  0.68522579  0.54185654  1  0.118925  0  0.128113  0.121402  0  0.976443  0
H  H35  1  0.46649048  0.61767506  0.64609849  1  0.115698  0  0.128463  0.122599  0  0.97727  0
H  H36  1  0.81565803  0.81791020  0.35988993  1  0.145329  0  0.128644  0.122613  0  0.977913  0
H  H37  1  0.88542940  0.84937543  0.53052068  1  0.092842  0  0.128586  0.121971  0  0.978045  0
H  H38  1  0.95674771  0.14213385  0.45903512  1  0.09872  0  0.128747  0.122461  0  0.978329  0
H  H39  1  0.85296262  0.97007173  0.32276135  1  0.113052  0  0.128837  0.122307  0  0.976182  0
H  H40  1  0.00034970  0.04172392  0.68507162  1  0.12304  0  0.128304  0.122119  0  0.976525  0
H  H41  1  0.03374131  0.17960832  0.65139127  1  0.111987  0  0.128418  0.122682  0  0.977345  0
H  H42  1  0.45664969  0.95418026  0.13995659  1  0.095881  0  0.128828  0.123185  0  0.977578  0
H  H43  1  0.31784691  0.85414675  0.96915622  1  0.12369  0  0.128541  0.12269  0  0.977577  0
H  H44  1  0.68265946  0.99800778  0.04181095  1  0.124242  0  0.128415  0.122002  0  0.97757  0
H  H45  1  0.64652580  0.02925250  0.17788042  1  0.111137  0  0.128588  0.122802  0  0.977572  0
H  H46  1  0.35620065  0.81541219  0.81505384  1  0.105415  0  0.12863  0.122427  0  0.976006  0
H  H47  1  0.52801945  0.88302683  0.84926624  1  0.103439  0  0.128265  0.121484  0  0.977503  0
H  H48  1  0.04229960  0.68222542  0.99757704  1  0.094953  0  0.128637  0.122287  0  0.977449  0
H  H49  1  0.18140424  0.65058523  0.03616810  1  0.091839  0  0.128542  0.122132  0  0.976994  0
H  H50  1  0.81700293  0.35813602  0.81497432  1  0.097109  0  0.128604  0.122347  0  0.976841  0
H  H51  1  0.85286613  0.53022508  0.88276758  1  0.114231  0  0.12858  0.122243  0  0.977325  0
H  H52  1  0.14344322  0.45817725  0.95889401  1  0.120933  0  0.128257  0.121768  0  0.975919  0
H  H53  1  0.97173815  0.32046498  0.85455845  1  0.111952  0  0.128518  0.122228  0  0.977253  0
H  H54  1  0.18411641  0.00201313  0.04458875  1  0.101802  0  0.128625  0.122327  0  0.976772  0
H  H55  1  0.11405291  0.96377333  0.14545427  1  0.124301  0  0.128546  0.122456  0  0.976665  0
H  H56  1  0.04240181  0.18454737  0.00181207  1  0.093427  0  0.128462  0.122225  0  0.97753  0
H  H57  1  0.14664377  0.11679907  0.96959559  1  0.113621  0  0.128353  0.121764  0  0.976235  0
H  H58  1  0.99907003  0.04097697  0.18494494  1  0.10574  0  0.128611  0.12231  0  0.976258  0
H  H59  1  0.96547155  0.14505102  0.11747087  1  0.10318  0  0.128399  0.122144  0  0.976477  0
H  H60  1  0.31682194  0.85983041  0.31783078  1  0.071554  0  0.128889  0.122643  0  0.977291  0
H  H61  1  0.38481343  0.03062404  0.34937374  1  0.093629  0  0.128551  0.122058  0  0.977098  0
H  H62  1  0.45727383  0.95918998  0.64207359  1  0.104588  0  0.128558  0.122401  0  0.977697  0
H  H63  1  0.35461236  0.82252877  0.47027904  1  0.151506  0  0.128609  0.122427  0  0.977252  0
H  H64  1  0.50132212  0.18526500  0.54145826  1  0.112843  0  0.128467  0.122626  0  0.975616  0
H  H65  1  0.53534781  0.15151094  0.67922137  1  0.12912  0  0.128222  0.121657  0  0.976648  0
H  H66  1  0.95764881  0.64005832  0.45462300  1  0.093945  0  0.128504  0.122342  0  0.97771  0
H  H67  1  0.81841058  0.46927052  0.35397603  1  0.11148  0  0.128432  0.122264  0  0.97681  0
H  H68  1  0.18300272  0.54110895  0.49902613  1  0.106066  0  0.128635  0.122438  0  0.977044  0
H  H69  1  0.14742340  0.67747496  0.53019266  1  0.112829  0  0.128691  0.122365  0  0.977454  0
H  H70  1  0.85617440  0.31470776  0.31541443  1  0.102607  0  0.128624  0.122775  0  0.975983  0
H  H71  1  0.02778449  0.34857622  0.38366780  1  0.108432  0  0.128445  0.122251  0  0.977319  0
H  H72  1  0.54235736  0.49822051  0.18180503  1  0.102761  0  0.128507  0.122514  0  0.975552  0
H  H73  1  0.68150615  0.53649414  0.14999634  1  0.122379  0  0.1284  0.121965  0  0.977259  0
H  H74  1  0.31686837  0.31475943  0.85763105  1  0.085831  0  0.1286  0.122115  0  0.97807  0
H  H75  1  0.35252830  0.38308280  0.02961591  1  0.081017  0  0.128492  0.122249  0  0.976553  0
H  H76  1  0.64368171  0.45887156  0.95782031  1  0.078156  0  0.128396  0.121649  0  0.975869  0
H  H77  1  0.47211399  0.35427094  0.82016093  1  0.118514  0  0.128396  0.122418  0  0.977609  0
C  C78  1  0.66304799  0.56865683  0.49803939  1  0.432323  0  0.020497  -0.042433  0  3.927399  0
C  C79  1  0.66170658  0.59888620  0.46923640  1  0.099668  0  -0.024742  0.022237  0  4.17697  0
C  C80  1  0.62735833  0.62057245  0.47893011  1  0.451293  0  0.020179  -0.042024  0  3.925665  0
C  C81  1  0.56786162  0.50002290  0.66403348  1  0.413009  0  0.020985  -0.040138  0  3.922348  0
C  C82  1  0.59921834  0.47247326  0.66284907  1  0.110883  0  -0.025443  0.020209  0  4.176001  0
C  C83  1  0.62086426  0.48330562  0.62878483  1  0.424614  0  0.020427  -0.041357  0  3.926973  0
C  C84  1  0.49702341  0.66415509  0.56602265  1  0.430754  0  0.020765  -0.039156  0  3.922767  0
C  C85  1  0.46924008  0.66326064  0.59723030  1  0.111012  0  -0.025678  0.020175  0  4.175153  0
C  C86  1  0.48000470  0.62954651  0.61942038  1  0.425244  0  0.019931  -0.042754  0  3.927977  0
C  C87  1  0.83727733  0.83556538  0.40496057  1  0.433657  0  0.020922  -0.040923  0  3.928067  0
C  C88  1  0.83865160  0.80792679  0.43635574  1  0.112491  0  -0.025609  0.020351  0  4.177841  0
C  C89  1  0.87307073  0.85177667  0.49242536  1  0.483598  0  0.02056  -0.039933  0  3.925238  0
C  C90  1  0.93281201  0.09691699  0.43255377  1  0.453398  0  0.020868  -0.040798  0  3.926128  0
C  C91  1  0.90138427  0.06451626  0.37366186  1  0.099845  0  -0.025659  0.019989  0  4.177881  0
C  C92  1  0.87963227  0.00878064  0.36268807  1  0.425197  0  0.020142  -0.040975  0  3.924617  0
C  C93  1  0.00310719  0.06872492  0.66686322  1  0.389872  0  0.020699  -0.040467  0  3.925936  0
C  C94  1  0.03087693  0.12769423  0.69391976  1  0.103985  0  -0.025233  0.020803  0  4.177018  0
C  C95  1  0.02020778  0.13935218  0.64959790  1  0.483425  0  0.019895  -0.04311  0  3.928556  0
C  C96  1  0.42939543  0.93097775  0.09487395  1  0.416853  0  0.020306  -0.042787  0  3.926819  0
C  C97  1  0.37037090  0.90111357  0.06335077  1  0.107423  0  -0.025336  0.022872  0  4.181973  0
C  C98  1  0.35829590  0.87971919  0.00732570  1  0.458318  0  0.02111  -0.042295  0  3.927452  0
C  C99  1  0.66382195  0.00022254  0.06821623  1  0.450576  0  0.021138  -0.039608  0  3.924578  0
C  C100  1  0.69025767  0.02744477  0.12710836  1  0.067421  0  -0.0255  0.019999  0  4.178874  0
C  C101  1  0.64539292  0.01628170  0.13799097  1  0.459176  0  0.02017  -0.042198  0  3.927556  0
C  C102  1  0.40144282  0.83646729  0.83337811  1  0.408054  0  0.019972  -0.041182  0  3.925712  0
C  C103  1  0.43353795  0.83745002  0.80648698  1  0.167598  0  -0.025161  0.019906  0  4.177239  0
C  C104  1  0.48947124  0.87111050  0.85092559  1  0.432378  0  0.020611  -0.039659  0  3.924142  0
C  C105  1  0.06967615  0.66450530  0.00160012  1  0.389653  0  0.020495  -0.040993  0  3.927137  0
C  C106  1  0.12871789  0.69207963  0.03071517  1  0.158471  0  -0.025694  0.019514  0  4.180078  0
C  C107  1  0.14091248  0.64821618  0.02133404  1  0.447726  0  0.020997  -0.039667  0  3.924726  0
C  C108  1  0.83575536  0.40335465  0.83613642  1  0.465082  0  0.020889  -0.041364  0  3.925022  0
C  C109  1  0.80927020  0.43577472  0.83697831  1  0.0854  0  -0.024922  0.021769  0  4.178146  0
C  C110  1  0.85405416  0.49150117  0.87084022  1  0.442022  0  0.020024  -0.042186  0  3.927145  0
C  C111  1  0.09820994  0.43122244  0.93468283  1  0.410466  0  0.020789  -0.039626  0  3.92357  0
C  C112  1  0.06621209  0.37225500  0.90352868  1  0.080855  0  -0.025347  0.020651  0  4.176416  0
C  C113  1  0.01024467  0.36068755  0.88123668  1  0.477251  0  0.019904  -0.042042  0  3.927658  0
C  C114  1  0.16241110  0.99807084  0.06802714  1  0.465469  0  0.020594  -0.04061  0  3.926102  0
C  C115  1  0.16096966  0.96911737  0.09810753  1  0.08349  0  -0.025635  0.019187  0  4.179139  0
C  C116  1  0.12647117  0.97852528  0.11970023  1  0.411925  0  0.020857  -0.040608  0  3.92533  0
C  C117  1  0.06648232  0.16342669  0.99934573  1  0.456784  0  0.021235  -0.039925  0  3.924939  0
C  C118  1  0.09798777  0.16255363  0.97187655  1  0.103885  0  -0.025496  0.019742  0  4.1751  0
C  C119  1  0.11988278  0.12873512  0.98281662  1  0.419315  0  0.0205  -0.03991  0  3.92508  0
C  C120  1  0.99627505  0.06512136  0.16387375  1  0.435145  0  0.020833  -0.039892  0  3.923207  0
C  C121  1  0.96842734  0.09621808  0.16304448  1  0.100165  0  -0.025481  0.019869  0  4.176561  0
C  C122  1  0.97908224  0.11843219  0.12928432  1  0.445692  0  0.019923  -0.041513  0  3.924204  0
C  C123  1  0.33810230  0.90494963  0.33552367  1  0.474494  0  0.020214  -0.041335  0  3.926706  0
C  C124  1  0.33873133  0.93640336  0.30794803  1  0.093604  0  -0.026175  0.018965  0  4.179656  0
C  C125  1  0.37298275  0.99249554  0.35177153  1  0.48533  0  0.02078  -0.039634  0  3.925324  0
C  C126  1  0.43363083  0.93258397  0.59689734  1  0.447727  0  0.020664  -0.041132  0  3.925373  0
C  C127  1  0.40236590  0.87362399  0.56465047  1  0.092343  0  -0.025241  0.021101  0  4.174582  0
C  C128  1  0.38103815  0.86254404  0.50890547  1  0.393168  0  0.019941  -0.042915  0  3.926604  0
C  C129  1  0.50419818  0.16700644  0.56841266  1  0.435084  0  0.020146  -0.043337  0  3.925756  0
C  C130  1  0.53215117  0.19405861  0.62734162  1  0.126772  0  -0.025015  0.021808  0  4.17657  0
C  C131  1  0.52162777  0.14971038  0.63899043  1  0.399582  0  0.020532  -0.040549  0  3.92466  0
C  C132  1  0.93022858  0.59495042  0.43127001  1  0.459136  0  0.020209  -0.041751  0  3.924661  0
C  C133  1  0.87116712  0.56350098  0.40116406  1  0.070522  0  -0.025436  0.020068  0  4.177532  0
C  C134  1  0.85894451  0.50741331  0.37971286  1  0.445819  0  0.020606  -0.040704  0  3.925264  0
C  C135  1  0.16431512  0.56762210  0.50121709  1  0.457548  0  0.020439  -0.04153  0  3.924674  0
C  C136  1  0.19092104  0.62657158  0.52845491  1  0.067584  0  -0.025014  0.020679  0  4.173825  0
C  C137  1  0.14614715  0.63751866  0.51721947  1  0.426583  0  0.019691  -0.041796  0  3.926388  0
C  C138  1  0.90140722  0.33300593  0.33665216  1  0.437514  0  0.020226  -0.042228  0  3.923639  0
C  C139  1  0.93332529  0.30597626  0.33772128  1  0.113311  0  -0.024812  0.021851  0  4.175573  0
C  C140  1  0.98932025  0.35034699  0.37161561  1  0.427469  0  0.02016  -0.041641  0  3.926445  0
C  C141  1  0.56975579  0.50217054  0.16405974  1  0.452774  0  0.020349  -0.041769  0  3.924836  0
C  C142  1  0.62881046  0.53118172  0.19159743  1  0.053647  0  -0.025525  0.019857  0  4.177325  0
C  C143  1  0.64099766  0.52173889  0.14769285  1  0.413635  0  0.020757  -0.040571  0  3.925851  0
C  C144  1  0.33556973  0.33603775  0.90282728  1  0.46161  0  0.0209  -0.039537  0  3.925157  0
C  C145  1  0.30899283  0.33703301  0.93522320  1  0.079472  0  -0.025674  0.019084  0  4.174866  0
C  C146  1  0.35379248  0.37102288  0.99091643  1  0.485803  0  0.020506  -0.040834  0  3.92535  0
C  C147  1  0.59845335  0.43459836  0.93087629  1  0.467823  0  0.021302  -0.038494  0  3.919996  0
C  C148  1  0.56653200  0.40335979  0.87195072  1  0.066994  0  -0.025677  0.020033  0  4.175212  0
C  C149  1  0.51053712  0.38101427  0.86038051  1  0.481948  0  0.019897  -0.042652  0  3.925539  0
C  C150  1  0.68894986  0.60624572  0.43846510  1  -0.633805  0  -0.030277  0.066247  0  4.156857  0
C  C151  1  0.71293893  0.61292688  0.41195983  1  -0.267678  0  -0.109622  -0.452967  0  3.854081  0
C  C152  1  0.81129059  0.74995129  0.41636085  1  -0.559811  0  -0.029776  0.067208  0  4.158076  0
C  C153  1  0.78709862  0.69950896  0.39911151  1  -0.411598  0  -0.109778  -0.453136  0  3.854901  0
C  C154  1  0.33227952  0.89378621  0.08322789  1  -0.679459  0  -0.030027  0.065213  0  4.163574  0
C  C155  1  0.29910326  0.88709821  0.10052882  1  -0.23767  0  -0.109553  -0.451899  0  3.857989  0
C  C156  1  0.16665423  0.75004441  0.06146230  1  -0.582476  0  -0.029356  0.068093  0  4.158644  0
C  C157  1  0.19973773  0.80051218  0.08791842  1  -0.329853  0  -0.110028  -0.453522  0  3.856339  0
C  C158  1  0.60740378  0.44160918  0.68977445  1  -0.635456  0  -0.030024  0.066838  0  4.156833  0
C  C159  1  0.61473353  0.41493324  0.71338370  1  -0.285011  0  -0.109795  -0.452922  0  3.853071  0
C  C160  1  0.75149585  0.41700256  0.80988137  1  -0.649292  0  -0.029496  0.067784  0  4.159334  0
C  C161  1  0.70123835  0.40082261  0.78605295  1  -0.28778  0  -0.110436  -0.454363  0  3.856336  0
C  C162  1  0.89306424  0.08327582  0.33466546  1  -0.611261  0  -0.029839  0.067712  0  4.159249  0
C  C163  1  0.88537960  0.09938214  0.30054640  1  -0.316902  0  -0.109772  -0.453757  0  3.856613  0
C  C164  1  0.74808219  0.05834779  0.16607383  1  -0.646025  0  -0.029926  0.066331  0  4.157129  0
C  C165  1  0.79840766  0.08505874  0.19997724  1  -0.278391  0  -0.109934  -0.452335  0  3.85248  0
C  C166  1  0.43839436  0.69026937  0.60499317  1  -0.596785  0  -0.02973  0.066663  0  4.15433  0
C  C167  1  0.41185760  0.71404493  0.61212997  1  -0.31952  0  -0.109978  -0.451674  0  3.850198  0
C  C168  1  0.41428933  0.81045669  0.74865650  1  -0.685486  0  -0.029962  0.066108  0  4.157556  0
C  C169  1  0.39769423  0.78665775  0.69837089  1  -0.246168  0  -0.109634  -0.450892  0  3.851158  0
C  C170  1  0.08555233  0.33373653  0.89583083  1  -0.633953  0  -0.029867  0.065331  0  4.156264  0
C  C171  1  0.10219598  0.30007737  0.88867821  1  -0.287982  0  -0.10999  -0.450522  0  3.851284  0
C  C172  1  0.06163800  0.16612947  0.75178485  1  -0.637253  0  -0.029761  0.066459  0  4.155277  0
C  C173  1  0.08811977  0.19969427  0.80209992  1  -0.268076  0  -0.110167  -0.451441  0  3.850848  0
C  C174  1  0.18833322  0.93859032  0.10570499  1  -0.616072  0  -0.029117  0.068853  0  4.159221  0
C  C175  1  0.21245916  0.91238990  0.11298431  1  -0.303738  0  -0.109988  -0.453871  0  3.85649  0
C  C176  1  0.31097326  0.91654651  0.25006791  1  -0.49205  0  -0.029469  0.067294  0  4.159256  0
C  C177  1  0.28652820  0.89960800  0.19974806  1  -0.460711  0  -0.109933  -0.452615  0  3.856094  0
C  C178  1  0.83304643  0.58331776  0.39358403  1  -0.594176  0  -0.029704  0.066854  0  4.157734  0
C  C179  1  0.79960235  0.60023987  0.38648027  1  -0.314099  0  -0.10984  -0.452804  0  3.85368  0
C  C180  1  0.66684607  0.56169464  0.24952126  1  -0.583167  0  -0.029401  0.067921  0  4.15802  0
C  C181  1  0.70009617  0.58774424  0.29989814  1  -0.305111  0  -0.109851  -0.453116  0  3.854023  0
C  C182  1  0.10629131  0.18962599  0.94111688  1  -0.65203  0  -0.029946  0.067287  0  4.156363  0
C  C183  1  0.11397912  0.21340775  0.91463140  1  -0.272642  0  -0.109867  -0.452632  0  3.851825  0
C  C184  1  0.25114671  0.30995133  0.91650939  1  -0.55886  0  -0.02948  0.068127  0  4.155021  0
C  C185  1  0.20087308  0.28616799  0.90045610  1  -0.360948  0  -0.110083  -0.453025  0  3.851174  0
C  C186  1  0.39383790  0.83467898  0.58355669  1  -0.608691  0  -0.030203  0.066487  0  4.157047  0
C  C187  1  0.38603182  0.80064649  0.59981462  1  -0.317793  0  -0.10974  -0.452046  0  3.851541  0
C  C188  1  0.24877249  0.66562755  0.55927812  1  -0.678448  0  -0.029838  0.067531  0  4.15407  0
C  C189  1  0.29905966  0.69977493  0.58581413  1  -0.241599  0  -0.110277  -0.453087  0  3.85016  0
C  C190  1  0.93758928  0.10396159  0.19008721  1  -0.606891  0  -0.030151  0.065801  0  4.155951  0
C  C191  1  0.91102991  0.11125415  0.21381519  1  -0.306213  0  -0.109553  -0.451549  0  3.852585  0
C  C192  1  0.91389432  0.24809574  0.31055917  1  -0.605926  0  -0.02991  0.066103  0  4.15637  0
C  C193  1  0.89713844  0.19777272  0.28651240  1  -0.279163  0  -0.109787  -0.451893  0  3.851941  0
C  C194  1  0.58589349  0.39565560  0.83342800  1  -0.620858  0  -0.030229  0.065601  0  4.157554  0
C  C195  1  0.60241085  0.38845847  0.79964352  1  -0.314775  0  -0.10955  -0.451437  0  3.853679  0
C  C196  1  0.56276114  0.25193839  0.66575913  1  -0.66102  0  -0.029862  0.066112  0  4.156608  0
C  C197  1  0.58895143  0.30225739  0.69931656  1  -0.237522  0  -0.109719  -0.45188  0  3.851868  0
N  N198  1  0.60984975  0.60443135  0.51095096  1  -0.762239  0  -0.334077  -0.139753  0  3.767877  0
N  N199  1  0.63197726  0.57226197  0.52276897  1  -0.790278  0  -0.335228  -0.138933  0  3.774247  0
N  N200  1  0.60364452  0.51474768  0.61130499  1  -0.763572  0  -0.335835  -0.139881  0  3.774217  0
N  N201  1  0.57079093  0.52513115  0.63313658  1  -0.767319  0  -0.333738  -0.14047  0  3.769095  0
N  N202  1  0.51167451  0.61202280  0.60271062  1  -0.775452  0  -0.333792  -0.139541  0  3.769463  0
N  N203  1  0.52222927  0.63349060  0.56959637  1  -0.778896  0  -0.333949  -0.140788  0  3.768852  0
N  N204  1  0.89055544  0.90139144  0.49400061  1  -0.775592  0  -0.334571  -0.141287  0  3.773061  0
N  N205  1  0.86836588  0.89129738  0.43979915  1  -0.792933  0  -0.336459  -0.139667  0  3.7819  0
N  N206  1  0.89681970  0.00838157  0.41126548  1  -0.755555  0  -0.336612  -0.140365  0  3.780064  0
N  N207  1  0.92976831  0.06296657  0.45458482  1  -0.776128  0  -0.33403  -0.139243  0  3.769963  0
N  N208  1  0.98861451  0.09111504  0.60033428  1  -0.783295  0  -0.333861  -0.13898  0  3.770812  0
N  N209  1  0.97801314  0.04731949  0.61103818  1  -0.797125  0  -0.334567  -0.140537  0  3.771382  0
N  N210  1  0.40644415  0.89569759  0.00592353  1  -0.780629  0  -0.335006  -0.139354  0  3.772216  0
N  N211  1  0.45046240  0.92744877  0.06016370  1  -0.774598  0  -0.336414  -0.140141  0  3.777679  0
N  N212  1  0.59643851  0.98495443  0.08937831  1  -0.796258  0  -0.336052  -0.139403  0  3.776372  0
N  N213  1  0.60780320  0.97496887  0.04610380  1  -0.766998  0  -0.333727  -0.140779  0  3.76836  0
N  N214  1  0.49031851  0.88855063  0.90012081  1  -0.771463  0  -0.334479  -0.142141  0  3.768477  0
N  N215  1  0.43572916  0.86705614  0.88921739  1  -0.781032  0  -0.334176  -0.138392  0  3.771759  0
N  N216  1  0.09283078  0.59863188  0.98915355  1  -0.774313  0  -0.335269  -0.142264  0  3.77396  0
N  N217  1  0.04874166  0.60877362  0.97695881  1  -0.772593  0  -0.335937  -0.137904  0  3.780238  0
N  N218  1  0.90303467  0.49187642  0.88848426  1  -0.76179  0  -0.337092  -0.140367  0  3.780768  0
N  N219  1  0.89175241  0.43728622  0.86700330  1  -0.774078  0  -0.333718  -0.138415  0  3.769617  0
N  N220  1  0.00929938  0.40897222  0.89784520  1  -0.774073  0  -0.333755  -0.138899  0  3.769748  0
N  N221  1  0.06384195  0.45270601  0.93098803  1  -0.773714  0  -0.334795  -0.141256  0  3.770785  0
N  N222  1  0.10900579  0.01058376  0.10370083  1  -0.770681  0  -0.335135  -0.140531  0  3.773709  0
N  N223  1  0.13128354  0.02268558  0.07168535  1  -0.767043  0  -0.335243  -0.139858  0  3.775471  0
N  N224  1  0.10270397  0.11113226  0.01425655  1  -0.763658  0  -0.335768  -0.141685  0  3.779574  0
N  N225  1  0.06960250  0.13262037  0.02453170  1  -0.768407  0  -0.333798  -0.140013  0  3.769026  0
N  N226  1  0.01076474  0.10185494  0.11166668  1  -0.76828  0  -0.33367  -0.139252  0  3.767382  0
N  N227  1  0.02140845  0.06878956  0.13311312  1  -0.779144  0  -0.334863  -0.141089  0  3.771799  0
N  N228  1  0.39106275  0.99403065  0.40131905  1  -0.762711  0  -0.334547  -0.14097  0  3.773805  0
N  N229  1  0.36944314  0.93977872  0.39123124  1  -0.774009  0  -0.335126  -0.138789  0  3.775917  0
N  N230  1  0.39831610  0.91108518  0.50835198  1  -0.752725  0  -0.335072  -0.13846  0  3.775621  0
N  N231  1  0.43091960  0.95452840  0.56287864  1  -0.775748  0  -0.333964  -0.140662  0  3.768055  0
N  N232  1  0.48990838  0.10040946  0.59077536  1  -0.773735  0  -0.333986  -0.140868  0  3.768701  0
N  N233  1  0.47910494  0.11114887  0.54702214  1  -0.803512  0  -0.334523  -0.138015  0  3.769721  0
N  N234  1  0.90698903  0.50588639  0.39584430  1  -0.772944  0  -0.334624  -0.141028  0  3.771553  0
N  N235  1  0.95114687  0.56014064  0.42779447  1  -0.770171  0  -0.334626  -0.137788  0  3.772188  0
N  N236  1  0.09708453  0.58892102  0.48582665  1  -0.75566  0  -0.335507  -0.140599  0  3.775042  0
N  N237  1  0.10830526  0.54556439  0.47588027  1  -0.766067  0  -0.333038  -0.139031  0  3.766862  0
N  N238  1  0.99036544  0.39963833  0.38904596  1  -0.778912  0  -0.334187  -0.141017  0  3.768481  0
N  N239  1  0.93584138  0.38887284  0.36736408  1  -0.794398  0  -0.334144  -0.138814  0  3.767851  0
N  N240  1  0.59293019  0.48958025  0.09816804  1  -0.765494  0  -0.334399  -0.139394  0  3.772335  0
N  N241  1  0.54879107  0.47746110  0.10832814  1  -0.762005  0  -0.335255  -0.139855  0  3.774251  0
N  N242  1  0.40283404  0.38859856  0.99130353  1  -0.779472  0  -0.335464  -0.140342  0  3.77607  0
N  N243  1  0.39157577  0.36692414  0.93671029  1  -0.760136  0  -0.333774  -0.140658  0  3.769081  0
N  N244  1  0.50948200  0.39767389  0.90861856  1  -0.775855  0  -0.333463  -0.138786  0  3.767698  0
N  N245  1  0.56400274  0.43090483  0.95232498  1  -0.77413  0  -0.334907  -0.141327  0  3.771054  0
