# generated using pymatgen
data_ZnH11C13N2O5
_symmetry_space_group_name_H-M   'P 1'
_cell_length_a   7.65295743
_cell_length_b   11.93895592
_cell_length_c   16.16041161
_cell_angle_alpha   108.52617546
_cell_angle_beta   90.00056103
_cell_angle_gamma   89.99984667
_symmetry_Int_Tables_number   1
_chemical_formula_structural   ZnH11C13N2O5
_chemical_formula_sum   'Zn4 H44 C52 N8 O20'
_cell_volume   1400.03280564
_cell_formula_units_Z   4
loop_
 _symmetry_equiv_pos_site_id
 _symmetry_equiv_pos_as_xyz
  1  'x, y, z'
loop_
 _atom_site_type_symbol
 _atom_site_label
 _atom_site_symmetry_multiplicity
 _atom_site_fract_x
 _atom_site_fract_y
 _atom_site_fract_z
 _atom_site_occupancy
 _atom_site_hle17_bader_spin_density
 _atom_site_hle17_ddec_charge
 _atom_site_hle17_ddec_spin_density
 _atom_site_hle17_ddec_sum_bond_order
 _atom_site_hle17_magmom
 _atom_site_hse06_10hf_bader_spin_density
 _atom_site_hse06_10hf_ddec_charge
 _atom_site_hse06_10hf_ddec_spin_density
 _atom_site_hse06_10hf_ddec_sum_bond_order
 _atom_site_hse06_10hf_magmom
 _atom_site_hse06_bader_spin_density
 _atom_site_hse06_ddec_charge
 _atom_site_hse06_ddec_spin_density
 _atom_site_hse06_ddec_sum_bond_order
 _atom_site_hse06_magmom
 _atom_site_pbe_bader_spin_density
 _atom_site_pbe_cm5_charge
 _atom_site_pbe_ddec_charge
 _atom_site_pbe_ddec_spin_density
 _atom_site_pbe_ddec_sum_bond_order
 _atom_site_pbe_magmom
Zn  Zn0  1  0.98683314  0.17392086  0.31411998  1  0  1.018201  0  1.785415  0  0  0.828208  0  2.243093  0  0  0.874498  0  2.191401  0  0  0.697737  0.796053  0  2.27845  0
Zn  Zn1  1  0.48683294  0.82608182  0.18588042  1  0  1.018201  0  1.785458  0  0  0.828199  0  2.243155  0  0  0.874486  0  2.19146  0  0  0.697714  0.796046  0  2.278514  0
Zn  Zn2  1  0.01316499  0.82607586  0.68587903  1  0  1.018159  0  1.785487  0  0  0.828143  0  2.243175  0  0  0.874437  0  2.191481  0  0  0.697692  0.795982  0  2.278533  0
Zn  Zn3  1  0.51316650  0.17391934  0.81411907  1  0  1.018233  0  1.785367  0  0  0.828262  0  2.243044  0  0  0.874548  0  2.191354  0  0  0.697745  0.796106  0  2.2784  0
H  H4  1  0.21722191  0.42984305  0.21215350  1  0  0.397952  0  0.858644  0  0  0.384198  0  0.914154  0  0  0.391517  0  0.903517  0  0  0.300443  0.379032  0  0.921569  0
H  H5  1  0.71721995  0.57015601  0.28784537  1  0  0.397955  0  0.858621  0  0  0.384203  0  0.914149  0  0  0.391522  0  0.903512  0  0  0.300427  0.379037  0  0.921547  0
H  H6  1  0.78278668  0.57015898  0.78784682  1  0  0.397865  0  0.858663  0  0  0.384101  0  0.914276  0  0  0.391422  0  0.903636  0  0  0.300366  0.378934  0  0.921621  0
H  H7  1  0.28278471  0.42984605  0.71215310  1  0  0.397955  0  0.858659  0  0  0.384199  0  0.914161  0  0  0.391518  0  0.903523  0  0  0.30046  0.379033  0  0.921584  0
H  H8  1  0.09119776  0.33567814  0.22603573  1  0  0.411514  0  0.888134  0  0  0.382055  0  0.950518  0  0  0.392333  0  0.93511  0  0  0.279514  0.374763  0  0.961441  0
H  H9  1  0.59118991  0.66431820  0.27396312  1  0  0.4115  0  0.888144  0  0  0.382033  0  0.950542  0  0  0.392312  0  0.935133  0  0  0.279496  0.374742  0  0.961465  0
H  H10  1  0.90882128  0.66431941  0.77396596  1  0  0.411508  0  0.888145  0  0  0.382043  0  0.950538  0  0  0.392321  0  0.935131  0  0  0.279531  0.374757  0  0.961452  0
H  H11  1  0.40881214  0.33568554  0.72603948  1  0  0.41149  0  0.888186  0  0  0.382018  0  0.950591  0  0  0.392298  0  0.935181  0  0  0.279483  0.374725  0  0.961518  0
H  H12  1  0.52131508  0.98469121  0.85733636  1  0  0.329943  0  0.892177  0  0  0.31582  0  0.948936  0  0  0.323228  0  0.94291  0  0  0.299957  0.310544  0  0.953232  0
H  H13  1  0.02130554  0.01530487  0.64266200  1  0  0.329944  0  0.892081  0  0  0.315778  0  0.948901  0  0  0.323191  0  0.942873  0  0  0.299924  0.310499  0  0.9532  0
H  H14  1  0.47868305  0.01531080  0.14266457  1  0  0.329968  0  0.892215  0  0  0.315845  0  0.948971  0  0  0.323253  0  0.942944  0  0  0.299986  0.310568  0  0.953272  0
H  H15  1  0.97868998  0.98469189  0.35733517  1  0  0.329958  0  0.892131  0  0  0.315783  0  0.94895  0  0  0.323194  0  0.942923  0  0  0.299928  0.310505  0  0.953247  0
H  H16  1  0.67075327  0.96848453  0.77923919  1  0  0.325604  0  0.911894  0  0  0.308655  0  0.974648  0  0  0.316449  0  0.968282  0  0  0.293349  0.303094  0  0.97919  0
H  H17  1  0.17075049  0.03151073  0.72075904  1  0  0.325684  0  0.911822  0  0  0.308676  0  0.974642  0  0  0.316475  0  0.968273  0  0  0.293351  0.303112  0  0.979186  0
H  H18  1  0.32924355  0.03151660  0.22076152  1  0  0.325582  0  0.911949  0  0  0.308657  0  0.974664  0  0  0.31645  0  0.968297  0  0  0.293332  0.303097  0  0.979207  0
H  H19  1  0.82924372  0.96848691  0.27923896  1  0  0.325594  0  0.911932  0  0  0.308653  0  0.974661  0  0  0.316451  0  0.968293  0  0  0.293356  0.303091  0  0.979205  0
H  H20  1  0.97133216  0.34821110  0.49689881  1  0  0.099233  0  0.952471  0  0  0.107584  0  1.012456  0  0  0.110643  0  1.009671  0  0  0.121559  0.10529  0  1.014563  0
H  H21  1  0.47132630  0.65179513  0.00310176  1  0  0.099222  0  0.95248  0  0  0.107565  0  1.012453  0  0  0.110623  0  1.00967  0  0  0.121556  0.105275  0  1.014556  0
H  H22  1  0.02867250  0.65178645  0.50310288  1  0  0.099258  0  0.952396  0  0  0.107618  0  1.012389  0  0  0.110677  0  1.009605  0  0  0.121557  0.105325  0  1.014497  0
H  H23  1  0.52867184  0.34820963  0.99689551  1  0  0.099222  0  0.952479  0  0  0.107567  0  1.012465  0  0  0.110625  0  1.009681  0  0  0.121532  0.105275  0  1.014572  0
H  H24  1  0.67886787  0.28507390  0.27124705  1  0  0.090448  0  0.964358  0  0  0.098907  0  1.023903  0  0  0.101806  0  1.021274  0  0  0.120379  0.096664  0  1.02597  0
H  H25  1  0.17886639  0.71492866  0.22875373  1  0  0.090472  0  0.964345  0  0  0.098919  0  1.023898  0  0  0.101819  0  1.021266  0  0  0.120373  0.096677  0  1.02596  0
H  H26  1  0.32113549  0.71492363  0.72875587  1  0  0.090456  0  0.964315  0  0  0.098881  0  1.023885  0  0  0.10178  0  1.021253  0  0  0.120349  0.096626  0  1.025966  0
H  H27  1  0.82113828  0.28506894  0.77124611  1  0  0.09047  0  0.964346  0  0  0.098929  0  1.023882  0  0  0.101829  0  1.021249  0  0  0.120351  0.096673  0  1.02596  0
H  H28  1  0.74972827  0.48643709  0.58545538  1  0  0.123589  0  0.952534  0  0  0.1343  0  1.009501  0  0  0.137491  0  1.008301  0  0  0.113567  0.132017  0  1.010472  0
H  H29  1  0.24971967  0.51356612  0.91454580  1  0  0.1235  0  0.952773  0  0  0.134289  0  1.009634  0  0  0.137478  0  1.008439  0  0  0.113588  0.132009  0  1.010597  0
H  H30  1  0.25027117  0.51355417  0.41454972  1  0  0.123539  0  0.952607  0  0  0.134273  0  1.009539  0  0  0.137462  0  1.008343  0  0  0.113576  0.131993  0  1.010508  0
H  H31  1  0.75027062  0.48644215  0.08545296  1  0  0.123568  0  0.952546  0  0  0.134296  0  1.009493  0  0  0.137486  0  1.008294  0  0  0.113572  0.132014  0  1.010461  0
H  H32  1  0.13353953  0.18881275  0.06680527  1  0  0.109389  0  0.952162  0  0  0.115994  0  1.017885  0  0  0.120797  0  1.013266  0  0  0.104277  0.112471  0  1.021299  0
H  H33  1  0.63353174  0.81119431  0.43319147  1  0  0.1094  0  0.952181  0  0  0.116016  0  1.017868  0  0  0.120816  0  1.013257  0  0  0.104317  0.112499  0  1.021283  0
H  H34  1  0.86646253  0.81119380  0.93319121  1  0  0.109436  0  0.952184  0  0  0.116044  0  1.017879  0  0  0.120846  0  1.013264  0  0  0.104308  0.112521  0  1.021296  0
H  H35  1  0.36646639  0.18880863  0.56680722  1  0  0.109436  0  0.952164  0  0  0.116047  0  1.017861  0  0  0.120848  0  1.013247  0  0  0.104331  0.112526  0  1.021275  0
H  H36  1  0.60377181  0.06585528  0.01228009  1  0  0.114416  0  0.950414  0  0  0.123262  0  1.01502  0  0  0.127161  0  1.011638  0  0  0.108056  0.120353  0  1.017657  0
H  H37  1  0.10376431  0.93414729  0.48771850  1  0  0.114449  0  0.950461  0  0  0.123298  0  1.015067  0  0  0.127177  0  1.011709  0  0  0.108056  0.120388  0  1.017705  0
H  H38  1  0.39622894  0.93415026  0.98772172  1  0  0.114431  0  0.950346  0  0  0.123292  0  1.014929  0  0  0.127189  0  1.011551  0  0  0.108039  0.120382  0  1.017565  0
H  H39  1  0.89623252  0.06584943  0.51228051  1  0  0.114482  0  0.950455  0  0  0.123335  0  1.015047  0  0  0.127216  0  1.011687  0  0  0.108065  0.120422  0  1.017685  0
H  H40  1  0.93948281  0.08363097  0.80350751  1  0  0.114279  0  0.965786  0  0  0.12234  0  1.034209  0  0  0.126028  0  1.03105  0  0  0.109863  0.119623  0  1.036636  0
H  H41  1  0.43947462  0.91636353  0.69648931  1  0  0.114302  0  0.965862  0  0  0.122415  0  1.034214  0  0  0.126105  0  1.03105  0  0  0.109884  0.119698  0  1.036641  0
H  H42  1  0.06051663  0.91636313  0.19648962  1  0  0.114302  0  0.965828  0  0  0.122358  0  1.03426  0  0  0.126047  0  1.031099  0  0  0.109859  0.119642  0  1.036687  0
H  H43  1  0.56051829  0.08363054  0.30350905  1  0  0.114341  0  0.965757  0  0  0.122399  0  1.034181  0  0  0.126088  0  1.031021  0  0  0.10989  0.119683  0  1.036611  0
H  H44  1  0.44093946  0.41521260  0.34794435  1  0  0.11728  0  0.960898  0  0  0.125266  0  1.023439  0  0  0.129245  0  1.020948  0  0  0.111973  0.122345  0  1.02548  0
H  H45  1  0.94093988  0.58478732  0.15205949  1  0  0.117245  0  0.9609  0  0  0.125232  0  1.02344  0  0  0.129211  0  1.020951  0  0  0.111955  0.122312  0  1.025483  0
H  H46  1  0.55906259  0.58477955  0.65206035  1  0  0.117291  0  0.960969  0  0  0.125303  0  1.023466  0  0  0.129283  0  1.020973  0  0  0.111994  0.122383  0  1.025509  0
H  H47  1  0.05906217  0.41521380  0.84794184  1  0  0.117263  0  0.960908  0  0  0.125246  0  1.023453  0  0  0.129225  0  1.020962  0  0  0.111956  0.122325  0  1.025495  0
C  C48  1  0.85295666  0.36907840  0.46730729  1  0  0.134563  0  3.694193  0  0  0.101444  0  3.944458  0  0  0.108483  0  3.963098  0  0  0.052546  0.096951  0  3.931717  0
C  C49  1  0.35295280  0.63092589  0.03269783  1  0  0.13447  0  3.694444  0  0  0.101386  0  3.944663  0  0  0.108424  0  3.963308  0  0  0.052536  0.096892  0  3.931925  0
C  C50  1  0.14704800  0.63091462  0.53269824  1  0  0.134503  0  3.694485  0  0  0.10131  0  3.944809  0  0  0.108349  0  3.963448  0  0  0.052504  0.096815  0  3.93207  0
C  C51  1  0.64704534  0.36907792  0.96730169  1  0  0.134505  0  3.694366  0  0  0.101407  0  3.944608  0  0  0.108446  0  3.963248  0  0  0.052579  0.096913  0  3.931872  0
C  C52  1  0.69027584  0.33391851  0.34047805  1  0  0.132182  0  3.703995  0  0  0.101273  0  3.951041  0  0  0.108328  0  3.969354  0  0  0.049779  0.09676  0  3.938673  0
C  C53  1  0.19027313  0.66608225  0.15952359  1  0  0.132199  0  3.704172  0  0  0.101292  0  3.951181  0  0  0.108347  0  3.969496  0  0  0.049796  0.09678  0  3.938807  0
C  C54  1  0.30972491  0.66607721  0.65952567  1  0  0.132262  0  3.704098  0  0  0.10138  0  3.951087  0  0  0.108434  0  3.969403  0  0  0.049838  0.096872  0  3.938712  0
C  C55  1  0.80972761  0.33391714  0.84047546  1  0  0.132204  0  3.704188  0  0  0.101288  0  3.951196  0  0  0.108343  0  3.969509  0  0  0.049798  0.096784  0  3.938824  0
C  C56  1  0.72602177  0.44465221  0.51589784  1  0  -0.145528  0  3.667525  0  0  -0.162696  0  3.910976  0  0  -0.170972  0  3.932727  0  0  -0.07301  -0.157351  0  3.896339  0
C  C57  1  0.22601574  0.55534921  0.98410340  1  0  -0.14536  0  3.667583  0  0  -0.16257  0  3.911008  0  0  -0.170857  0  3.932753  0  0  -0.073004  -0.157224  0  3.896374  0
C  C58  1  0.27397898  0.55533995  0.48410624  1  0  -0.145387  0  3.667644  0  0  -0.162562  0  3.911075  0  0  -0.170829  0  3.93283  0  0  -0.072956  -0.157219  0  3.896446  0
C  C59  1  0.77397717  0.44465995  0.01589558  1  0  -0.145397  0  3.667325  0  0  -0.162591  0  3.910754  0  0  -0.170858  0  3.932515  0  0  -0.072969  -0.157246  0  3.896125  0
C  C60  1  0.23091446  0.16530726  0.90309758  1  0  0.633689  0  3.914341  0  0  0.583553  0  4.204356  0  0  0.617181  0  4.198713  0  0  0.198446  0.560844  0  4.207276  0
C  C61  1  0.73091534  0.83469157  0.59690057  1  0  0.63368  0  3.91434  0  0  0.58351  0  4.204363  0  0  0.617133  0  4.198726  0  0  0.1984  0.560802  0  4.207279  0
C  C62  1  0.76907845  0.83469576  0.09689803  1  0  0.633462  0  3.914418  0  0  0.583362  0  4.204362  0  0  0.616987  0  4.198725  0  0  0.198366  0.560655  0  4.207277  0
C  C63  1  0.26908279  0.16530869  0.40309931  1  0  0.633694  0  3.914254  0  0  0.583529  0  4.204267  0  0  0.617154  0  4.198626  0  0  0.198439  0.560822  0  4.207186  0
C  C64  1  0.02704304  0.15676892  0.02086100  1  0  -0.078769  0  3.715743  0  0  -0.119999  0  3.970408  0  0  -0.118141  0  3.989963  0  0  -0.083708  -0.120953  0  3.957169  0
C  C65  1  0.52703607  0.84323537  0.47913889  1  0  -0.078805  0  3.715848  0  0  -0.120073  0  3.970483  0  0  -0.118214  0  3.990041  0  0  -0.083773  -0.12103  0  3.957245  0
C  C66  1  0.97296032  0.84323402  0.97913768  1  0  -0.078898  0  3.715908  0  0  -0.120146  0  3.970549  0  0  -0.118288  0  3.990105  0  0  -0.083776  -0.1211  0  3.957308  0
C  C67  1  0.47296207  0.15676580  0.52085998  1  0  -0.078834  0  3.715923  0  0  -0.1201  0  3.97055  0  0  -0.118238  0  3.990107  0  0  -0.083786  -0.121051  0  3.957304  0
C  C68  1  0.86523177  0.12954120  0.04932686  1  0  -0.062852  0  3.788674  0  0  -0.037171  0  4.024432  0  0  -0.046185  0  4.049595  0  0  -0.020557  -0.031408  0  4.007488  0
C  C69  1  0.36521984  0.87046237  0.45067134  1  0  -0.062905  0  3.788822  0  0  -0.037179  0  4.024549  0  0  -0.046191  0  4.049705  0  0  -0.020561  -0.031418  0  4.007606  0
C  C70  1  0.13477421  0.87045997  0.95067201  1  0  -0.062837  0  3.788792  0  0  -0.037165  0  4.024548  0  0  -0.046178  0  4.049709  0  0  -0.020568  -0.031399  0  4.007601  0
C  C71  1  0.63477568  0.12953790  0.54932793  1  0  -0.062872  0  3.788858  0  0  -0.037162  0  4.024598  0  0  -0.046176  0  4.049757  0  0  -0.020558  -0.031398  0  4.007649  0
C  C72  1  0.73037209  0.08474006  0.98904638  1  0  -0.135446  0  3.654071  0  0  -0.169694  0  3.90559  0  0  -0.169939  0  3.923895  0  0  -0.079272  -0.169202  0  3.893235  0
C  C73  1  0.23036140  0.91526230  0.51095264  1  0  -0.135485  0  3.654043  0  0  -0.169752  0  3.905597  0  0  -0.16998  0  3.923908  0  0  -0.079269  -0.169256  0  3.893238  0
C  C74  1  0.26962865  0.91526368  0.01095621  1  0  -0.135372  0  3.653925  0  0  -0.169639  0  3.905413  0  0  -0.169882  0  3.923725  0  0  -0.079165  -0.169142  0  3.893052  0
C  C75  1  0.76963412  0.08473531  0.48904660  1  0  -0.135568  0  3.654094  0  0  -0.169819  0  3.905664  0  0  -0.170049  0  3.923979  0  0  -0.079266  -0.169321  0  3.893304  0
C  C76  1  0.92104487  0.09409333  0.87232814  1  0  -0.152198  0  3.676679  0  0  -0.187054  0  3.932741  0  0  -0.187302  0  3.951586  0  0  -0.086912  -0.186503  0  3.919987  0
C  C77  1  0.42104184  0.90590560  0.62766906  1  0  -0.152303  0  3.676786  0  0  -0.187216  0  3.93283  0  0  -0.187466  0  3.951675  0  0  -0.086958  -0.186664  0  3.920077  0
C  C78  1  0.07895326  0.90590693  0.12767174  1  0  -0.152224  0  3.676815  0  0  -0.18712  0  3.932832  0  0  -0.18737  0  3.951679  0  0  -0.086935  -0.186568  0  3.920079  0
C  C79  1  0.57895498  0.09409201  0.37233017  1  0  -0.152295  0  3.676755  0  0  -0.187158  0  3.932816  0  0  -0.187404  0  3.951659  0  0  -0.086955  -0.186609  0  3.920069  0
C  C80  1  0.83855283  0.14197345  0.14360888  1  0  0.646079  0  3.905305  0  0  0.594952  0  4.19944  0  0  0.628683  0  4.192635  0  0  0.20875  0.572125  0  4.203278  0
C  C81  1  0.33854686  0.85803012  0.35638857  1  0  0.646253  0  3.905137  0  0  0.595086  0  4.199302  0  0  0.628818  0  4.192493  0  0  0.208697  0.57226  0  4.203141  0
C  C82  1  0.16145053  0.85802769  0.85639122  1  0  0.646173  0  3.905158  0  0  0.595063  0  4.199264  0  0  0.628793  0  4.192458  0  0  0.208774  0.572236  0  4.203103  0
C  C83  1  0.66145520  0.14197193  0.64361051  1  0  0.646202  0  3.905137  0  0  0.595048  0  4.199303  0  0  0.62878  0  4.192494  0  0  0.208716  0.572222  0  4.203141  0
C  C84  1  0.75894188  0.06595447  0.90042719  1  0  0.269481  0  3.775734  0  0  0.26999  0  4.024041  0  0  0.274017  0  4.047117  0  0  0.082017  0.266938  0  4.008412  0
C  C85  1  0.25894076  0.93404703  0.59957114  1  0  0.269562  0  3.775584  0  0  0.270022  0  4.023935  0  0  0.274059  0  4.047005  0  0  0.082031  0.266964  0  4.008304  0
C  C86  1  0.24105495  0.93404486  0.09957433  1  0  0.269477  0  3.775862  0  0  0.270045  0  4.024075  0  0  0.27407  0  4.047151  0  0  0.082008  0.266993  0  4.008447  0
C  C87  1  0.74105737  0.06595324  0.40042813  1  0  0.269621  0  3.7755  0  0  0.270043  0  4.023897  0  0  0.274076  0  4.046966  0  0  0.082023  0.266987  0  4.00827  0
C  C88  1  0.05508213  0.13918152  0.93215256  1  0  -0.055985  0  3.795141  0  0  -0.030948  0  4.032533  0  0  -0.039787  0  4.056957  0  0  -0.020964  -0.025305  0  4.016054  0
C  C89  1  0.55507708  0.86081990  0.56784603  1  0  -0.056002  0  3.795201  0  0  -0.030891  0  4.032497  0  0  -0.039723  0  4.056922  0  0  -0.020967  -0.025251  0  4.016021  0
C  C90  1  0.94491992  0.86081698  0.06784627  1  0  -0.055952  0  3.79517  0  0  -0.030876  0  4.032452  0  0  -0.039712  0  4.056877  0  0  -0.020964  -0.025236  0  4.015975  0
C  C91  1  0.44492236  0.13918125  0.43215346  1  0  -0.056069  0  3.795305  0  0  -0.030928  0  4.032543  0  0  -0.039767  0  4.056967  0  0  -0.020973  -0.025288  0  4.016069  0
C  C92  1  0.55687543  0.40696952  0.38467077  1  0  -0.150879  0  3.691939  0  0  -0.169548  0  3.938921  0  0  -0.177624  0  3.959598  0  0  -0.075038  -0.164349  0  3.92514  0
C  C93  1  0.05687080  0.59303121  0.11533024  1  0  -0.150789  0  3.692144  0  0  -0.169414  0  3.939112  0  0  -0.177502  0  3.959782  0  0  -0.074987  -0.164218  0  3.925329  0
C  C94  1  0.44312663  0.59302442  0.61533375  1  0  -0.150874  0  3.692162  0  0  -0.169574  0  3.939067  0  0  -0.177647  0  3.959752  0  0  -0.075043  -0.164379  0  3.925281  0
C  C95  1  0.94312602  0.40696996  0.88466863  1  0  -0.150835  0  3.692155  0  0  -0.169495  0  3.93909  0  0  -0.177565  0  3.959782  0  0  -0.074987  -0.164298  0  3.925302  0
C  C96  1  0.57144447  0.46302139  0.47500600  1  0  0.102845  0  3.741938  0  0  0.113454  0  3.972353  0  0  0.117703  0  3.994067  0  0  0.019444  0.110767  0  3.95755  0
C  C97  1  0.07144083  0.53697751  0.02499711  1  0  0.102767  0  3.742089  0  0  0.113285  0  3.972648  0  0  0.117572  0  3.994314  0  0  0.019383  0.110596  0  3.957847  0
C  C98  1  0.42855367  0.53696809  0.52499866  1  0  0.102767  0  3.742157  0  0  0.113448  0  3.972501  0  0  0.117673  0  3.994238  0  0  0.019331  0.110755  0  3.9577  0
C  C99  1  0.92855469  0.46302809  0.97500223  1  0  0.102786  0  3.742055  0  0  0.113452  0  3.972475  0  0  0.117657  0  3.994218  0  0  0.01934  0.110762  0  3.957675  0
N  N100  1  0.62273775  0.02651808  0.83703394  1  0  -0.675134  0  3.13918  0  0  -0.608996  0  3.383485  0  0  -0.629722  0  3.376931  0  0  -0.600063  -0.594576  0  3.388036  0
N  N101  1  0.12273256  0.97347719  0.66296284  1  0  -0.675241  0  3.139039  0  0  -0.608966  0  3.383351  0  0  -0.629721  0  3.376821  0  0  -0.60004  -0.594532  0  3.387885  0
N  N102  1  0.37726038  0.97348306  0.16296616  1  0  -0.675203  0  3.139368  0  0  -0.609092  0  3.383625  0  0  -0.629814  0  3.377061  0  0  -0.600097  -0.594678  0  3.388186  0
N  N103  1  0.87726427  0.02651954  0.33703556  1  0  -0.675253  0  3.139086  0  0  -0.609008  0  3.383367  0  0  -0.629749  0  3.376822  0  0  -0.600082  -0.59458  0  3.387912  0
N  N104  1  0.83517975  0.31356869  0.38097763  1  0  -0.33819  0  3.325573  0  0  -0.248902  0  3.596155  0  0  -0.268951  0  3.612206  0  0  -0.332211  -0.23545  0  3.585113  0
N  N105  1  0.33517483  0.68643391  0.11902389  1  0  -0.338221  0  3.326014  0  0  -0.248927  0  3.59653  0  0  -0.268978  0  3.612584  0  0  -0.332205  -0.235476  0  3.585486  0
N  N106  1  0.16482491  0.68642708  0.61902424  1  0  -0.338278  0  3.326036  0  0  -0.248922  0  3.59654  0  0  -0.268975  0  3.612596  0  0  -0.332184  -0.235468  0  3.585488  0
N  N107  1  0.66482592  0.31356726  0.88097498  1  0  -0.338245  0  3.32603  0  0  -0.248954  0  3.596565  0  0  -0.269006  0  3.612622  0  0  -0.332213  -0.235501  0  3.585516  0
O  O108  1  0.69988128  0.10738335  0.16894675  1  0  -0.614322  0  1.949259  0  0  -0.566073  0  2.175088  0  0  -0.588919  0  2.166122  0  0  -0.313693  -0.550124  0  2.180704  0
O  O109  1  0.19988118  0.89262733  0.33104871  1  0  -0.614395  0  1.949072  0  0  -0.566137  0  2.174928  0  0  -0.588981  0  2.165958  0  0  -0.313699  -0.550198  0  2.180565  0
O  O110  1  0.30011816  0.89262135  0.83105299  1  0  -0.614405  0  1.949135  0  0  -0.566152  0  2.174954  0  0  -0.588996  0  2.165987  0  0  -0.313737  -0.550215  0  2.180594  0
O  O111  1  0.80012218  0.10737917  0.66895024  1  0  -0.614401  0  1.949132  0  0  -0.566101  0  2.17494  0  0  -0.588943  0  2.165967  0  0  -0.313709  -0.550155  0  2.180559  0
O  O112  1  0.14634914  0.41230791  0.25643892  1  0  -0.815988  0  1.711978  0  0  -0.780555  0  1.83889  0  0  -0.795741  0  1.813326  0  0  -0.609402  -0.76974  0  1.856679  0
O  O113  1  0.64634621  0.58769114  0.24355900  1  0  -0.81597  0  1.711979  0  0  -0.78054  0  1.838923  0  0  -0.795723  0  1.813355  0  0  -0.60937  -0.769725  0  1.856695  0
O  O114  1  0.85366859  0.58768964  0.74356277  1  0  -0.815899  0  1.711984  0  0  -0.780449  0  1.838981  0  0  -0.795638  0  1.813423  0  0  -0.609346  -0.769637  0  1.856685  0
O  O115  1  0.35364670  0.41231087  0.75644193  1  0  -0.815959  0  1.712052  0  0  -0.780527  0  1.838981  0  0  -0.795706  0  1.813403  0  0  -0.609382  -0.769712  0  1.856773  0
O  O116  1  0.96890156  0.18859716  0.19509442  1  0  -0.678592  0  2.096408  0  0  -0.593749  0  2.362045  0  0  -0.623435  0  2.346831  0  0  -0.329982  -0.57284  0  2.371567  0
O  O117  1  0.46889211  0.81140377  0.30490423  1  0  -0.678681  0  2.096499  0  0  -0.593808  0  2.362133  0  0  -0.623497  0  2.346923  0  0  -0.329902  -0.572898  0  2.371652  0
O  O118  1  0.03110572  0.81140047  0.80490358  1  0  -0.678595  0  2.096462  0  0  -0.593773  0  2.362114  0  0  -0.62346  0  2.346902  0  0  -0.329952  -0.572856  0  2.371614  0
O  O119  1  0.53111125  0.18859913  0.69509630  1  0  -0.678617  0  2.096436  0  0  -0.593808  0  2.362124  0  0  -0.623498  0  2.346915  0  0  -0.329938  -0.572893  0  2.371632  0
O  O120  1  0.35278940  0.19840659  0.95742223  1  0  -0.615818  0  1.933737  0  0  -0.565737  0  2.160153  0  0  -0.589573  0  2.151269  0  0  -0.317647  -0.549014  0  2.165567  0
O  O121  1  0.85278408  0.80159497  0.54257531  1  0  -0.615784  0  1.933703  0  0  -0.565689  0  2.160118  0  0  -0.589529  0  2.151245  0  0  -0.317614  -0.548964  0  2.165527  0
O  O122  1  0.64721004  0.80160006  0.04256994  1  0  -0.615698  0  1.933718  0  0  -0.565632  0  2.160093  0  0  -0.589467  0  2.151215  0  0  -0.317605  -0.548906  0  2.165497  0
O  O123  1  0.14721536  0.19840791  0.45742646  1  0  -0.615792  0  1.93361  0  0  -0.565705  0  2.160018  0  0  -0.589549  0  2.15115  0  0  -0.317641  -0.548979  0  2.165427  0
O  O124  1  0.25355194  0.15146266  0.82037671  1  0  -0.650966  0  2.027032  0  0  -0.570148  0  2.279276  0  0  -0.5993  0  2.266258  0  0  -0.329181  -0.549833  0  2.287521  0
O  O125  1  0.75355186  0.84853528  0.67962195  1  0  -0.650906  0  2.027042  0  0  -0.570121  0  2.279355  0  0  -0.599269  0  2.266335  0  0  -0.329125  -0.549804  0  2.287596  0
O  O126  1  0.74644358  0.84853503  0.17961883  1  0  -0.650796  0  2.02696  0  0  -0.570018  0  2.279208  0  0  -0.599171  0  2.266192  0  0  -0.32909  -0.549702  0  2.28745  0
O  O127  1  0.24644758  0.15146496  0.32037855  1  0  -0.65088  0  2.027058  0  0  -0.570102  0  2.279351  0  0  -0.599251  0  2.266331  0  0  -0.32912  -0.549786  0  2.287595  0
