# generated using pymatgen
data_Mg5H38C52(N2O9)2
_symmetry_space_group_name_H-M   'P 1'
_cell_length_a   9.79604504
_cell_length_b   10.10270455
_cell_length_c   14.16854790
_cell_angle_alpha   73.89946645
_cell_angle_beta   73.41184609
_cell_angle_gamma   70.02743838
_symmetry_Int_Tables_number   1
_chemical_formula_structural   Mg5H38C52(N2O9)2
_chemical_formula_sum   'Mg5 H38 C52 N4 O18'
_cell_volume   1237.60880151
_cell_formula_units_Z   1
loop_
 _symmetry_equiv_pos_site_id
 _symmetry_equiv_pos_as_xyz
  1  'x, y, z'
loop_
 _atom_site_type_symbol
 _atom_site_label
 _atom_site_symmetry_multiplicity
 _atom_site_fract_x
 _atom_site_fract_y
 _atom_site_fract_z
 _atom_site_occupancy
 _atom_site_hle17_bader_spin_density
 _atom_site_hle17_ddec_charge
 _atom_site_hle17_ddec_spin_density
 _atom_site_hle17_ddec_sum_bond_order
 _atom_site_hle17_magmom
 _atom_site_hse06_10hf_bader_spin_density
 _atom_site_hse06_10hf_ddec_charge
 _atom_site_hse06_10hf_ddec_spin_density
 _atom_site_hse06_10hf_ddec_sum_bond_order
 _atom_site_hse06_10hf_magmom
 _atom_site_hse06_bader_spin_density
 _atom_site_hse06_ddec_charge
 _atom_site_hse06_ddec_spin_density
 _atom_site_hse06_ddec_sum_bond_order
 _atom_site_hse06_magmom
 _atom_site_pbe_bader_spin_density
 _atom_site_pbe_cm5_charge
 _atom_site_pbe_ddec_charge
 _atom_site_pbe_ddec_spin_density
 _atom_site_pbe_ddec_sum_bond_order
 _atom_site_pbe_magmom
Mg  Mg0  1  0.20516418  0.43425876  0.00782320  1  0  1.540601  0  1.079582  0  0  1.429222  0  1.337322  0  0  1.456047  0  1.295678  0  0  0.851526  1.410476  0  1.366464  0
Mg  Mg1  1  0.79483695  0.56574110  0.99217719  1  0  1.540638  0  1.079532  0  0  1.429242  0  1.337301  0  0  1.456061  0  1.295664  0  0  0.851538  1.410498  0  1.366458  0
Mg  Mg2  1  0.50000003  0.49999961  0.00000062  1  0  1.518449  0  1.153889  0  0  1.411685  0  1.401081  0  0  1.436211  0  1.362951  0  0  0.812241  1.394655  0  1.427258  0
Mg  Mg3  1  0.53614864  0.15366355  0.98629969  1  0  1.467049  0  1.192155  0  0  1.35349  0  1.448234  0  0  1.378471  0  1.41174  0  0  0.814219  1.336619  0  1.471904  0
Mg  Mg4  1  0.46385034  0.84633632  0.01369972  1  0  1.467049  0  1.192154  0  0  1.353458  0  1.448274  0  0  1.378452  0  1.411756  0  0  0.814209  1.336575  0  1.471958  0
H  H5  1  0.55760172  0.59365274  0.12022070  1  0  0.422413  0  0.872276  0  0  0.395138  0  0.931405  0  0  0.403638  0  0.918412  0  0  0.30659  0.388814  0  0.941209  0
H  H6  1  0.44240048  0.40634711  0.87977948  1  0  0.422392  0  0.872311  0  0  0.395113  0  0.931447  0  0  0.403613  0  0.918454  0  0  0.306576  0.388787  0  0.941254  0
H  H7  1  0.59133232  0.98549160  0.69314982  1  0  0.097671  0  0.975476  0  0  0.103981  0  1.043239  0  0  0.106568  0  1.043046  0  0  0.100746  0.101695  0  1.044537  0
H  H8  1  0.40866698  0.01450719  0.30685115  1  0  0.097678  0  0.975472  0  0  0.103985  0  1.043236  0  0  0.106573  0  1.043041  0  0  0.100742  0.101696  0  1.044539  0
H  H9  1  0.69008788  0.02702361  0.50868193  1  0  0.085759  0  0.981279  0  0  0.096011  0  1.045297  0  0  0.098543  0  1.045161  0  0  0.095849  0.093888  0  1.046165  0
H  H10  1  0.30991111  0.97297626  0.49131889  1  0  0.085761  0  0.981271  0  0  0.096006  0  1.045298  0  0  0.098537  0  1.045161  0  0  0.095852  0.093884  0  1.046161  0
H  H11  1  0.73288021  0.58584971  0.51232807  1  0  0.085003  0  0.971654  0  0  0.095116  0  1.035771  0  0  0.097733  0  1.035452  0  0  0.095381  0.092693  0  1.037231  0
H  H12  1  0.26712197  0.41415013  0.48767070  1  0  0.085039  0  0.971633  0  0  0.095132  0  1.035769  0  0  0.097747  0  1.035451  0  0  0.095389  0.092707  0  1.037231  0
H  H13  1  0.63423932  0.54814764  0.69663309  1  0  0.100399  0  0.94623  0  0  0.110672  0  1.004559  0  0  0.114083  0  1.003021  0  0  0.104175  0.107179  0  1.008024  0
H  H14  1  0.36576103  0.45185114  0.30336485  1  0  0.100393  0  0.946258  0  0  0.110664  0  1.00459  0  0  0.114077  0  1.003051  0  0  0.10418  0.107171  0  1.008056  0
H  H15  1  0.68978717  0.06717842  0.35771466  1  0  0.097689  0  0.981164  0  0  0.106569  0  1.046203  0  0  0.109006  0  1.047028  0  0  0.10015  0.105245  0  1.045037  0
H  H16  1  0.31021257  0.93282251  0.64228509  1  0  0.097654  0  0.981221  0  0  0.10657  0  1.046223  0  0  0.109008  0  1.047046  0  0  0.10015  0.105248  0  1.045052  0
H  H17  1  0.80829289  0.09758749  0.17707078  1  0  0.079262  0  0.925771  0  0  0.0899  0  0.982907  0  0  0.092103  0  0.981601  0  0  0.11463  0.08846  0  0.98351  0
H  H18  1  0.19170548  0.90241453  0.82292903  1  0  0.079294  0  0.925776  0  0  0.089941  0  0.982898  0  0  0.092145  0  0.981592  0  0  0.114647  0.088502  0  0.9835  0
H  H19  1  0.89223006  0.60847306  0.37971915  1  0  0.096084  0  0.97916  0  0  0.106206  0  1.041958  0  0  0.109032  0  1.042106  0  0  0.09871  0.104653  0  1.041231  0
H  H20  1  0.10777075  0.39152787  0.62028038  1  0  0.096097  0  0.979132  0  0  0.106248  0  1.041905  0  0  0.109057  0  1.04207  0  0  0.098725  0.104699  0  1.041174  0
H  H21  1  0.99809786  0.65888677  0.19804652  1  0  0.079303  0  0.948738  0  0  0.086  0  1.014073  0  0  0.088568  0  1.01229  0  0  0.112272  0.084091  0  1.015397  0
H  H22  1  0.00190371  0.34111522  0.80195336  1  0  0.079286  0  0.948783  0  0  0.085988  0  1.014111  0  0  0.088554  0  1.012331  0  0  0.11226  0.084082  0  1.015435  0
H  H23  1  0.66472588  0.38829500  0.26811205  1  0  0.106097  0  0.95289  0  0  0.111775  0  1.021385  0  0  0.115424  0  1.019065  0  0  0.105758  0.108627  0  1.024214  0
H  H24  1  0.33527494  0.61170593  0.73188819  1  0  0.106093  0  0.952899  0  0  0.111777  0  1.021386  0  0  0.115425  0  1.019067  0  0  0.105761  0.108622  0  1.024222  0
H  H25  1  0.56428311  0.31940139  0.44989557  1  0  0.083861  0  0.994313  0  0  0.092275  0  1.062667  0  0  0.094669  0  1.062836  0  0  0.093925  0.090541  0  1.062907  0
H  H26  1  0.43571832  0.68059739  0.55010427  1  0  0.083901  0  0.994325  0  0  0.092281  0  1.062708  0  0  0.094673  0  1.062881  0  0  0.093937  0.090548  0  1.062946  0
H  H27  1  0.99286536  0.25581107  0.50972083  1  0  0.085215  0  0.995977  0  0  0.093814  0  1.062275  0  0  0.096182  0  1.062514  0  0  0.095239  0.091847  0  1.062686  0
H  H28  1  0.00713470  0.74418879  0.49027978  1  0  0.085226  0  0.995974  0  0  0.093826  0  1.062268  0  0  0.096192  0  1.062512  0  0  0.095236  0.091856  0  1.062682  0
H  H29  1  0.09138530  0.32326337  0.32728173  1  0  0.101557  0  0.974661  0  0  0.107919  0  1.041061  0  0  0.110344  0  1.040982  0  0  0.102614  0.106126  0  1.041439  0
H  H30  1  0.90861552  0.67673756  0.67271922  1  0  0.10156  0  0.974703  0  0  0.107918  0  1.041099  0  0  0.110346  0  1.041019  0  0  0.102619  0.106125  0  1.041482  0
H  H31  1  0.82758403  0.06422339  0.82307047  1  0  0.081734  0  0.945609  0  0  0.088921  0  1.010895  0  0  0.091013  0  1.0094  0  0  0.12146  0.087417  0  1.011939  0
H  H32  1  0.17241603  0.93577647  0.17693014  1  0  0.081757  0  0.945573  0  0  0.088907  0  1.010896  0  0  0.091  0  1.009401  0  0  0.121441  0.087405  0  1.011939  0
H  H33  1  0.92798166  0.11358215  0.64063420  1  0  0.102939  0  0.966299  0  0  0.113214  0  1.025864  0  0  0.115764  0  1.026658  0  0  0.105722  0.111655  0  1.024935  0
H  H34  1  0.07201778  0.88641986  0.35936611  1  0  0.102933  0  0.966312  0  0  0.11321  0  1.025876  0  0  0.115761  0  1.02667  0  0  0.105722  0.111652  0  1.024946  0
H  H35  1  0.47879056  0.34831183  0.60332371  1  0  0.101156  0  0.964931  0  0  0.111151  0  1.027886  0  0  0.113689  0  1.028565  0  0  0.103225  0.109511  0  1.027614  0
H  H36  1  0.52120981  0.65168696  0.39667704  1  0  0.101148  0  0.964933  0  0  0.111144  0  1.027887  0  0  0.113683  0  1.028566  0  0  0.103227  0.109503  0  1.027618  0
H  H37  1  0.39613846  0.27621225  0.78684144  1  0  0.082912  0  0.926395  0  0  0.09209  0  0.987473  0  0  0.094433  0  0.986258  0  0  0.123788  0.09095  0  0.987298  0
H  H38  1  0.60386159  0.72378761  0.21315846  1  0  0.082908  0  0.926385  0  0  0.092076  0  0.987476  0  0  0.094416  0  0.98626  0  0  0.123788  0.090935  0  0.987301  0
H  H39  1  0.91739942  0.23647787  0.97970908  1  0  0.017931  0  0.933289  0  0  0.022722  0  1.013338  0  0  0.023686  0  1.007421  0  0  0.11993  0.021831  0  1.017592  0
H  H40  1  0.08259957  0.76352200  0.02029174  1  0  0.017962  0  0.933268  0  0  0.022724  0  1.013349  0  0  0.023684  0  1.007433  0  0  0.119927  0.02183  0  1.017606  0
H  H41  1  0.15867628  0.06097284  0.99323566  1  0  0.022113  0  0.955914  0  0  0.025925  0  1.033534  0  0  0.027296  0  1.027186  0  0  0.118075  0.024754  0  1.038067  0
H  H42  1  0.84132271  0.93902703  0.00676516  1  0  0.022124  0  0.955898  0  0  0.025934  0  1.033521  0  0  0.027305  0  1.027172  0  0  0.118077  0.024762  0  1.038055  0
C  C43  1  0.54774093  0.74001855  0.81753607  1  0  0.692057  0  3.888838  0  0  0.639345  0  4.187881  0  0  0.673391  0  4.177905  0  0  0.227493  0.616226  0  4.194298  0
C  C44  1  0.45225973  0.25997916  0.18246343  1  0  0.69194  0  3.888889  0  0  0.639247  0  4.187904  0  0  0.673292  0  4.177932  0  0  0.227445  0.616134  0  4.194316  0
C  C45  1  0.60498567  0.76518136  0.70576610  1  0  -0.061242  0  3.733268  0  0  -0.038944  0  3.964946  0  0  -0.046227  0  3.986123  0  0  -0.012838  -0.034546  0  3.950954  0
C  C46  1  0.39501363  0.23481743  0.29423416  1  0  -0.061245  0  3.733335  0  0  -0.038953  0  3.965015  0  0  -0.046236  0  3.986194  0  0  -0.01282  -0.034558  0  3.951023  0
C  C47  1  0.62134491  0.89969308  0.65209197  1  0  -0.062138  0  3.742385  0  0  -0.085548  0  3.990815  0  0  -0.084819  0  4.011104  0  0  -0.081653  -0.085446  0  3.977448  0
C  C48  1  0.37865440  0.10030572  0.34790900  1  0  -0.062164  0  3.74248  0  0  -0.085575  0  3.990908  0  0  -0.084847  0  4.011199  0  0  -0.081664  -0.085475  0  3.977534  0
C  C49  1  0.67575505  0.92219770  0.54878057  1  0  -0.108898  0  3.722533  0  0  -0.126657  0  3.969562  0  0  -0.13051  0  3.990682  0  0  -0.089124  -0.123972  0  3.95561  0
C  C50  1  0.32424607  0.07780215  0.45121912  1  0  -0.108885  0  3.722487  0  0  -0.126613  0  3.969531  0  0  -0.130464  0  3.99065  0  0  -0.089115  -0.123924  0  3.955574  0
C  C51  1  0.71702412  0.81047645  0.49595959  1  0  0.045047  0  3.780379  0  0  0.059955  0  4.010225  0  0  0.060713  0  4.032657  0  0  -0.008909  0.059432  0  3.995556  0
C  C52  1  0.28297563  0.18952448  0.50404086  1  0  0.045076  0  3.780283  0  0  0.059917  0  4.010205  0  0  0.060674  0  4.032637  0  0  -0.008909  0.059387  0  3.995542  0
C  C53  1  0.70152150  0.67502579  0.55079621  1  0  -0.12581  0  3.747571  0  0  -0.141009  0  3.993011  0  0  -0.144634  0  4.013192  0  0  -0.093301  -0.137979  0  3.980248  0
C  C54  1  0.29847963  0.32497406  0.44920418  1  0  -0.12585  0  3.747492  0  0  -0.141017  0  3.992956  0  0  -0.144639  0  4.013136  0  0  -0.093316  -0.137981  0  3.980193  0
C  C55  1  0.64584271  0.65299630  0.65412869  1  0  -0.064449  0  3.742682  0  0  -0.085524  0  3.987774  0  0  -0.085079  0  4.006972  0  0  -0.081608  -0.085899  0  3.976271  0
C  C56  1  0.35415871  0.34700248  0.34586974  1  0  -0.064463  0  3.742667  0  0  -0.08554  0  3.987756  0  0  -0.085096  0  4.006955  0  0  -0.081642  -0.085917  0  3.976255  0
C  C57  1  0.78005969  0.83407053  0.38681752  1  0  0.078894  0  3.797374  0  0  0.090047  0  4.028812  0  0  0.093825  0  4.050483  0  0  0.000169  0.0879  0  4.013875  0
C  C58  1  0.21994081  0.16593147  0.61318187  1  0  0.078954  0  3.797363  0  0  0.090134  0  4.028803  0  0  0.093912  0  4.050475  0  0  0.000198  0.087987  0  4.013869  0
C  C59  1  0.75867263  0.97278664  0.32657294  1  0  -0.170199  0  3.727311  0  0  -0.186216  0  3.970544  0  0  -0.193126  0  3.99205  0  0  -0.08981  -0.181536  0  3.955137  0
C  C60  1  0.24132605  0.02721430  0.67342702  1  0  -0.170179  0  3.72741  0  0  -0.18623  0  3.970627  0  0  -0.193142  0  3.992136  0  0  -0.08981  -0.181549  0  3.955217  0
C  C61  1  0.82487235  0.99017445  0.22463741  1  0  0.12432  0  3.735886  0  0  0.102336  0  3.99127  0  0  0.108304  0  4.008488  0  0  0.044972  0.098376  0  3.978966  0
C  C62  1  0.17512632  0.00982650  0.77536184  1  0  0.124299  0  3.735903  0  0  0.102318  0  3.991293  0  0  0.108286  0  4.008511  0  0  0.044969  0.098351  0  3.978992  0
C  C63  1  0.86801467  0.71934987  0.33844745  1  0  -0.182608  0  3.740292  0  0  -0.198469  0  3.984978  0  0  -0.205729  0  4.006512  0  0  -0.095378  -0.193797  0  3.968955  0
C  C64  1  0.13198508  0.28065107  0.66155230  1  0  -0.182641  0  3.740294  0  0  -0.198533  0  3.984967  0  0  -0.205779  0  4.006509  0  0  -0.095405  -0.193865  0  3.96895  0
C  C65  1  0.92916774  0.74765212  0.23594783  1  0  0.1113  0  3.749557  0  0  0.089082  0  4.006777  0  0  0.094378  0  4.025535  0  0  0.038561  0.085741  0  3.993368  0
C  C66  1  0.07083169  0.25234989  0.76405106  1  0  0.111318  0  3.749546  0  0  0.089108  0  4.00676  0  0  0.094404  0  4.025514  0  0  0.038604  0.085762  0  3.993357  0
C  C67  1  0.94363258  0.40780664  0.17585127  1  0  0.712587  0  3.889903  0  0  0.657933  0  4.188356  0  0  0.692696  0  4.177351  0  0  0.231483  0.634449  0  4.194582  0
C  C68  1  0.05636854  0.59219321  0.82414842  1  0  0.712606  0  3.889918  0  0  0.657997  0  4.18829  0  0  0.69276  0  4.177283  0  0  0.23157  0.63451  0  4.194523  0
C  C69  1  0.88426815  0.36153483  0.28618131  1  0  -0.071315  0  3.733816  0  0  -0.047193  0  3.961371  0  0  -0.056087  0  3.985426  0  0  -0.014564  -0.04041  0  3.943128  0
C  C70  1  0.11573161  0.63846611  0.71381914  1  0  -0.071369  0  3.733854  0  0  -0.04726  0  3.961409  0  0  -0.056155  0  3.985465  0  0  -0.014617  -0.040479  0  3.943167  0
C  C71  1  0.73555068  0.36022422  0.32189886  1  0  -0.064567  0  3.735229  0  0  -0.087414  0  3.984223  0  0  -0.087405  0  4.005459  0  0  -0.082133  -0.087107  0  3.969071  0
C  C72  1  0.26445045  0.63977563  0.67810153  1  0  -0.064516  0  3.735236  0  0  -0.087364  0  3.984226  0  0  -0.087354  0  4.005461  0  0  -0.082115  -0.087049  0  3.969061  0
C  C73  1  0.67968826  0.32156952  0.42445454  1  0  -0.127848  0  3.75061  0  0  -0.145901  0  4.001583  0  0  -0.149601  0  4.022229  0  0  -0.095376  -0.142985  0  3.987474  0
C  C74  1  0.32031286  0.67843033  0.57554515  1  0  -0.127942  0  3.7507  0  0  -0.145991  0  4.001668  0  0  -0.149691  0  4.022313  0  0  -0.095424  -0.143072  0  3.987554  0
C  C75  1  0.77085014  0.28217657  0.49446738  1  0  0.041404  0  3.77967  0  0  0.05615  0  4.01012  0  0  0.057051  0  4.03189  0  0  -0.009005  0.055236  0  3.996671  0
C  C76  1  0.22915098  0.71782328  0.50553231  1  0  0.04135  0  3.779774  0  0  0.056161  0  4.010122  0  0  0.057063  0  4.03189  0  0  -0.009003  0.055237  0  3.99668  0
C  C77  1  0.92006467  0.28331325  0.45753350  1  0  -0.114751  0  3.733461  0  0  -0.131606  0  3.977558  0  0  -0.135123  0  3.997668  0  0  -0.090709  -0.12899  0  3.964567  0
C  C78  1  0.07993646  0.71668660  0.54246689  1  0  -0.114724  0  3.733463  0  0  -0.131596  0  3.97754  0  0  -0.135114  0  3.99765  0  0  -0.090697  -0.128976  0  3.964549  0
C  C79  1  0.97601942  0.32204886  0.35514999  1  0  -0.057829  0  3.733402  0  0  -0.078892  0  3.975745  0  0  -0.078022  0  3.996038  0  0  -0.08147  -0.079446  0  3.961482  0
C  C80  1  0.02398034  0.67795208  0.64485046  1  0  -0.057784  0  3.73339  0  0  -0.078847  0  3.975733  0  0  -0.077977  0  3.996025  0  0  -0.08144  -0.079401  0  3.961473  0
C  C81  1  0.75293816  0.12465996  0.77178762  1  0  0.151119  0  3.700377  0  0  0.121417  0  3.954177  0  0  0.128268  0  3.970817  0  0  0.05784  0.116933  0  3.943044  0
C  C82  1  0.24706221  0.87533883  0.22821243  1  0  0.151108  0  3.700377  0  0  0.12144  0  3.95417  0  0  0.128288  0  3.970812  0  0  0.057859  0.116943  0  3.943041  0
C  C83  1  0.80919720  0.15578881  0.66887800  1  0  -0.159362  0  3.691837  0  0  -0.174142  0  3.933405  0  0  -0.181902  0  3.955264  0  0  -0.081144  -0.169238  0  3.918723  0
C  C84  1  0.19080393  0.84421105  0.33112239  1  0  -0.159379  0  3.691901  0  0  -0.174163  0  3.93347  0  0  -0.181922  0  3.955329  0  0  -0.081146  -0.169255  0  3.918784  0
C  C85  1  0.71342390  0.24041321  0.60358343  1  0  0.097516  0  3.759594  0  0  0.109592  0  3.987171  0  0  0.113686  0  4.009388  0  0  0.010731  0.10689  0  3.973725  0
C  C86  1  0.28657509  0.75958666  0.39641739  1  0  0.09755  0  3.759637  0  0  0.109609  0  3.987202  0  0  0.113702  0  4.009419  0  0  0.010736  0.106908  0  3.973754  0
C  C87  1  0.56120861  0.28294327  0.64809192  1  0  -0.167701  0  3.703793  0  0  -0.183593  0  3.948811  0  0  -0.191654  0  3.971147  0  0  -0.084933  -0.179155  0  3.935746  0
C  C88  1  0.43879144  0.71705659  0.35190798  1  0  -0.167692  0  3.70379  0  0  -0.183581  0  3.948805  0  0  -0.191642  0  3.971141  0  0  -0.084925  -0.179141  0  3.935741  0
C  C89  1  0.51416731  0.24416418  0.75169315  1  0  0.129546  0  3.717392  0  0  0.102211  0  3.974443  0  0  0.108683  0  3.990624  0  0  0.051272  0.098134  0  3.963758  0
C  C90  1  0.48583305  0.75583460  0.24830690  1  0  0.129565  0  3.717346  0  0  0.102236  0  3.974406  0  0  0.108711  0  3.990584  0  0  0.051288  0.09816  0  3.963718  0
C  C91  1  0.79917280  0.27035189  0.97506984  1  0  0.655917  0  3.84074  0  0  0.573436  0  4.164242  0  0  0.607679  0  4.151046  0  0  0.175742  0.550181  0  4.172961  0
C  C92  1  0.20082512  0.72964799  0.02493049  1  0  0.655898  0  3.840634  0  0  0.573429  0  4.164137  0  0  0.607677  0  4.150939  0  0  0.175744  0.550174  0  4.172856  0
C  C93  1  0.22397292  0.13170344  0.99150365  1  0  0.648747  0  3.835144  0  0  0.567821  0  4.151782  0  0  0.601573  0  4.139628  0  0  0.170532  0.544981  0  4.159502  0
C  C94  1  0.77602744  0.86829535  0.00849640  1  0  0.648725  0  3.835155  0  0  0.567798  0  4.151791  0  0  0.60155  0  4.139638  0  0  0.170537  0.544961  0  4.159507  0
N  N95  1  0.90980934  0.88052436  0.17881108  1  0  -0.311278  0  3.077999  0  0  -0.273796  0  3.348803  0  0  -0.286308  0  3.364942  0  0  -0.317312  -0.265024  0  3.337576  0
N  N96  1  0.09018934  0.11947659  0.82118888  1  0  -0.311299  0  3.077891  0  0  -0.273843  0  3.348715  0  0  -0.286356  0  3.364857  0  0  -0.317349  -0.265064  0  3.337488  0
N  N97  1  0.60777638  0.16892633  0.81423490  1  0  -0.372467  0  3.181933  0  0  -0.316537  0  3.440124  0  0  -0.328006  0  3.453526  0  0  -0.33189  -0.30912  0  3.431753  0
N  N98  1  0.39222261  0.83107354  0.18576592  1  0  -0.372466  0  3.181899  0  0  -0.316531  0  3.440074  0  0  -0.328  0  3.453474  0  0  -0.3319  -0.309108  0  3.431697  0
O  O99  1  0.51403357  0.62282156  0.85794347  1  0  -0.721012  0  2.001245  0  0  -0.665717  0  2.243209  0  0  -0.688767  0  2.229963  0  0  -0.354591  -0.649546  0  2.252473  0
O  O100  1  0.48596680  0.37717722  0.14205658  1  0  -0.720975  0  2.001203  0  0  -0.665678  0  2.243157  0  0  -0.688727  0  2.229912  0  0  -0.354593  -0.649511  0  2.252424  0
O  O101  1  0.53828481  0.83578257  0.86316599  1  0  -0.691796  0  1.970235  0  0  -0.640645  0  2.208824  0  0  -0.663036  0  2.19764  0  0  -0.343681  -0.625041  0  2.216341  0
O  O102  1  0.46171479  0.16421515  0.13683373  1  0  -0.691707  0  1.970291  0  0  -0.640578  0  2.208879  0  0  -0.662964  0  2.197693  0  0  -0.343647  -0.624978  0  2.216399  0
O  O103  1  0.07791587  0.41167024  0.14812578  1  0  -0.717308  0  1.963294  0  0  -0.660741  0  2.202013  0  0  -0.683261  0  2.187142  0  0  -0.354824  -0.644919  0  2.211755  0
O  O104  1  0.92208556  0.58832853  0.85187476  1  0  -0.717352  0  1.963315  0  0  -0.660798  0  2.20202  0  0  -0.683317  0  2.187148  0  0  -0.354875  -0.644985  0  2.211784  0
O  O105  1  0.85420323  0.44201184  0.11781480  1  0  -0.74581  0  2.025  0  0  -0.688329  0  2.2781  0  0  -0.711598  0  2.262113  0  0  -0.362729  -0.672029  0  2.288591  0
O  O106  1  0.14579790  0.55798801  0.88218489  1  0  -0.745796  0  2.024999  0  0  -0.688336  0  2.278075  0  0  -0.711604  0  2.262085  0  0  -0.362766  -0.672029  0  2.288561  0
O  O107  1  0.73967103  0.17570531  0.98091043  1  0  -0.665351  0  2.106901  0  0  -0.609913  0  2.370449  0  0  -0.633772  0  2.358324  0  0  -0.337276  -0.593784  0  2.378422  0
O  O108  1  0.26032658  0.82429564  0.01908974  1  0  -0.665373  0  2.106836  0  0  -0.609922  0  2.370371  0  0  -0.633784  0  2.358246  0  0  -0.337275  -0.593792  0  2.378343  0
O  O109  1  0.73301892  0.40544830  0.96371710  1  0  -0.768683  0  2.123966  0  0  -0.693999  0  2.376245  0  0  -0.718282  0  2.361142  0  0  -0.378819  -0.677468  0  2.386323  0
O  O110  1  0.26698083  0.59455264  0.03628336  1  0  -0.768679  0  2.123955  0  0  -0.693992  0  2.376222  0  0  -0.718276  0  2.361116  0  0  -0.378821  -0.677461  0  2.386291  0
O  O111  1  0.36265183  0.07056986  0.99148404  1  0  -0.75049  0  2.116147  0  0  -0.677936  0  2.371308  0  0  -0.701133  0  2.356406  0  0  -0.36904  -0.66195  0  2.381116  0
O  O112  1  0.63734822  0.92943000  0.00851516  1  0  -0.750463  0  2.116118  0  0  -0.677912  0  2.371289  0  0  -0.701108  0  2.356386  0  0  -0.369048  -0.661925  0  2.381094  0
O  O113  1  0.15950600  0.26314652  0.98898679  1  0  -0.68185  0  2.050838  0  0  -0.625316  0  2.309648  0  0  -0.649016  0  2.296094  0  0  -0.350748  -0.609345  0  2.318401  0
O  O114  1  0.84049406  0.73685334  0.01101311  1  0  -0.681865  0  2.050861  0  0  -0.625322  0  2.309668  0  0  -0.649023  0  2.296114  0  0  -0.350758  -0.609353  0  2.318422  0
O  O115  1  0.57267953  0.63347467  0.04848292  1  0  -1.219687  0  1.812914  0  0  -1.143224  0  2.018369  0  0  -1.161534  0  1.985669  0  0  -0.706018  -1.130111  0  2.040914  0
O  O116  1  0.42732053  0.36652519  0.95151768  1  0  -1.219676  0  1.812951  0  0  -1.143222  0  2.018392  0  0  -1.16153  0  1.985693  0  0  -0.706011  -1.13011  0  2.040936  0
