# generated using pymatgen
data_CoH13C14NO7
_symmetry_space_group_name_H-M   'P 1'
_cell_length_a   4.66428857
_cell_length_b   9.85393188
_cell_length_c   15.04847682
_cell_angle_alpha   102.91438818
_cell_angle_beta   91.85099867
_cell_angle_gamma   96.36436689
_symmetry_Int_Tables_number   1
_chemical_formula_structural   CoH13C14NO7
_chemical_formula_sum   'Co2 H26 C28 N2 O14'
_cell_volume   668.83778325
_cell_formula_units_Z   2
loop_
 _symmetry_equiv_pos_site_id
 _symmetry_equiv_pos_as_xyz
  1  'x, y, z'
loop_
 _atom_site_type_symbol
 _atom_site_label
 _atom_site_symmetry_multiplicity
 _atom_site_fract_x
 _atom_site_fract_y
 _atom_site_fract_z
 _atom_site_occupancy
 _atom_site_hle17_ddec_charge
 _atom_site_hle17_ddec_spin_density
 _atom_site_hle17_ddec_sum_bond_order
 _atom_site_hle17_magmom
 _atom_site_hse06_10hf_ddec_charge
 _atom_site_hse06_10hf_ddec_spin_density
 _atom_site_hse06_10hf_ddec_sum_bond_order
 _atom_site_hse06_10hf_magmom
 _atom_site_hse06_ddec_charge
 _atom_site_hse06_ddec_spin_density
 _atom_site_hse06_ddec_sum_bond_order
 _atom_site_hse06_magmom
 _atom_site_pbe_cm5_charge
 _atom_site_pbe_ddec_charge
 _atom_site_pbe_ddec_spin_density
 _atom_site_pbe_ddec_sum_bond_order
 _atom_site_pbe_magmom
Co  Co0  1  0.75253713  0.11793135  0.69946558  1  1.143427  2.89954  1.819436  2.622  1.121084  2.8829  2.209012  2.684  1.190628  2.917012  2.139492  2.748  0.647537  1.067233  2.853902  2.260127  2.623
Co  Co1  1  0.24746084  0.88206587  0.30053363  1  1.143402  -2.899539  1.819468  -2.622  1.121032  -2.882903  2.209029  -2.684  1.190657  -2.917023  2.139501  -2.748  0.647528  1.067226  -2.853898  2.260164  -2.623
H  H2  1  0.09406845  0.41996430  0.46054329  1  0.096148  -6.4e-05  0.959483  0.0  0.107511  -2.4e-05  1.020997  0.0  0.110407  -1.1e-05  1.017743  0.0  0.10919  0.105214  -3.5e-05  1.023624  0.0
H  H3  1  0.90594318  0.58003603  0.53945784  1  0.096221  6.4e-05  0.959474  0.0  0.107521  2.3e-05  1.021052  0.0  0.110459  1e-05  1.01775  0.0  0.109214  0.105223  3.6e-05  1.023685  0.0
H  H4  1  0.40851854  0.59399225  0.39255952  1  0.138684  6.4e-05  0.944769  0.0  0.148922  7.4e-05  0.998637  0.0  0.152873  8.8e-05  0.99794  0.0  0.115966  0.145924  3.3e-05  0.999635  0.0
H  H5  1  0.59148827  0.40600600  0.60744060  1  0.138819  -6.4e-05  0.944519  0.0  0.148921  -7.4e-05  0.998553  0.0  0.152877  -8.9e-05  0.997847  0.0  0.115953  0.145923  -3.3e-05  0.999551  0.0
H  H6  1  0.72345038  0.49670598  0.26847976  1  0.106929  -0.000311  0.94358  0.0  0.117809  -0.000289  1.001835  0.0  0.121606  -0.000188  0.997549  0.0  0.128835  0.114986  -0.000384  1.004916  0.0
H  H7  1  0.27655001  0.50329228  0.73151896  1  0.10692  0.000311  0.943557  0.0  0.117802  0.000289  1.001828  0.0  0.121601  0.000188  0.997542  0.0  0.128828  0.114972  0.000384  1.004916  0.0
H  H8  1  0.83185551  0.13846450  0.20122326  1  0.114428  1e-05  0.924562  0.0  0.125878  6.2e-05  0.98767  0.0  0.128108  9.4e-05  0.986006  0.0  0.122528  0.124117  1.5e-05  0.989046  0.0
H  H9  1  0.16813791  0.86153167  0.79877508  1  0.114446  -1e-05  0.924597  0.0  0.125836  -6.2e-05  0.987733  0.0  0.128067  -9.3e-05  0.986065  0.0  0.122512  0.124077  -1.5e-05  0.989104  0.0
H  H10  1  0.98078313  0.31614497  0.20906714  1  0.080243  2.5e-05  0.935604  0.0  0.091809  2.2e-05  1.005625  0.0  0.092033  1.4e-05  1.006153  0.0  0.11113  0.091591  3.9e-05  1.005318  0.0
H  H11  1  0.01921672  0.68385119  0.79093126  1  0.080303  -2.5e-05  0.935628  0.0  0.091844  -2.2e-05  1.005632  0.0  0.092069  -1.4e-05  1.006162  0.0  0.11114  0.091627  -3.9e-05  1.005323  0.0
H  H12  1  0.29774416  0.07633212  0.11360924  1  0.108188  4.2e-05  0.954798  0.0  0.116878  4.9e-05  1.018558  0.0  0.120195  6.8e-05  1.017153  0.0  0.103758  0.114675  2.9e-05  1.019321  0.0
H  H13  1  0.70224417  0.92366932  0.88638916  1  0.108199  -4.2e-05  0.954783  0.0  0.116861  -4.9e-05  1.018575  0.0  0.120176  -6.8e-05  1.017171  0.0  0.103749  0.114656  -2.9e-05  1.019335  0.0
H  H14  1  0.08160474  0.06171740  0.95685658  1  0.093238  1.9e-05  0.976151  0.0  0.104469  9e-06  1.038436  0.0  0.107057  -2e-05  1.037185  0.0  0.103919  0.102624  4.8e-05  1.039369  0.0
H  H15  1  0.91839084  0.93828718  0.04314169  1  0.093237  -1.9e-05  0.976115  0.0  0.104439  -1e-05  1.038467  0.0  0.107045  2e-05  1.037174  0.0  0.103922  0.102592  -4.8e-05  1.039407  0.0
H  H16  1  0.75256146  0.36963590  0.91441396  1  0.096493  -0.000111  0.947117  0.0  0.10668  -0.000105  1.007945  0.0  0.109894  -0.000107  1.005603  0.0  0.1041  0.104214  -9.4e-05  1.009949  0.0
H  H17  1  0.24744187  0.63036550  0.08558658  1  0.096496  0.000111  0.947104  0.0  0.106675  0.000106  1.007932  0.0  0.109892  0.000107  1.005591  0.0  0.104101  0.104205  9.4e-05  1.009935  0.0
H  H18  1  0.95728971  0.39592281  0.07370801  1  0.091973  4.9e-05  0.950219  0.0  0.105062  3e-05  1.006481  0.0  0.107745  1.9e-05  1.005991  0.0  0.100348  0.103175  4.6e-05  1.006896  0.0
H  H19  1  0.04271066  0.60407545  0.92629337  1  0.092019  -4.8e-05  0.950167  0.0  0.105081  -3e-05  1.006465  0.0  0.107765  -1.9e-05  1.005974  0.0  0.100352  0.103194  -4.6e-05  1.006879  0.0
H  H20  1  0.20422701  0.26705393  0.69036961  1  0.419316  -0.000496  0.881925  -0.001  0.389728  -0.000166  0.954404  0.0  0.400998  -0.000268  0.938136  0.0  0.293549  0.381614  -4.4e-05  0.965944  0.0
H  H21  1  0.79577205  0.73294749  0.30962823  1  0.419281  0.000496  0.881945  0.001  0.389694  0.000166  0.954443  0.0  0.400966  0.000267  0.938173  0.0  0.293545  0.381583  4.4e-05  0.965978  0.0
H  H22  1  0.01127806  0.26674959  0.59952523  1  0.423162  -0.000135  0.865812  0.0  0.395738  0.000224  0.934961  0.001  0.405597  7.2e-05  0.920886  0.0  0.298718  0.388832  0.000368  0.944722  0.001
H  H23  1  0.98871670  0.73325183  0.40047456  1  0.423133  0.000135  0.865869  0.0  0.395725  -0.000224  0.93498  -0.001  0.405584  -7.3e-05  0.920905  0.0  0.298726  0.388824  -0.000368  0.944733  -0.001
H  H24  1  0.30151068  0.06618924  0.57704636  1  0.425764  2.9e-05  0.87512  0.0  0.394812  0.000297  0.944536  0.001  0.406994  0.000118  0.926683  0.0  0.295596  0.385855  0.000473  0.957646  0.001
H  H25  1  0.69848568  0.93381008  0.42295380  1  0.425785  -2.9e-05  0.875052  0.0  0.39484  -0.000297  0.944482  -0.001  0.407022  -0.000118  0.926629  0.0  0.295607  0.385881  -0.000473  0.957594  -0.001
H  H26  1  0.59490354  0.13171064  0.53240536  1  0.424444  0.000103  0.87578  0.0  0.392904  0.000303  0.944465  0.0  0.404682  0.000162  0.927302  0.0  0.293094  0.384409  0.000452  0.956893  0.0
H  H27  1  0.40509684  0.86828762  0.46759402  1  0.424431  -0.000103  0.875793  0.0  0.392894  -0.000303  0.944472  0.0  0.404673  -0.000162  0.92731  0.0  0.293108  0.384399  -0.000452  0.956903  0.0
C  C28  1  0.42941034  0.18772880  0.30768120  1  0.496726  0.003952  3.776038  0.007  0.451691  0.000849  4.056692  0.002  0.482074  0.000216  4.060621  0.0  0.231678  0.430653  0.001878  4.05346  0.003
C  C29  1  0.57059434  0.81226945  0.69231756  1  0.496689  -0.003954  3.775795  -0.007  0.451687  -0.000848  4.056433  -0.002  0.48205  -0.000214  4.06036  0.0  0.231629  0.430652  -0.001879  4.053206  -0.003
C  C30  1  0.24158785  0.24124389  0.37796520  1  -0.244508  -0.000607  3.698923  -0.002  -0.228195  0.000225  3.954917  -0.001  -0.246859  0.000346  3.974018  0.0  -0.029654  -0.216591  0.000175  3.943093  -0.001
C  C31  1  0.75841762  0.75875751  0.62203536  1  -0.244479  0.000607  3.698945  0.002  -0.22828  -0.000227  3.955045  0.001  -0.246948  -0.000353  3.974167  0.0  -0.029657  -0.216667  -0.000176  3.943223  0.001
C  C32  1  0.23968368  0.38493695  0.40736071  1  0.03192  0.001255  3.72173  0.002  -0.005968  0.000392  3.984341  0.0  0.006749  0.00015  3.997222  0.0  -0.060928  -0.014081  0.001039  3.975864  0.001
C  C33  1  0.76032312  0.61506129  0.59264007  1  0.031822  -0.001255  3.721675  -0.002  -0.00598  -0.000392  3.984282  0.0  0.006706  -0.000147  3.997147  0.0  -0.060949  -0.014094  -0.00104  3.975818  -0.001
C  C34  1  0.41142493  0.48148738  0.37011057  1  -0.153167  0.000302  3.749877  0.0  -0.169224  0.00015  4.016886  0.0  -0.181282  0.000203  4.036891  0.0  -0.100011  -0.162085  0.000357  4.004645  0.0
C  C35  1  0.58857570  0.51851192  0.62989096  1  -0.153257  -0.000301  3.749685  0.0  -0.169181  -0.00015  4.016697  0.0  -0.181248  -0.000203  4.036719  0.0  -0.100012  -0.162043  -0.000356  4.004457  0.0
C  C36  1  0.58373873  0.42931867  0.30145253  1  0.112128  -0.000628  3.649832  -0.001  0.069045  -0.000624  3.902191  -0.001  0.081583  -0.0006  3.915914  -0.001  0.057555  0.060221  6.4e-05  3.894033  0.0
C  C37  1  0.41626621  0.57068064  0.69854706  1  0.112207  0.000625  3.649761  0.001  0.069073  0.000624  3.902123  0.001  0.081584  0.000601  3.915831  0.001  0.057564  0.060265  -6.5e-05  3.893975  0.0
C  C38  1  0.03657867  0.14804409  0.41915820  1  0.687779  0.003121  3.864701  0.004  0.632259  0.000606  4.167131  0.0  0.670354  0.000132  4.15759  -0.001  0.21331  0.605264  0.001792  4.173617  0.002
C  C39  1  0.96342358  0.85195312  0.58084104  1  0.687797  -0.003121  3.864794  -0.004  0.632305  -0.000605  4.167211  0.0  0.670396  -0.000127  4.157673  0.001  0.213305  0.605301  -0.001794  4.173715  -0.002
C  C40  1  0.78130466  0.24278375  0.19643562  1  -0.053047  -4.7e-05  3.634741  0.0  -0.124157  -2e-05  3.894206  0.0  -0.118715  9e-06  3.902647  0.0  -0.054381  -0.127698  -8.4e-05  3.888598  0.0
C  C41  1  0.21869117  0.75721347  0.80356356  1  -0.053136  4.6e-05  3.635043  0.0  -0.124119  2e-05  3.894273  0.0  -0.118692  -8e-06  3.902691  0.0  -0.054388  -0.127649  8.4e-05  3.888662  0.0
C  C42  1  0.64094365  0.23772342  0.10390480  1  0.07564  0.00072  3.742152  0.001  0.093583  0.00093  3.984593  0.001  0.093954  0.000731  4.008504  0.001  -0.013242  0.09348  0.001008  3.968191  0.001
C  C43  1  0.35904816  0.76227486  0.89609449  1  0.075681  -0.000715  3.742318  -0.001  0.093628  -0.00093  3.984656  -0.001  0.093997  -0.000732  4.008571  -0.001  -0.013199  0.093523  -0.001007  3.968258  -0.001
C  C44  1  0.39209621  0.14408777  0.07114926  1  -0.125202  -0.000304  3.726281  0.0  -0.145409  -0.000331  3.979592  0.0  -0.149889  -0.000342  4.001059  0.0  -0.09379  -0.142158  -0.000274  3.964995  0.0
C  C45  1  0.60789426  0.85591366  0.92884982  1  -0.125207  0.0003  3.726131  0.0  -0.145409  0.000331  3.979457  0.0  -0.149891  0.000343  4.00092  0.0  -0.093767  -0.14215  0.000274  3.96485  0.0
C  C46  1  0.27427481  0.13365477  0.98359264  1  -0.054308  0.000458  3.752147  0.001  -0.076838  0.000953  3.996302  0.001  -0.075682  0.000727  4.017291  0.001  -0.080007  -0.077822  0.001098  3.982465  0.001
C  C47  1  0.72572264  0.86634875  0.01640615  1  -0.054016  -0.000453  3.751809  -0.001  -0.076542  -0.000952  3.995923  -0.001  -0.075383  -0.000725  4.016912  -0.001  -0.079887  -0.077533  -0.001097  3.982085  -0.001
C  C48  1  0.40589415  0.21269751  0.92618353  1  -0.072101  0.002906  3.747602  0.004  -0.050262  0.001197  3.978544  0.002  -0.059485  0.000641  4.000894  0.001  -0.019294  -0.044432  0.001853  3.964418  0.003
C  C49  1  0.59410571  0.78730705  0.07381612  1  -0.07242  -0.002911  3.747711  -0.004  -0.050562  -0.001197  3.97866  -0.002  -0.059782  -0.000644  4.001013  -0.001  -0.019425  -0.044721  -0.001854  3.96452  -0.003
C  C50  1  0.65122598  0.30827109  0.95931755  1  -0.044827  0.000775  3.735985  0.001  -0.071476  0.001064  3.987561  0.001  -0.06973  0.000822  4.007583  0.001  -0.079684  -0.073061  0.001161  3.974836  0.002
C  C51  1  0.34877547  0.69173136  0.04068312  1  -0.04474  -0.00077  3.735911  -0.001  -0.07136  -0.001064  3.987429  -0.001  -0.069618  -0.00082  4.007457  -0.001  -0.079636  -0.072944  -0.001161  3.974691  -0.002
C  C52  1  0.76461539  0.32217755  0.04818639  1  -0.127756  -0.000113  3.754225  0.0  -0.144427  -0.000165  4.000921  0.0  -0.149566  -0.00024  4.024102  0.0  -0.092292  -0.140753  -1.3e-05  3.985255  0.0
C  C53  1  0.23538366  0.67782386  0.95181344  1  -0.127857  0.000108  3.754276  0.0  -0.144536  0.000165  4.000974  0.0  -0.14968  0.000239  4.024159  0.0  -0.092358  -0.140864  1.3e-05  3.985308  0.0
C  C54  1  0.28207133  0.19305721  0.83072995  1  0.672194  0.001148  3.834521  0.0  0.628322  0.006515  4.128616  0.008  0.666508  0.004913  4.118755  0.006  0.222921  0.600144  0.007451  4.135523  0.008
C  C55  1  0.71793282  0.80694734  0.16927040  1  0.672254  -0.001146  3.834519  0.0  0.628356  -0.006514  4.128636  -0.008  0.666538  -0.004908  4.118788  -0.006  0.222863  0.600166  -0.007449  4.135568  -0.008
N  N56  1  0.59304425  0.28949374  0.27175211  1  -0.144883  -0.001876  3.449697  -0.003  -0.049597  -0.001641  3.663732  -0.003  -0.070274  -0.001137  3.687142  -0.002  -0.230755  -0.036248  -0.001729  3.648316  -0.003
N  N57  1  0.40695425  0.71050557  0.72824807  1  -0.144986  0.001877  3.449723  0.003  -0.04967  0.001641  3.663671  0.003  -0.070269  0.001134  3.686995  0.002  -0.230719  -0.036354  0.00173  3.648292  0.003
O  O58  1  0.46230675  0.06118566  0.27491018  1  -0.571594  -0.029707  2.147208  -0.052  -0.539775  -0.023673  2.421834  -0.037  -0.569838  -0.019351  2.411913  -0.03  -0.293128  -0.517276  -0.028497  2.427907  -0.046
O  O59  1  0.53768801  0.93881576  0.72508961  1  -0.571599  0.029711  2.14704  0.052  -0.539772  0.023676  2.421616  0.037  -0.569831  0.019354  2.411699  0.03  -0.293141  -0.517263  0.028499  2.427672  0.046
O  O60  1  0.01742102  0.01442466  0.39142656  1  -0.64493  -0.034579  2.14047  -0.058  -0.598498  -0.027476  2.409833  -0.043  -0.632219  -0.021875  2.395341  -0.033  -0.305452  -0.57279  -0.033736  2.418665  -0.053
O  O61  1  0.98258418  0.98557569  0.60857318  1  -0.644952  0.034581  2.140432  0.058  -0.598524  0.027478  2.409783  0.043  -0.632232  0.021878  2.395285  0.033  -0.305442  -0.572801  0.033737  2.418601  0.053
O  O62  1  0.88053983  0.20715084  0.48039152  1  -0.643655  -0.002987  1.987637  -0.005  -0.582021  -0.001933  2.21181  -0.003  -0.608356  -0.001322  2.201547  -0.002  -0.317022  -0.563389  -0.002672  2.218804  -0.004
O  O63  1  0.11946081  0.79284846  0.51960935  1  -0.643642  0.002986  1.987696  0.005  -0.582028  0.001932  2.211895  0.003  -0.608361  0.001321  2.201638  0.002  -0.317024  -0.563397  0.00267  2.218899  0.004
O  O64  1  0.02194796  0.13539945  0.81386635  1  -0.620173  0.040776  2.067461  0.069  -0.59127  0.031064  2.344089  0.048  -0.624735  0.02449  2.332072  0.037  -0.305531  -0.565866  0.038144  2.352725  0.06
O  O65  1  0.97805592  0.86460406  0.18613251  1  -0.620195  -0.040779  2.067452  -0.069  -0.59128  -0.031066  2.344095  -0.048  -0.624766  -0.024494  2.332099  -0.037  -0.305477  -0.56587  -0.038143  2.352736  -0.06
O  O66  1  0.44059199  0.23719686  0.77201025  1  -0.659249  0.022425  2.05616  0.036  -0.614685  0.017155  2.311526  0.023  -0.647005  0.013413  2.297152  0.017  -0.317611  -0.589275  0.022115  2.319478  0.031
O  O67  1  0.55941243  0.76280874  0.22799026  1  -0.65925  -0.022427  2.056255  -0.036  -0.614675  -0.017157  2.311635  -0.023  -0.647007  -0.013413  2.297283  -0.017  -0.317603  -0.589268  -0.022118  2.319605  -0.031
O  O68  1  0.01321766  0.28702973  0.66702529  1  -0.824349  0.031513  1.939545  0.052  -0.787922  0.026613  2.153995  0.04  -0.815314  0.021553  2.120983  0.033  -0.577323  -0.76549  0.031942  2.17554  0.048
O  O69  1  0.98678167  0.71297274  0.33297404  1  -0.824249  -0.031516  1.939571  -0.052  -0.787855  -0.026613  2.154053  -0.04  -0.815257  -0.02155  2.121024  -0.033  -0.577317  -0.765435  -0.031946  2.175601  -0.048
O  O70  1  0.48412485  0.13167356  0.58766918  1  -0.855111  0.028131  2.000936  0.047  -0.814448  0.024002  2.222494  0.037  -0.841112  0.019831  2.184421  0.03  -0.583627  -0.79522  0.027578  2.250694  0.042
O  O71  1  0.51587739  0.86832364  0.41233139  1  -0.855115  -0.028129  2.000886  -0.047  -0.814455  -0.024001  2.222476  -0.037  -0.841134  -0.01983  2.184405  -0.03  -0.583646  -0.79523  -0.027575  2.250678  -0.042
