# generated using pymatgen
data_Co5H24C20S2(N3O11)2
_symmetry_space_group_name_H-M   'P 1'
_cell_length_a   9.29743618
_cell_length_b   14.40286737
_cell_length_c   14.15828814
_cell_angle_alpha   69.72161973
_cell_angle_beta   83.12579969
_cell_angle_gamma   84.11006458
_symmetry_Int_Tables_number   1
_chemical_formula_structural   Co5H24C20S2(N3O11)2
_chemical_formula_sum   'Co10 H48 C40 S4 N12 O44'
_cell_volume   1761.82924250
_cell_formula_units_Z   2
loop_
 _symmetry_equiv_pos_site_id
 _symmetry_equiv_pos_as_xyz
  1  'x, y, z'
loop_
 _atom_site_type_symbol
 _atom_site_label
 _atom_site_symmetry_multiplicity
 _atom_site_fract_x
 _atom_site_fract_y
 _atom_site_fract_z
 _atom_site_occupancy
 _atom_site_pbe_bader_charge
 _atom_site_pbe_bader_spin_density
 _atom_site_pbe_cm5_charge
 _atom_site_pbe_ddec_charge
 _atom_site_pbe_ddec_spin_density
 _atom_site_pbe_ddec_sum_bond_order
 _atom_site_pbe_magmom
Co  Co0  1  0.08421101  0.40480103  0.00191586  1  1.286461  2.612228  0.635722  0.974152  2.791476  2.424446  2.596
Co  Co1  1  0.91588591  0.59513528  0.99810855  1  1.286485  2.61235  0.635703  0.974315  2.791706  2.425036  2.596
Co  Co2  1  0.58891110  0.00578958  0.40318470  1  1.283455  2.617338  0.636223  0.971675  2.794803  2.399797  2.6
Co  Co3  1  0.41105489  0.99423273  0.59680243  1  1.283578  2.617615  0.636257  0.972023  2.795108  2.400074  2.6
Co  Co4  1  0.80961441  0.42015743  0.19165123  1  1.290808  2.631724  0.674815  0.956077  2.816683  2.430601  2.611
Co  Co5  1  0.19032164  0.57981035  0.80840888  1  1.290622  2.631781  0.674782  0.955459  2.816861  2.431914  2.611
Co  Co6  1  0.30639267  0.18778182  0.42065675  1  1.289294  2.62765  0.673324  0.959708  2.807258  2.410085  2.607
Co  Co7  1  0.69355701  0.81223269  0.57933363  1  1.289183  2.627707  0.673166  0.959779  2.807338  2.409675  2.607
Co  Co8  1  0.23638788  0.08572565  0.91226955  1  1.320081  2.636889  0.638455  1.084013  2.821637  2.209012  2.625
Co  Co9  1  0.76369658  0.91428717  0.08767122  1  1.319684  2.636948  0.638341  1.083931  2.821726  2.209054  2.625
H  H10  1  0.79624068  0.44001369  0.00020335  1  0.594539  0.001374  0.2927  0.374711  0.000737  0.949763  0.002
H  H11  1  0.20389070  0.56004885  0.99970702  1  0.594344  0.001379  0.292527  0.374457  0.000745  0.949949  0.002
H  H12  1  0.86084427  0.43797122  0.36904525  1  0.624846  0.001524  0.320827  0.403769  0.000827  0.887979  0.001
H  H13  1  0.13915926  0.56200404  0.63105186  1  0.625243  0.001517  0.320731  0.403466  0.000825  0.888291  0.001
H  H14  1  0.71518568  0.38181403  0.39743839  1  0.655552  0.000957  0.305174  0.416352  0.000599  0.899581  0.001
H  H15  1  0.28478768  0.61818043  0.60266702  1  0.657193  0.000952  0.305229  0.416124  0.0006  0.899831  0.001
H  H16  1  0.40758955  0.19415003  0.95111838  1  0.607083  0.000492  0.319551  0.39842  0.000101  0.893629  0.001
H  H17  1  0.59233832  0.80591976  0.04885200  1  0.607317  0.000494  0.319509  0.398561  0.000103  0.893403  0.001
H  H18  1  0.24415228  0.21005597  0.99427301  1  0.671014  -0.000174  0.297207  0.387189  -0.000391  0.959926  0.0
H  H19  1  0.75577883  0.78992187  0.00571580  1  0.673109  -0.000171  0.29715  0.387229  -0.000392  0.959878  0.0
H  H20  1  0.31021359  0.93600371  0.07697827  1  0.644072  0.001227  0.317517  0.407462  0.000613  0.890946  0.001
H  H21  1  0.68974062  0.06402259  0.92304243  1  0.643929  0.001226  0.317462  0.407616  0.000611  0.890874  0.001
H  H22  1  0.14752598  0.91932695  0.05525211  1  0.649231  0.001679  0.298553  0.39762  0.001059  0.933076  0.002
H  H23  1  0.85245923  0.08070129  0.94469968  1  0.649941  0.001671  0.298462  0.397533  0.001057  0.933255  0.002
H  H24  1  0.06093590  0.02648022  0.81546076  1  0.614896  0.000667  0.317751  0.401517  0.000257  0.895612  0.001
H  H25  1  0.93902333  0.97352366  0.18452148  1  0.6152  0.00066  0.317552  0.401281  0.000252  0.895737  0.001
H  H26  1  0.22935871  0.00024515  0.79017031  1  0.642007  -0.000136  0.297631  0.390089  -0.00036  0.955682  0.0
H  H27  1  0.77059515  0.99976193  0.20979991  1  0.641634  -0.000134  0.297461  0.3899  -0.000359  0.955961  0.0
H  H28  1  0.32556953  0.22561579  0.73641903  1  0.651006  0.001103  0.299358  0.41601  0.000697  0.908295  0.001
H  H29  1  0.67442284  0.77443692  0.26351757  1  0.651686  0.001101  0.29932  0.41606  0.000696  0.908176  0.001
H  H30  1  0.15865339  0.25683741  0.76676047  1  0.677596  0.001393  0.300923  0.419429  0.000948  0.902186  0.002
H  H31  1  0.84133078  0.74318264  0.23321511  1  0.677873  0.00139  0.300901  0.419484  0.000948  0.902095  0.002
H  H32  1  0.29683015  0.99964825  0.44014154  1  0.595899  0.001099  0.290307  0.371022  0.000556  0.958439  0.002
H  H33  1  0.70307531  0.00023327  0.55998981  1  0.597779  0.001086  0.290316  0.370956  0.000551  0.958613  0.002
H  H34  1  0.21071470  0.39148390  0.38541733  1  0.636772  0.001085  0.305932  0.416161  0.000647  0.898879  0.001
H  H35  1  0.78931910  0.60853624  0.61454971  1  0.636047  0.001105  0.305962  0.416162  0.000653  0.898842  0.001
H  H36  1  0.34795678  0.36359664  0.44852517  1  0.628061  0.001923  0.324138  0.407709  0.001022  0.879081  0.001
H  H37  1  0.65207899  0.63647841  0.55139699  1  0.627333  0.001941  0.324155  0.407559  0.001032  0.879094  0.001
H  H38  1  0.97194379  0.25011370  0.38132798  1  0.155505  0.000753  0.133247  0.095316  -9e-05  1.026188  0.001
H  H39  1  0.02803045  0.74989368  0.61865776  1  0.154841  0.000753  0.133213  0.095319  -9e-05  1.026215  0.001
H  H40  1  0.32809087  0.27887482  0.16424944  1  0.118939  0.000854  0.129944  0.089224  8e-05  1.033196  0.001
H  H41  1  0.67192184  0.72111245  0.83573885  1  0.118795  0.000853  0.129928  0.089319  8e-05  1.033347  0.001
H  H42  1  0.82993510  0.17004854  0.27705369  1  0.122694  0.000851  0.131011  0.093543  9.4e-05  1.027514  0.0
H  H43  1  0.17002881  0.82997709  0.72296347  1  0.122257  0.000848  0.130778  0.09321  9.3e-05  1.027683  0.0
H  H44  1  0.47182416  0.37656438  0.25057168  1  0.157112  0.000798  0.132748  0.094266  -5e-05  1.02545  0.001
H  H45  1  0.52807777  0.62340058  0.74943355  1  0.158653  0.000796  0.132739  0.094219  -5e-05  1.025751  0.001
H  H46  1  0.64929389  0.47645847  0.79285441  1  0.140513  0.000348  0.111636  0.12139  0.000116  1.016349  0.0
H  H47  1  0.35073706  0.52353155  0.20715574  1  0.140429  0.000348  0.111643  0.12131  0.000116  1.016506  0.0
H  H48  1  0.49276694  0.24774131  0.06266601  1  0.10291  0.000756  0.109006  0.112502  0.000377  1.019882  0.0
H  H49  1  0.50725299  0.75223598  0.93731271  1  0.103321  0.000756  0.109006  0.112466  0.000377  1.019917  0.0
H  H50  1  0.74079613  0.16446975  0.07828174  1  0.119883  0.000271  0.109477  0.124335  -1.9e-05  1.012178  0.0
H  H51  1  0.25922878  0.83553609  0.92171154  1  0.119253  0.000271  0.109461  0.124304  -1.9e-05  1.012207  0.0
H  H52  1  0.15176256  0.79911925  0.47353619  1  0.125301  0.000347  0.11059  0.120347  0.000117  1.020629  0.0
H  H53  1  0.84828560  0.20091044  0.52641509  1  0.126004  0.000347  0.110573  0.120115  0.000117  1.020463  0.0
H  H54  1  0.02032730  0.07416053  0.24905269  1  0.083963  0.00068  0.108729  0.111887  0.000315  1.011003  0.0
H  H55  1  0.97971924  0.92579809  0.75093415  1  0.083249  0.000681  0.108769  0.112226  0.000315  1.010723  0.0
H  H56  1  0.27029130  0.08457695  0.16344084  1  0.124936  0.000394  0.108698  0.124815  8.9e-05  1.011114  0.0
H  H57  1  0.72969204  0.91537831  0.83645464  1  0.125574  0.000394  0.108756  0.124985  8.9e-05  1.010936  0.0
C  C58  1  0.03908981  0.27175731  0.31035727  1  0.968004  0.008323  0.139916  0.151782  0.005075  3.986777  0.008
C  C59  1  0.96088861  0.72822786  0.68963668  1  0.968411  0.008313  0.139689  0.151501  0.005073  3.986785  0.008
C  C60  1  0.22098898  0.28630758  0.20115760  1  0.977578  0.007203  0.137972  0.152741  0.004883  3.964741  0.008
C  C61  1  0.77901606  0.71367373  0.79885782  1  0.9779  0.007203  0.137716  0.152377  0.004887  3.964604  0.008
C  C62  1  0.72221424  0.20430269  0.28477710  1  1.00229  0.010095  0.140602  0.154721  0.006677  3.962764  0.01
C  C63  1  0.27773425  0.79569039  0.71524577  1  1.001556  0.0101  0.140771  0.154692  0.006676  3.962501  0.01
C  C64  1  0.53911233  0.30798026  0.27099630  1  0.987037  0.010926  0.140813  0.155116  0.006622  3.983156  0.01
C  C65  1  0.46082343  0.69198975  0.72904248  1  0.985687  0.010928  0.140714  0.155124  0.006622  3.984074  0.01
C  C66  1  0.83577496  0.27441236  0.94616321  1  -0.04893  0.001886  -0.003957  -0.035812  6e-05  3.953262  0.002
C  C67  1  0.16424083  0.72558471  0.05382308  1  -0.049616  0.001904  -0.003879  -0.035729  7.4e-05  3.95276  0.002
C  C68  1  0.80928153  0.36405486  0.86664410  1  -0.168813  0.005075  -0.014098  -0.119887  0.002157  3.949005  0.003
C  C69  1  0.19074793  0.63595207  0.13335539  1  -0.16914  0.005078  -0.014036  -0.119817  0.002158  3.94882  0.003
C  C70  1  0.66923176  0.40891520  0.85611627  1  -0.067992  0.000369  -0.074633  -0.096057  -0.000323  3.944367  0.0
C  C71  1  0.33079319  0.59106437  0.14388016  1  -0.067195  0.000374  -0.074628  -0.095955  -0.000317  3.944264  0.0
C  C72  1  0.55373408  0.36691984  0.92603842  1  -0.019647  0.010393  -0.015781  -0.030509  0.005348  3.958913  0.008
C  C73  1  0.44629579  0.63306192  0.07395312  1  -0.022264  0.010395  -0.01598  -0.030642  0.005348  3.959014  0.008
C  C74  1  0.58137931  0.27971062  0.00694775  1  -0.064599  0.000507  -0.080992  -0.090989  -8.6e-05  3.968041  0.0
C  C75  1  0.41864268  0.72026745  0.99303045  1  -0.062993  0.000515  -0.080832  -0.090881  -7.9e-05  3.96772  0.0
C  C76  1  0.72026796  0.23316376  0.01612102  1  0.011952  0.001229  -0.083078  -0.096534  0.000507  3.950667  0.001
C  C77  1  0.27974843  0.76681241  0.98385000  1  0.013561  0.001225  -0.083182  -0.096645  0.000506  3.950704  0.001
C  C78  1  0.98354741  0.22142048  0.96178814  1  1.601025  -0.00125  0.228698  0.59956  -0.002511  4.157099  -0.001
C  C79  1  0.01645750  0.77859029  0.03820877  1  1.601128  -0.001262  0.228494  0.599282  -0.002524  4.157187  -0.001
C  C80  1  0.40163672  0.41355300  0.91421547  1  1.600228  -0.002129  0.214383  0.585357  -0.003421  4.185671  -0.001
C  C81  1  0.59839790  0.58639471  0.08583055  1  1.601769  -0.002107  0.214246  0.585259  -0.003397  4.186535  -0.001
C  C82  1  0.35377758  0.95023898  0.27153443  1  -0.027297  0.003308  -0.004634  -0.037877  0.001138  3.944982  0.003
C  C83  1  0.64627071  0.04974725  0.72840332  1  -0.0257  0.00331  -0.004582  -0.037698  0.001137  3.944816  0.003
C  C84  1  0.31912787  0.87090743  0.36103731  1  -0.222648  0.005316  -0.015493  -0.119684  0.002272  3.953362  0.004
C  C85  1  0.68089857  0.12909381  0.63891236  1  -0.221251  0.005317  -0.015702  -0.120674  0.002272  3.953958  0.004
C  C86  1  0.17711036  0.86235110  0.40624482  1  -0.00131  0.001006  -0.076742  -0.099384  0.000255  3.945427  0.001
C  C87  1  0.82292395  0.13766120  0.59369339  1  -0.004274  0.000999  -0.076519  -0.098507  0.000249  3.944201  0.001
C  C88  1  0.06703835  0.93449564  0.36538440  1  0.025595  0.010617  -0.01527  -0.031112  0.005528  3.94741  0.008
C  C89  1  0.93299102  0.06551529  0.63458100  1  0.026265  0.010616  -0.015137  -0.030819  0.005527  3.946791  0.008
C  C90  1  0.10348768  0.01581352  0.27937286  1  -0.07218  0.001285  -0.081216  -0.094139  0.000548  3.968728  0.001
C  C91  1  0.89656624  0.98416809  0.72059936  1  -0.072251  0.001282  -0.081244  -0.094841  0.000546  3.968809  0.001
C  C92  1  0.24416638  0.02269210  0.23208126  1  -0.010699  0.00158  -0.080892  -0.083336  0.000692  3.943333  0.001
C  C93  1  0.75586050  0.97727578  0.76784243  1  -0.01188  0.001581  -0.080883  -0.083198  0.000693  3.943519  0.001
C  C94  1  0.50471632  0.96369090  0.21843412  1  1.573818  -0.001071  0.222007  0.598867  -0.002278  4.167009  -0.001
C  C95  1  0.49532011  0.03630582  0.78152974  1  1.572708  -0.001078  0.221941  0.599128  -0.002289  4.166447  -0.001
C  C96  1  0.91192177  0.92405569  0.41193961  1  1.594406  -0.000951  0.214363  0.58728  -0.001991  4.180695  -0.001
C  C97  1  0.08808926  0.07602064  0.58803263  1  1.594788  -0.000941  0.213802  0.58597  -0.001982  4.182438  -0.001
S  S98  1  0.95518527  0.42113638  0.77759784  1  3.189844  0.00768  0.530384  1.205489  0.00532  6.114377  0.006
S  S99  1  0.04485778  0.57889431  0.22242428  1  3.18918  0.007671  0.53064  1.205612  0.005322  6.113875  0.006
S  S100  1  0.45884612  0.78205719  0.41971580  1  3.183832  0.007402  0.527453  1.197156  0.005135  6.121461  0.006
S  S101  1  0.54111964  0.21793291  0.58029730  1  3.183366  0.0074  0.527437  1.197686  0.005133  6.120754  0.006
N  N102  1  0.11174445  0.34297026  0.15247114  1  -0.737388  0.066724  -0.258977  -0.219369  0.035296  3.532192  0.054
N  N103  1  0.88827201  0.65698544  0.84753753  1  -0.736932  0.066694  -0.258894  -0.21958  0.035278  3.531649  0.054
N  N104  1  0.99506255  0.33357357  0.22302609  1  -0.780713  0.066558  -0.268324  -0.24064  0.035943  3.597086  0.052
N  N105  1  0.00494285  0.66638253  0.77695949  1  -0.781178  0.066579  -0.268408  -0.240487  0.035959  3.59714  0.052
N  N106  1  0.18051041  0.24057584  0.30061692  1  -1.242311  0.073801  -0.363299  -0.370287  0.038103  3.577334  0.06
N  N107  1  0.81947553  0.75942919  0.69939968  1  -1.242318  0.073738  -0.362906  -0.369874  0.038063  3.576784  0.06
N  N108  1  0.49367131  0.22067305  0.33150542  1  -0.791755  0.067387  -0.267375  -0.239133  0.036187  3.586245  0.052
N  N109  1  0.50626405  0.77929581  0.66852323  1  -0.7917  0.067436  -0.267406  -0.238987  0.036214  3.586395  0.052
N  N110  1  0.61136077  0.15371525  0.34057584  1  -0.766082  0.069852  -0.26055  -0.214887  0.036726  3.534356  0.056
N  N111  1  0.38860304  0.84625855  0.65944592  1  -0.765354  0.06984  -0.260363  -0.215039  0.036716  3.534242  0.056
N  N112  1  0.68210699  0.30161059  0.24026535  1  -1.239484  0.078585  -0.365024  -0.370348  0.040445  3.576521  0.063
N  N113  1  0.31782475  0.69836861  0.75978015  1  -1.239278  0.078613  -0.364838  -0.369884  0.04046  3.576202  0.063
O  O114  1  0.07508535  0.25867550  0.99603662  1  -1.168027  0.044373  -0.288764  -0.538026  0.023067  2.386224  0.037
O  O115  1  0.92492999  0.74131877  0.00397626  1  -1.167748  0.044311  -0.288675  -0.537955  0.023041  2.385874  0.037
O  O116  1  0.00730150  0.14077391  0.94274652  1  -1.156865  0.045856  -0.2863  -0.54112  0.022431  2.26694  0.042
O  O117  1  0.99269568  0.85924068  0.05723624  1  -1.15702  0.045842  -0.286276  -0.541111  0.022433  2.267469  0.042
O  O118  1  0.02410326  0.34499123  0.73760181  1  -1.320751  0.007532  -0.328116  -0.571507  0.003379  2.175218  0.006
O  O119  1  0.97587265  0.65506919  0.26234972  1  -1.320155  0.007519  -0.328237  -0.571827  0.003372  2.175565  0.006
O  O120  1  0.05215677  0.44939360  0.83883739  1  -1.325248  0.057308  -0.331564  -0.654979  0.029759  2.498289  0.042
O  O121  1  0.94792984  0.55052402  0.16123844  1  -1.32552  0.057276  -0.331661  -0.65509  0.029731  2.4977  0.042
O  O122  1  0.89416712  0.50819864  0.70074640  1  -1.349254  0.004959  -0.330954  -0.598586  0.001864  2.210129  0.004
O  O123  1  0.10594473  0.49189480  0.29933920  1  -1.348572  0.004961  -0.331166  -0.598505  0.001866  2.209544  0.004
O  O124  1  0.38281803  0.49398410  0.84125389  1  -1.164635  0.050703  -0.306823  -0.542529  0.025185  2.359708  0.043
O  O125  1  0.61715112  0.50602680  0.15887100  1  -1.16561  0.050717  -0.306731  -0.542528  0.025194  2.360203  0.043
O  O126  1  0.30364639  0.36744159  0.97917411  1  -1.173185  0.06116  -0.310183  -0.569514  0.031044  2.427922  0.054
O  O127  1  0.69644410  0.63241001  0.02086689  1  -1.174174  0.06115  -0.309969  -0.569214  0.031037  2.42831  0.054
O  O128  1  0.53247817  0.94386940  0.13743574  1  -1.147058  0.052422  -0.296273  -0.548814  0.025557  2.214285  0.048
O  O129  1  0.46757782  0.05616311  0.86250518  1  -1.146033  0.052431  -0.296353  -0.548951  0.025565  2.214207  0.048
O  O130  1  0.59503840  0.99793675  0.25741962  1  -1.163301  0.049875  -0.295827  -0.551418  0.02594  2.404639  0.041
O  O131  1  0.40496521  0.00203769  0.74259436  1  -1.16357  0.049884  -0.295786  -0.551635  0.025947  2.40455  0.041
O  O132  1  0.55864229  0.84158244  0.44758076  1  -1.325545  0.055492  -0.328884  -0.649647  0.028696  2.48003  0.041
O  O133  1  0.44125257  0.15842962  0.55245920  1  -1.325864  0.055488  -0.328914  -0.649812  0.028716  2.479306  0.041
O  O134  1  0.52853231  0.74106054  0.34311681  1  -1.322851  0.007496  -0.331535  -0.575448  0.003337  2.169727  0.006
O  O135  1  0.47151778  0.25887872  0.65695569  1  -1.321696  0.007507  -0.331353  -0.575299  0.003343  2.169504  0.006
O  O136  1  0.39139878  0.70797979  0.50854403  1  -1.344418  0.004418  -0.329953  -0.595302  0.001567  2.224564  0.003
O  O137  1  0.60851171  0.29203868  0.49147632  1  -1.343831  0.004415  -0.329942  -0.595476  0.001565  2.225048  0.003
O  O138  1  0.88726448  0.84913785  0.49070847  1  -1.163214  0.051447  -0.308757  -0.547947  0.025489  2.360129  0.044
O  O139  1  0.11272853  0.15097703  0.50929867  1  -1.164013  0.051449  -0.308442  -0.547075  0.025489  2.360658  0.044
O  O140  1  0.81851936  0.99106375  0.36778772  1  -1.174167  0.056956  -0.308239  -0.569681  0.028308  2.384665  0.051
O  O141  1  0.18152350  0.00902013  0.63214445  1  -1.1741  0.056992  -0.308221  -0.569261  0.028326  2.385306  0.051
O  O142  1  0.87199471  0.44775191  0.03823344  1  -1.189951  0.217064  -0.557785  -0.887629  0.117514  2.38905  0.184
O  O143  1  0.12803845  0.55225463  0.96179410  1  -1.190095  0.217056  -0.55772  -0.887225  0.117491  2.389612  0.184
O  O144  1  0.77405566  0.42848373  0.34198270  1  -1.228562  0.053151  -0.561266  -0.751534  0.02706  2.096299  0.041
O  O145  1  0.22596536  0.57146819  0.65810406  1  -1.230334  0.053213  -0.561185  -0.75076  0.027081  2.097092  0.041
O  O146  1  0.32496107  0.15873685  0.99120466  1  -1.223781  0.061263  -0.563252  -0.754426  0.031867  2.207086  0.049
O  O147  1  0.67503192  0.84127694  0.00877954  1  -1.226091  0.061247  -0.56307  -0.754574  0.031865  2.206622  0.049
O  O148  1  0.22213144  0.96791027  0.04498029  1  -1.247071  0.05902  -0.564218  -0.770937  0.030362  2.205675  0.046
O  O149  1  0.77788438  0.03210897  0.95495354  1  -1.247765  0.059046  -0.564088  -0.771037  0.030368  2.205526  0.046
O  O150  1  0.15138277  0.99923166  0.84598500  1  -1.206724  0.059726  -0.566074  -0.765957  0.031104  2.207599  0.048
O  O151  1  0.84860196  0.00080772  0.15398301  1  -1.206697  0.059744  -0.56568  -0.765515  0.031109  2.207642  0.048
O  O152  1  0.23873225  0.20441120  0.78509850  1  -1.266834  0.076414  -0.583408  -0.809764  0.039183  2.141158  0.061
O  O153  1  0.76129900  0.79564969  0.21489185  1  -1.267607  0.076368  -0.583376  -0.809846  0.039172  2.14109  0.061
O  O154  1  0.37195661  0.03807608  0.44802105  1  -1.189457  0.216786  -0.557301  -0.887477  0.117641  2.389914  0.182
O  O155  1  0.62791511  0.96190641  0.55200868  1  -1.191088  0.216686  -0.557245  -0.887471  0.117606  2.390355  0.182
O  O156  1  0.26843947  0.33603204  0.43033595  1  -1.217425  0.04854  -0.561964  -0.756706  0.024707  2.092489  0.037
O  O157  1  0.73143614  0.66401600  0.56979237  1  -1.215843  0.048553  -0.561801  -0.756421  0.024714  2.093605  0.037
