# generated using pymatgen
data_CoH34C36(NO3)2
_symmetry_space_group_name_H-M   'P 1'
_cell_length_a   6.08922060
_cell_length_b   7.29310194
_cell_length_c   17.37480901
_cell_angle_alpha   97.17715972
_cell_angle_beta   96.84653237
_cell_angle_gamma   95.80385817
_symmetry_Int_Tables_number   1
_chemical_formula_structural   CoH34C36(NO3)2
_chemical_formula_sum   'Co1 H34 C36 N2 O6'
_cell_volume   754.80832306
_cell_formula_units_Z   1
loop_
 _symmetry_equiv_pos_site_id
 _symmetry_equiv_pos_as_xyz
  1  'x, y, z'
loop_
 _atom_site_type_symbol
 _atom_site_label
 _atom_site_symmetry_multiplicity
 _atom_site_fract_x
 _atom_site_fract_y
 _atom_site_fract_z
 _atom_site_occupancy
 _atom_site_hse06_10hf_ddec_charge
 _atom_site_hse06_10hf_ddec_spin_density
 _atom_site_hse06_10hf_ddec_sum_bond_order
 _atom_site_hse06_10hf_magmom
 _atom_site_hse06_ddec_charge
 _atom_site_hse06_ddec_spin_density
 _atom_site_hse06_ddec_sum_bond_order
 _atom_site_hse06_magmom
 _atom_site_pbe_cm5_charge
 _atom_site_pbe_ddec_charge
 _atom_site_pbe_ddec_spin_density
 _atom_site_pbe_ddec_sum_bond_order
 _atom_site_pbe_magmom
Co  Co0  1  0.99999566  0.00000098  0.00000188  1  0.797766  1.024477  2.616331  0.96  0.901848  1.029595  2.510965  0.972  0.571817  0.736199  1.02295  2.683519  0.949
H  H1  1  0.02884849  0.34457487  0.23002348  1  0.100188  -8.1e-05  1.047072  0.0  0.10335  -0.000125  1.044888  0.0  0.101797  0.09784  -7.7e-05  1.048641  0.0
H  H2  1  0.97117177  0.65543600  0.76997242  1  0.100233  -8.1e-05  1.046962  0.0  0.103397  -0.000125  1.04478  0.0  0.101759  0.097887  -7.7e-05  1.048532  0.0
H  H3  1  0.20891318  0.54285428  0.35298196  1  0.100653  1.4e-05  1.059552  0.0  0.102361  1e-05  1.061633  0.0  0.096302  0.099537  2.2e-05  1.058019  0.0
H  H4  1  0.79110345  0.45715515  0.64701028  1  0.100597  1.4e-05  1.059339  0.0  0.102313  1e-05  1.061399  0.0  0.096282  0.099478  2.2e-05  1.057814  0.0
H  H5  1  0.82007429  0.30602030  0.32752075  1  0.103521  -1.3e-05  1.026314  0.0  0.106065  5e-06  1.025909  0.0  0.099066  0.101694  -2.5e-05  1.02671  0.0
H  H6  1  0.17992542  0.69397540  0.67247247  1  0.103665  -1.3e-05  1.026137  0.0  0.106215  5e-06  1.025733  0.0  0.099111  0.101847  -2.5e-05  1.026537  0.0
H  H7  1  0.64026221  0.11277045  0.20314846  1  0.11313  0.000131  1.009602  0.0  0.116895  6.8e-05  1.006691  0.0  0.106562  0.110243  0.000189  1.011804  0.0
H  H8  1  0.35973372  0.88723232  0.79684842  1  0.113099  0.000131  1.009563  0.0  0.116866  6.8e-05  1.00665  0.0  0.106549  0.110217  0.000189  1.011759  0.0
H  H9  1  0.67626891  0.66634557  0.53756462  1  0.095951  -9e-06  1.043698  0.0  0.09821  -4e-06  1.043332  0.0  0.097032  0.09422  -2.4e-05  1.044187  0.0
H  H10  1  0.32376451  0.33368487  0.46244080  1  0.096245  -9e-06  1.04425  0.0  0.098508  -4e-06  1.043879  0.0  0.097153  0.0945  -2.4e-05  1.044786  0.0
H  H11  1  0.03284482  0.70003267  0.51475408  1  0.099767  0.0  1.022211  0.0  0.101945  0.0  1.02229  0.0  0.098537  0.098242  -1e-06  1.022195  0.0
H  H12  1  0.96714088  0.29994524  0.48524751  1  0.099827  0.0  1.022162  0.0  0.102004  0.0  1.022245  0.0  0.09856  0.098303  -1e-06  1.022141  0.0
H  H13  1  0.34059066  0.91949015  0.48877125  1  0.099545  -1e-06  1.011239  0.0  0.101873  -0.0  1.010738  0.0  0.099224  0.097863  -4e-06  1.011716  0.0
H  H14  1  0.65942325  0.08048509  0.51124798  1  0.099551  -1e-06  1.011464  0.0  0.101875  -0.0  1.010969  0.0  0.099235  0.097871  -4e-06  1.011934  0.0
H  H15  1  0.32715509  0.04241243  0.36040207  1  0.092561  -8e-06  1.041219  0.0  0.094323  -3e-06  1.04221  0.0  0.094104  0.091376  -1.6e-05  1.040447  0.0
H  H16  1  0.67288734  0.95758758  0.63961659  1  0.092691  -8e-06  1.041269  0.0  0.094456  -3e-06  1.042253  0.0  0.094124  0.091502  -1.6e-05  1.040504  0.0
H  H17  1  0.99480918  0.94659647  0.25986636  1  0.100646  -6.7e-05  1.014512  0.0  0.103387  -4.4e-05  1.013584  0.0  0.097543  0.098423  -0.000105  1.015577  0.0
H  H18  1  0.00524650  0.05341707  0.74014023  1  0.100758  -6.7e-05  1.014541  0.0  0.103493  -4.5e-05  1.013621  0.0  0.097601  0.098538  -0.000104  1.015606  0.0
H  H19  1  0.68308808  0.72802463  0.28633025  1  0.096414  -1e-05  1.036933  0.0  0.09919  -2e-06  1.036324  0.0  0.095476  0.094376  -2.5e-05  1.037379  0.0
H  H20  1  0.31696080  0.27198885  0.71367032  1  0.096278  -1e-05  1.036905  0.0  0.099053  -2e-06  1.036294  0.0  0.095405  0.094223  -2.5e-05  1.037367  0.0
H  H21  1  0.38059522  0.11449690  0.93160936  1  0.085522  -0.000281  1.034178  0.0  0.087047  -0.000304  1.028485  0.0  0.136035  0.083992  -0.00026  1.038786  0.0
H  H22  1  0.61938330  0.88549916  0.06839170  1  0.085506  -0.00028  1.034138  0.0  0.087036  -0.000304  1.028433  0.0  0.136062  0.083971  -0.000259  1.038746  0.0
H  H23  1  0.55189374  0.40611902  0.81506991  1  0.108146  -6e-05  1.034006  0.0  0.10786  -1.7e-05  1.035921  0.0  0.095798  0.108479  -9.4e-05  1.032543  0.0
H  H24  1  0.44807640  0.59389926  0.18492502  1  0.10826  -6e-05  1.034104  0.0  0.107976  -1.7e-05  1.036022  0.0  0.095893  0.108606  -9.4e-05  1.032626  0.0
H  H25  1  0.64578615  0.25060271  0.88108976  1  0.139694  -0.000145  1.026139  0.0  0.141047  -0.000135  1.025901  0.0  0.111208  0.138482  -0.000151  1.026496  0.0
H  H26  1  0.35419862  0.74940419  0.11889998  1  0.139816  -0.000145  1.025996  0.0  0.141176  -0.000135  1.025758  0.0  0.111212  0.138603  -0.000151  1.026346  0.0
H  H27  1  0.70606424  0.49694947  0.90779416  1  0.127597  -0.000103  0.999901  0.0  0.128585  -8.8e-05  1.000166  0.0  0.106353  0.126663  -0.000125  0.999963  0.0
H  H28  1  0.29391911  0.50305759  0.09220245  1  0.127726  -0.000103  0.999779  0.0  0.128708  -8.8e-05  1.000055  0.0  0.106391  0.12679  -0.000125  0.999845  0.0
H  H29  1  0.15088747  0.55883663  0.95707020  1  0.135427  -0.000151  1.017642  0.0  0.137842  -0.000159  1.015394  0.0  0.112299  0.133416  -0.000154  1.019557  0.0
H  H30  1  0.84909735  0.44115667  0.04293442  1  0.135458  -0.000151  1.017719  0.0  0.13791  -0.000159  1.01543  0.0  0.112308  0.133445  -0.000154  1.019633  0.0
H  H31  1  0.16843596  0.55856513  0.85563755  1  0.113209  -9e-05  1.018501  0.0  0.113382  -7.4e-05  1.018637  0.0  0.099671  0.113086  -0.00012  1.018408  0.0
H  H32  1  0.83150564  0.44141599  0.14436482  1  0.113418  -9e-05  1.018306  0.0  0.113594  -7.3e-05  1.018444  0.0  0.099727  0.113289  -0.00012  1.01822  0.0
H  H33  1  0.38921300  0.67765628  0.92567736  1  0.12986  -9.8e-05  1.009773  0.0  0.130024  -8.9e-05  1.010289  0.0  0.108202  0.12939  -0.000113  1.00987  0.0
H  H34  1  0.61074477  0.32233559  0.07431407  1  0.129748  -9.8e-05  1.009869  0.0  0.129913  -8.9e-05  1.010388  0.0  0.108158  0.129285  -0.000113  1.009942  0.0
C  C35  1  0.32284392  0.21705225  0.20873674  1  -0.048791  -0.000194  4.014654  0.0  -0.056981  0.000123  4.035374  0.0  -0.020358  -0.044286  -0.000624  4.002251  0.0
C  C36  1  0.67716243  0.78297424  0.79126746  1  -0.049026  -0.000193  4.014901  0.0  -0.057214  0.000122  4.035623  0.0  -0.02041  -0.044517  -0.000623  4.0025  0.0
C  C37  1  0.20154465  0.33542539  0.25231327  1  -0.096231  -0.000703  3.999197  0.0  -0.093972  -0.000206  4.016408  0.0  -0.085357  -0.097876  -0.001333  3.988297  -0.001
C  C38  1  0.79844767  0.66459693  0.74768501  1  -0.096059  -0.000703  3.998788  0.0  -0.093807  -0.000204  4.016011  0.0  -0.085224  -0.097707  -0.001334  3.987898  -0.001
C  C39  1  0.30229182  0.44594295  0.32109189  1  -0.140841  0.000145  3.978235  0.0  -0.144651  -3.9e-05  3.99809  0.0  -0.09118  -0.138473  9.5e-05  3.965274  0.0
C  C40  1  0.69769128  0.55406269  0.67890348  1  -0.1409  0.000145  3.978157  0.0  -0.144709  -4.2e-05  3.998018  0.0  -0.091212  -0.138532  9.5e-05  3.965202  0.0
C  C41  1  0.52812114  0.43987176  0.34801177  1  0.080399  -0.001103  4.009453  -0.001  0.082597  -0.000259  4.031428  0.0  -0.003985  0.078725  -0.002344  3.994858  -0.001
C  C42  1  0.47187141  0.56011988  0.65198386  1  0.080392  -0.001103  4.009908  -0.001  0.082592  -0.000256  4.031877  0.0  -0.003884  0.078729  -0.002344  3.995291  -0.001
C  C43  1  0.64630913  0.31467262  0.30591744  1  -0.143588  0.000171  3.988452  0.0  -0.147652  -5e-06  4.008797  0.0  -0.091413  -0.140923  0.000198  3.975049  0.001
C  C44  1  0.35369322  0.68531885  0.69407509  1  -0.143613  0.000171  3.988527  0.0  -0.147689  -8e-06  4.008882  0.0  -0.091422  -0.14096  0.000198  3.975144  0.001
C  C45  1  0.54572035  0.20468704  0.23709167  1  -0.091772  -0.0006  3.992128  0.0  -0.090244  7e-05  4.010752  0.0  -0.082573  -0.093021  -0.001349  3.980252  -0.001
C  C46  1  0.45427844  0.79531416  0.76289833  1  -0.091766  -0.0006  3.99214  0.0  -0.090243  7.3e-05  4.01077  0.0  -0.082578  -0.093017  -0.001349  3.980272  -0.001
C  C47  1  0.64661135  0.56712523  0.41715691  1  0.012668  -3.6e-05  3.966045  0.0  0.01216  -3.3e-05  3.98884  0.0  -0.006237  0.012654  -0.000206  3.95085  0.0
C  C48  1  0.35343181  0.43289516  0.58283861  1  0.012853  -3.5e-05  3.966016  0.0  0.01235  -3.6e-05  3.988799  0.0  -0.006202  0.012838  -0.000205  3.950826  0.0
C  C49  1  0.58621910  0.56377143  0.49022933  1  -0.132996  -0.000128  4.03751  0.0  -0.134554  -4e-06  4.057544  0.0  -0.094734  -0.131809  -0.000376  4.023788  0.0
C  C50  1  0.41373568  0.43617999  0.50975654  1  -0.13327  -0.000128  4.038321  0.0  -0.134826  -3e-06  4.05834  0.0  -0.094962  -0.1321  -0.000376  4.024618  0.0
C  C51  1  0.83339459  0.69803975  0.40268309  1  0.058539  -3.5e-05  4.028532  0.0  0.058024  -9e-06  4.053263  0.0  -0.011932  0.0591  -8.6e-05  4.01163  0.0
C  C52  1  0.16663869  0.30195852  0.59731498  1  0.058368  -3.5e-05  4.027812  0.0  0.057847  -8e-06  4.052548  0.0  -0.011927  0.058927  -8.6e-05  4.010913  0.0
C  C53  1  0.02117533  0.75598582  0.45928506  1  -0.129196  -1.9e-05  3.982337  0.0  -0.131612  -5e-06  4.003702  0.0  -0.090099  -0.127477  -7.1e-05  3.967553  0.0
C  C54  1  0.97880231  0.24398243  0.54071690  1  -0.129473  -1.8e-05  3.982518  0.0  -0.13189  -6e-06  4.003886  0.0  -0.090229  -0.127753  -7.1e-05  3.967728  0.0
C  C55  1  0.19609087  0.87923938  0.44428392  1  -0.07675  -0.0  4.036658  0.0  -0.07856  0.0  4.058032  0.0  -0.091497  -0.075348  -2e-06  4.021898  0.0
C  C56  1  0.80391130  0.12074696  0.55572850  1  -0.076505  -1e-06  4.037054  0.0  -0.078315  0.0  4.05843  0.0  -0.091434  -0.075099  -2e-06  4.022292  0.0
C  C57  1  0.18873185  0.94817432  0.37261398  1  -0.096042  -2.4e-05  4.021561  0.0  -0.097843  -1e-05  4.04338  0.0  -0.096907  -0.094723  -9.8e-05  4.006598  0.0
C  C58  1  0.81130867  0.05182430  0.62740338  1  -0.096139  -2.4e-05  4.021362  0.0  -0.09794  -1e-05  4.043181  0.0  -0.096839  -0.094823  -9.8e-05  4.006412  0.0
C  C59  1  0.00279385  0.89300691  0.31590935  1  -0.082185  -1.8e-05  4.030899  0.0  -0.084329  -6e-06  4.052978  0.0  -0.096454  -0.080858  -3.3e-05  4.016295  0.0
C  C60  1  0.99724226  0.10699586  0.68410517  1  -0.08247  -1.8e-05  4.031145  0.0  -0.084615  -6e-06  4.053223  0.0  -0.096616  -0.081144  -3.3e-05  4.016541  0.0
C  C61  1  0.82808929  0.76908233  0.33063071  1  -0.131315  -1e-05  3.976185  0.0  -0.134351  -3e-06  3.997948  0.0  -0.093421  -0.129121  -3.8e-05  3.961354  0.0
C  C62  1  0.17192949  0.23091756  0.66937150  1  -0.131015  -1.1e-05  3.976016  0.0  -0.134049  -4e-06  3.997787  0.0  -0.093352  -0.12881  -3.8e-05  3.961184  0.0
C  C63  1  0.28589591  0.23496569  0.93680796  1  0.290283  -0.002857  4.018297  -0.002  0.32264  -0.001297  4.020288  -0.001  0.173728  0.267518  -0.004524  4.017389  -0.003
C  C64  1  0.71409361  0.76502740  0.06318935  1  0.290448  -0.002857  4.018212  -0.002  0.322808  -0.001297  4.020201  -0.001  0.173802  0.267693  -0.004524  4.017294  -0.003
C  C65  1  0.58140209  0.38432490  0.87674463  1  -0.279287  -7.2e-05  3.872079  0.0  -0.277085  -3.6e-05  3.883566  0.0  -0.134139  -0.28038  -9.8e-05  3.864164  0.0
C  C66  1  0.41856933  0.61567951  0.12325312  1  -0.279728  -7.3e-05  3.872098  0.0  -0.277552  -3.6e-05  3.883603  0.0  -0.134332  -0.280816  -9.8e-05  3.864174  0.0
C  C67  1  0.26459359  0.55475207  0.91288406  1  -0.269523  -0.000219  3.874576  0.0  -0.265042  -0.000261  3.883184  0.0  -0.135942  -0.27224  -0.000228  3.868869  0.0
C  C68  1  0.73537704  0.44524681  0.08711511  1  -0.269821  -0.000219  3.874976  0.0  -0.26537  -0.00026  3.883555  0.0  -0.136034  -0.272534  -0.000228  3.869275  0.0
C  C69  1  0.22512888  0.11815159  0.13008846  1  0.55497  -0.003128  4.213149  -0.002  0.59366  -0.001749  4.208134  -0.001  0.194981  0.527428  -0.005386  4.21683  -0.004
C  C70  1  0.77487668  0.88186077  0.86990580  1  0.55519  -0.003127  4.213673  -0.002  0.593875  -0.001748  4.208658  -0.001  0.195006  0.527658  -0.005384  4.217345  -0.004
N  N71  1  0.37529097  0.38664506  0.91148695  1  0.032643  -0.001299  3.729857  -0.001  0.013175  -0.000514  3.754203  0.0  -0.277621  0.045825  -0.001838  3.712933  -0.001
N  N72  1  0.62469590  0.61334112  0.08851164  1  0.032765  -0.0013  3.729989  -0.001  0.013297  -0.000515  3.754345  0.0  -0.277547  0.045936  -0.001839  3.713071  -0.001
O  O73  1  0.34504899  0.03430250  0.08581627  1  -0.563777  0.020129  2.218579  0.033  -0.595404  0.016129  2.207347  0.028  -0.302703  -0.540966  0.024872  2.225867  0.041
O  O74  1  0.65496397  0.96571534  0.91417681  1  -0.563876  0.020131  2.218608  0.033  -0.595502  0.016128  2.207373  0.028  -0.302705  -0.541065  0.024875  2.225894  0.041
O  O75  1  0.10374816  0.22943064  0.96593993  1  -0.450343  -0.009633  2.508871  -0.008  -0.491475  -0.011176  2.500486  -0.009  -0.295364  -0.423209  -0.008049  2.514275  -0.006
O  O76  1  0.89623421  0.77056950  0.03405860  1  -0.450398  -0.009632  2.509012  -0.008  -0.491529  -0.011176  2.500626  -0.009  -0.295434  -0.423274  -0.008049  2.514425  -0.006
O  O77  1  0.01719719  0.12604945  0.10622863  1  -0.537613  -0.011635  2.346386  -0.009  -0.582847  -0.014549  2.336818  -0.011  -0.307876  -0.505979  -0.00888  2.351471  -0.006
O  O78  1  0.98277367  0.87395083  0.89377119  1  -0.537686  -0.011633  2.346729  -0.009  -0.5829  -0.014546  2.337129  -0.011  -0.307939  -0.506065  -0.008878  2.351824  -0.006
