# generated using pymatgen
data_NaH9C8SO5
_symmetry_space_group_name_H-M   'P 1'
_cell_length_a   6.07461225
_cell_length_b   9.80034985
_cell_length_c   16.60908221
_cell_angle_alpha   100.63861856
_cell_angle_beta   90.00014609
_cell_angle_gamma   89.99967944
_symmetry_Int_Tables_number   1
_chemical_formula_structural   NaH9C8SO5
_chemical_formula_sum   'Na4 H36 C32 S4 O20'
_cell_volume   971.79765163
_cell_formula_units_Z   4
loop_
 _symmetry_equiv_pos_site_id
 _symmetry_equiv_pos_as_xyz
  1  'x, y, z'
loop_
 _atom_site_type_symbol
 _atom_site_label
 _atom_site_symmetry_multiplicity
 _atom_site_fract_x
 _atom_site_fract_y
 _atom_site_fract_z
 _atom_site_occupancy
 _atom_site_hle17_bader_spin_density
 _atom_site_hle17_ddec_charge
 _atom_site_hle17_ddec_spin_density
 _atom_site_hle17_ddec_sum_bond_order
 _atom_site_hle17_magmom
 _atom_site_hse06_10hf_bader_spin_density
 _atom_site_hse06_10hf_ddec_charge
 _atom_site_hse06_10hf_ddec_spin_density
 _atom_site_hse06_10hf_ddec_sum_bond_order
 _atom_site_hse06_10hf_magmom
 _atom_site_hse06_bader_spin_density
 _atom_site_hse06_ddec_charge
 _atom_site_hse06_ddec_spin_density
 _atom_site_hse06_ddec_sum_bond_order
 _atom_site_hse06_magmom
 _atom_site_pbe_bader_spin_density
 _atom_site_pbe_cm5_charge
 _atom_site_pbe_ddec_charge
 _atom_site_pbe_ddec_spin_density
 _atom_site_pbe_ddec_sum_bond_order
 _atom_site_pbe_magmom
Na  Na0  1  0.32821064  0.62962513  0.45881961  1  0  0.911589  0  0.378621  0  0  0.876062  0  0.522337  0  0  0.884741  0  0.502042  0  0  0.722683  0.869335  0  0.537177  0
Na  Na1  1  0.82820553  0.87037775  0.54117885  1  0  0.911599  0  0.378608  0  0  0.876042  0  0.52237  0  0  0.884732  0  0.502055  0  0  0.722661  0.869309  0  0.537214  0
Na  Na2  1  0.67179127  0.37037474  0.54117960  1  0  0.911584  0  0.378634  0  0  0.876038  0  0.522385  0  0  0.884724  0  0.502076  0  0  0.722666  0.869306  0  0.537227  0
Na  Na3  1  0.17179639  0.12962940  0.45881997  1  0  0.911587  0  0.378609  0  0  0.87606  0  0.522315  0  0  0.884714  0  0.502072  0  0  0.722671  0.869334  0  0.537159  0
H  H4  1  0.52448539  0.79276981  0.34757553  1  0  0.395629  0  0.899914  0  0  0.370836  0  0.968715  0  0  0.381357  0  0.95349  0  0  0.306499  0.363433  0  0.979047  0
H  H5  1  0.02448460  0.70723201  0.65241892  1  0  0.395636  0  0.900013  0  0  0.370828  0  0.968758  0  0  0.381351  0  0.953532  0  0  0.306476  0.36342  0  0.979177  0
H  H6  1  0.47551159  0.20722905  0.65242115  1  0  0.395634  0  0.899932  0  0  0.370815  0  0.968756  0  0  0.381336  0  0.953533  0  0  0.306476  0.36341  0  0.979109  0
H  H7  1  0.97552225  0.29276892  0.34757860  1  0  0.395683  0  0.899925  0  0  0.370874  0  0.968684  0  0  0.381396  0  0.953458  0  0  0.306507  0.363471  0  0.979081  0
H  H8  1  0.80823217  0.68225467  0.28222750  1  0  0.077364  0  0.938034  0  0  0.08435  0  1.000868  0  0  0.085173  0  1.002  0  0  0.116096  0.08359  0  1.000375  0
H  H9  1  0.30823248  0.81774309  0.71777036  1  0  0.07741  0  0.937962  0  0  0.084357  0  1.000802  0  0  0.085199  0  1.001914  0  0  0.116078  0.083584  0  1.000321  0
H  H10  1  0.19176152  0.31774418  0.71776978  1  0  0.077364  0  0.937978  0  0  0.084318  0  1.000841  0  0  0.085164  0  1.001947  0  0  0.116068  0.083544  0  1.00036  0
H  H11  1  0.69177602  0.18226095  0.28222811  1  0  0.077381  0  0.937993  0  0  0.084346  0  1.000821  0  0  0.085169  0  1.001953  0  0  0.116087  0.083573  0  1.000339  0
H  H12  1  0.32859778  0.44958227  0.30728322  1  0  0.107004  0  0.989543  0  0  0.114614  0  1.054326  0  0  0.11868  0  1.050791  0  0  0.107542  0.111654  0  1.0569  0
H  H13  1  0.82859837  0.05041931  0.69271440  1  0  0.107028  0  0.989563  0  0  0.114638  0  1.054338  0  0  0.118705  0  1.050802  0  0  0.107547  0.111676  0  1.056912  0
H  H14  1  0.67140249  0.55041447  0.69271624  1  0  0.107064  0  0.989502  0  0  0.114678  0  1.054266  0  0  0.118746  0  1.050729  0  0  0.107562  0.111711  0  1.056847  0
H  H15  1  0.17139860  0.94958577  0.30728359  1  0  0.107062  0  0.989527  0  0  0.114676  0  1.054278  0  0  0.118743  0  1.05074  0  0  0.107576  0.111688  0  1.056887  0
H  H16  1  0.22101288  0.24797871  0.20625225  1  0  0.114542  0  0.966638  0  0  0.123851  0  1.029303  0  0  0.127037  0  1.028517  0  0  0.10445  0.121464  0  1.030179  0
H  H17  1  0.72101399  0.25202318  0.79374771  1  0  0.114532  0  0.966709  0  0  0.12384  0  1.029367  0  0  0.127036  0  1.028567  0  0  0.104463  0.121449  0  1.030246  0
H  H18  1  0.77898574  0.75201489  0.79374986  1  0  0.114625  0  0.966778  0  0  0.123891  0  1.029467  0  0  0.127072  0  1.028687  0  0  0.104464  0.121526  0  1.030318  0
H  H19  1  0.27898629  0.74797979  0.20625245  1  0  0.114508  0  0.966761  0  0  0.123812  0  1.029423  0  0  0.126993  0  1.028644  0  0  0.104449  0.121433  0  1.03029  0
H  H20  1  0.80773768  0.29381399  0.06616379  1  0  0.111345  0  0.966941  0  0  0.120057  0  1.029474  0  0  0.124596  0  1.026325  0  0  0.103585  0.116764  0  1.031913  0
H  H21  1  0.30773894  0.20618449  0.93383767  1  0  0.111382  0  0.966782  0  0  0.120077  0  1.029345  0  0  0.124617  0  1.026196  0  0  0.103591  0.116782  0  1.031783  0
H  H22  1  0.19226424  0.70617858  0.93383700  1  0  0.11143  0  0.966948  0  0  0.120095  0  1.029521  0  0  0.124634  0  1.026373  0  0  0.103606  0.116801  0  1.031956  0
H  H23  1  0.69226791  0.79381848  0.06616308  1  0  0.111367  0  0.967034  0  0  0.120066  0  1.029568  0  0  0.124606  0  1.026418  0  0  0.103585  0.116772  0  1.032003  0
H  H24  1  0.91773426  0.49629409  0.17093494  1  0  0.092437  0  0.970184  0  0  0.102914  0  1.033726  0  0  0.105434  0  1.032712  0  0  0.100116  0.100998  0  1.034744  0
H  H25  1  0.41773335  0.00370303  0.82906405  1  0  0.09246  0  0.970172  0  0  0.102937  0  1.033717  0  0  0.105456  0  1.032703  0  0  0.100119  0.101021  0  1.034733  0
H  H26  1  0.08226601  0.50369849  0.82906525  1  0  0.092425  0  0.970161  0  0  0.102917  0  1.033697  0  0  0.105437  0  1.032682  0  0  0.100114  0.101002  0  1.034713  0
H  H27  1  0.58226198  0.99629996  0.17093490  1  0  0.09244  0  0.970118  0  0  0.102931  0  1.033656  0  0  0.105452  0  1.03264  0  0  0.100111  0.101015  0  1.034676  0
H  H28  1  0.24529012  0.99705508  0.01730497  1  0  0.101358  0  0.943115  0  0  0.115806  0  1.009417  0  0  0.117031  0  1.008745  0  0  0.104663  0.114859  0  1.009931  0
H  H29  1  0.74529489  0.50294488  0.98269970  1  0  0.101389  0  0.943194  0  0  0.115814  0  1.009506  0  0  0.117041  0  1.008835  0  0  0.104667  0.114866  0  1.01002  0
H  H30  1  0.75469699  0.00294370  0.98269953  1  0  0.101414  0  0.943135  0  0  0.115861  0  1.009441  0  0  0.117088  0  1.008769  0  0  0.104687  0.114912  0  1.009957  0
H  H31  1  0.25470867  0.49705493  0.01730431  1  0  0.101376  0  0.943104  0  0  0.115829  0  1.009399  0  0  0.117054  0  1.008724  0  0  0.104674  0.114883  0  1.00991  0
H  H32  1  0.10990617  0.15008492  0.07182133  1  0  0.079203  0  0.946596  0  0  0.095815  0  1.014676  0  0  0.096174  0  1.014549  0  0  0.095621  0.095478  0  1.014855  0
H  H33  1  0.60990075  0.34991418  0.92818243  1  0  0.079173  0  0.946483  0  0  0.095756  0  1.014618  0  0  0.096116  0  1.01449  0  0  0.095588  0.095418  0  1.014797  0
H  H34  1  0.89010233  0.84991491  0.92818148  1  0  0.07922  0  0.946448  0  0  0.095819  0  1.014572  0  0  0.096179  0  1.014445  0  0  0.095609  0.095481  0  1.014754  0
H  H35  1  0.39009952  0.65008046  0.07181980  1  0  0.079211  0  0.946608  0  0  0.095825  0  1.014683  0  0  0.096182  0  1.014557  0  0  0.095617  0.095487  0  1.014861  0
H  H36  1  0.24372780  0.03298904  0.12718004  1  0  0.077141  0  0.97138  0  0  0.093266  0  1.040767  0  0  0.09256  0  1.042899  0  0  0.093527  0.093669  0  1.03938  0
H  H37  1  0.74372584  0.46701587  0.87282269  1  0  0.077096  0  0.971495  0  0  0.093228  0  1.040854  0  0  0.092521  0  1.042989  0  0  0.09353  0.093637  0  1.039457  0
H  H38  1  0.75626424  0.96701289  0.87282060  1  0  0.077066  0  0.971415  0  0  0.093199  0  1.040798  0  0  0.092494  0  1.042929  0  0  0.093494  0.093611  0  1.039403  0
H  H39  1  0.25627443  0.53298810  0.12718119  1  0  0.077121  0  0.971401  0  0  0.093245  0  1.040785  0  0  0.092538  0  1.042917  0  0  0.093517  0.093638  0  1.03941  0
C  C40  1  0.69117160  0.61628105  0.30815483  1  0  0.062951  0  3.658905  0  0  0.037189  0  3.914988  0  0  0.041017  0  3.923595  0  0  0.013751  0.034554  0  3.909271  0
C  C41  1  0.19116782  0.88372016  0.69184633  1  0  0.062984  0  3.658797  0  0  0.037341  0  3.914724  0  0  0.041158  0  3.92333  0  0  0.013802  0.034717  0  3.909001  0
C  C42  1  0.30883197  0.38371569  0.69184523  1  0  0.062976  0  3.658989  0  0  0.037251  0  3.915049  0  0  0.041065  0  3.923661  0  0  0.013753  0.034635  0  3.909313  0
C  C43  1  0.80883904  0.11628490  0.30815286  1  0  0.063071  0  3.658816  0  0  0.037418  0  3.914776  0  0  0.041247  0  3.923381  0  0  0.013867  0.034793  0  3.909058  0
C  C44  1  0.63059361  0.48901741  0.24664351  1  0  0.00028  0  3.798568  0  0  0.016798  0  4.038108  0  0  0.012667  0  4.063946  0  0  -0.034616  0.019233  0  4.020796  0
C  C45  1  0.13058550  0.01098586  0.75335291  1  0  0.000175  0  3.798477  0  0  0.016635  0  4.038072  0  0  0.012504  0  4.063915  0  0  -0.034636  0.01907  0  4.020753  0
C  C46  1  0.36941324  0.51097831  0.75335523  1  0  0.000179  0  3.798878  0  0  0.016661  0  4.038463  0  0  0.01253  0  4.064307  0  0  -0.034675  0.019094  0  4.021143  0
C  C47  1  0.86940819  0.98901924  0.24664387  1  0  0.000179  0  3.798644  0  0  0.016573  0  4.038333  0  0  0.012437  0  4.064178  0  0  -0.034704  0.019008  0  4.021016  0
C  C48  1  0.43711990  0.41607937  0.25544490  1  0  -0.065951  0  3.732393  0  0  -0.092147  0  3.986647  0  0  -0.090095  0  4.003607  0  0  -0.086937  -0.09318  0  3.975072  0
C  C49  1  0.93711398  0.08391769  0.74455411  1  0  -0.065972  0  3.732437  0  0  -0.092152  0  3.986695  0  0  -0.090103  0  4.00366  0  0  -0.086949  -0.093191  0  3.975134  0
C  C50  1  0.56288037  0.58391425  0.74455540  1  0  -0.066049  0  3.732563  0  0  -0.092229  0  3.986804  0  0  -0.090179  0  4.003763  0  0  -0.08699  -0.093267  0  3.975256  0
C  C51  1  0.06288630  0.91607699  0.25544451  1  0  -0.06602  0  3.732416  0  0  -0.092172  0  3.986668  0  0  -0.090117  0  4.003625  0  0  -0.086947  -0.093185  0  3.975106  0
C  C52  1  0.37355897  0.30130233  0.19710908  1  0  -0.215324  0  3.765536  0  0  -0.231108  0  4.017171  0  0  -0.237714  0  4.03654  0  0  -0.112134  -0.22657  0  4.0042  0
C  C53  1  0.87355569  0.19869700  0.80289073  1  0  -0.215226  0  3.765484  0  0  -0.230972  0  4.017139  0  0  -0.237588  0  4.036505  0  0  -0.112085  -0.226432  0  4.004166  0
C  C54  1  0.62645118  0.69869231  0.80289255  1  0  -0.215428  0  3.765586  0  0  -0.231177  0  4.017261  0  0  -0.237781  0  4.036629  0  0  -0.112158  -0.226658  0  4.004272  0
C  C55  1  0.12644294  0.80130286  0.19710967  1  0  -0.215185  0  3.765704  0  0  -0.230932  0  4.017345  0  0  -0.237534  0  4.036719  0  0  -0.112073  -0.226399  0  4.004362  0
C  C56  1  0.50625710  0.25819314  0.12808451  1  0  0.258038  0  3.837164  0  0  0.248503  0  4.095366  0  0  0.260282  0  4.111958  0  0  0.077208  0.240332  0  4.083955  0
C  C57  1  0.00624935  0.24180009  0.87191608  1  0  0.25811  0  3.837139  0  0  0.24846  0  4.095469  0  0  0.260239  0  4.112061  0  0  0.077131  0.240296  0  4.084053  0
C  C58  1  0.49374811  0.74180043  0.87192061  1  0  0.258291  0  3.837046  0  0  0.24872  0  4.095257  0  0  0.260502  0  4.111845  0  0  0.07732  0.240537  0  4.083854  0
C  C59  1  0.99375421  0.75819771  0.12808289  1  0  0.25807  0  3.837101  0  0  0.248431  0  4.095423  0  0  0.260208  0  4.112016  0  0  0.077138  0.240257  0  4.084014  0
C  C60  1  0.70472702  0.32794978  0.11980381  1  0  -0.191882  0  3.753963  0  0  -0.210736  0  4.00904  0  0  -0.216929  0  4.027807  0  0  -0.108578  -0.206628  0  3.996644  0
C  C61  1  0.20471834  0.17205009  0.88019651  1  0  -0.191962  0  3.754024  0  0  -0.210763  0  4.009129  0  0  -0.216956  0  4.027895  0  0  -0.108577  -0.206659  0  3.996741  0
C  C62  1  0.29527489  0.67204381  0.88019891  1  0  -0.192056  0  3.754064  0  0  -0.210867  0  4.009172  0  0  -0.217062  0  4.027939  0  0  -0.108634  -0.206762  0  3.996791  0
C  C63  1  0.79527370  0.82795291  0.11980184  1  0  -0.191981  0  3.754016  0  0  -0.210797  0  4.009114  0  0  -0.216988  0  4.027878  0  0  -0.108605  -0.206691  0  3.99673  0
C  C64  1  0.76503179  0.44194459  0.17856450  1  0  -0.07711  0  3.761753  0  0  -0.099861  0  4.01189  0  0  -0.098622  0  4.032385  0  0  -0.090973  -0.100556  0  3.998343  0
C  C65  1  0.26503526  0.05805612  0.82143597  1  0  -0.077091  0  3.761502  0  0  -0.099829  0  4.011644  0  0  -0.098591  0  4.03214  0  0  -0.090957  -0.100524  0  3.998094  0
C  C66  1  0.23497177  0.55804798  0.82143629  1  0  -0.076987  0  3.761655  0  0  -0.099733  0  4.011774  0  0  -0.098494  0  4.032272  0  0  -0.090931  -0.100429  0  3.998222  0
C  C67  1  0.73497324  0.94194997  0.17856454  1  0  -0.077036  0  3.761701  0  0  -0.099759  0  4.011839  0  0  -0.098521  0  4.032338  0  0  -0.090921  -0.100456  0  3.99829  0
C  C68  1  0.25058214  0.07924285  0.07169754  1  0  -0.079943  0  3.625536  0  0  -0.176479  0  3.890888  0  0  -0.169941  0  3.895493  0  0  -0.143174  -0.180695  0  3.887489  0
C  C69  1  0.75058101  0.42076099  0.92830628  1  0  -0.079877  0  3.625578  0  0  -0.176375  0  3.890903  0  0  -0.169839  0  3.895511  0  0  -0.143144  -0.180585  0  3.887492  0
C  C70  1  0.74941154  0.92075595  0.92830456  1  0  -0.079907  0  3.62531  0  0  -0.176466  0  3.890671  0  0  -0.169929  0  3.895277  0  0  -0.143189  -0.180695  0  3.887265  0
C  C71  1  0.24941597  0.57924507  0.07169723  1  0  -0.079939  0  3.625533  0  0  -0.176481  0  3.890871  0  0  -0.169936  0  3.895471  0  0  -0.143187  -0.180688  0  3.887481  0
S  S72  1  0.84387819  0.56607946  0.39549076  1  0  1.257241  0  5.588541  0  0  1.166546  0  6.120333  0  0  1.211012  0  6.096366  0  0  0.494185  1.135696  0  6.136059  0
S  S73  1  0.34387661  0.93392337  0.60450771  1  0  1.257138  0  5.58858  0  0  1.166437  0  6.120356  0  0  1.2109  0  6.096396  0  0  0.494145  1.135587  0  6.136076  0
S  S74  1  0.15612373  0.43392352  0.60450880  1  0  1.257157  0  5.588637  0  0  1.166458  0  6.120433  0  0  1.210924  0  6.09647  0  0  0.494132  1.135607  0  6.136152  0
S  S75  1  0.65612366  0.06608172  0.39548967  1  0  1.25713  0  5.588611  0  0  1.166423  0  6.120395  0  0  1.210888  0  6.096429  0  0  0.494143  1.135573  0  6.136116  0
O  O76  1  0.67440278  0.51177293  0.44429985  1  0  -0.740593  0  2.007451  0  0  -0.696447  0  2.27797  0  0  -0.714656  0  2.260692  0  0  -0.45054  -0.68352  0  2.289659  0
O  O77  1  0.17440528  0.98823251  0.55569996  1  0  -0.740581  0  2.007529  0  0  -0.696397  0  2.27799  0  0  -0.714607  0  2.260723  0  0  -0.45051  -0.683474  0  2.289684  0
O  O78  1  0.32559749  0.48822694  0.55569935  1  0  -0.740594  0  2.007483  0  0  -0.696428  0  2.277972  0  0  -0.71464  0  2.260702  0  0  -0.450541  -0.683503  0  2.289662  0
O  O79  1  0.82559335  0.01177463  0.44430006  1  0  -0.740555  0  2.007447  0  0  -0.696412  0  2.277994  0  0  -0.714606  0  2.26069  0  0  -0.450529  -0.683486  0  2.289686  0
O  O80  1  0.95315388  0.69219146  0.44023776  1  0  -0.752627  0  1.951013  0  0  -0.71147  0  2.216405  0  0  -0.728361  0  2.197164  0  0  -0.455804  -0.699424  0  2.229375  0
O  O81  1  0.45314655  0.80780687  0.55976030  1  0  -0.75261  0  1.950981  0  0  -0.711458  0  2.216372  0  0  -0.728344  0  2.197126  0  0  -0.455792  -0.699411  0  2.229339  0
O  O82  1  0.04684475  0.30780841  0.55976144  1  0  -0.752609  0  1.95094  0  0  -0.711461  0  2.216332  0  0  -0.728342  0  2.197085  0  0  -0.455791  -0.699417  0  2.229303  0
O  O83  1  0.54684878  0.19219822  0.44023648  1  0  -0.7526  0  1.950964  0  0  -0.711444  0  2.216348  0  0  -0.728325  0  2.197101  0  0  -0.455793  -0.699397  0  2.229318  0
O  O84  1  0.00969197  0.46082119  0.36105395  1  0  -0.679029  0  2.021835  0  0  -0.62206  0  2.267874  0  0  -0.642466  0  2.252646  0  0  -0.331235  -0.60771  0  2.277901  0
O  O85  1  0.50969722  0.03917827  0.63894554  1  0  -0.678989  0  2.021872  0  0  -0.622042  0  2.267934  0  0  -0.642455  0  2.252713  0  0  -0.331237  -0.607687  0  2.27795  0
O  O86  1  0.99030994  0.53918388  0.63894464  1  0  -0.679011  0  2.02198  0  0  -0.622037  0  2.268019  0  0  -0.642449  0  2.252795  0  0  -0.331216  -0.60768  0  2.278047  0
O  O87  1  0.49030634  0.96082576  0.36105353  1  0  -0.679001  0  2.02185  0  0  -0.622057  0  2.267907  0  0  -0.642462  0  2.252679  0  0  -0.331243  -0.607697  0  2.277917  0
O  O88  1  0.45515946  0.15051277  0.06588127  1  0  -0.263537  0  2.342369  0  0  -0.187551  0  2.582369  0  0  -0.205592  0  2.585015  0  0  -0.190092  -0.174671  0  2.579943  0
O  O89  1  0.95515903  0.34948626  0.93412159  1  0  -0.263635  0  2.342211  0  0  -0.187611  0  2.58223  0  0  -0.205655  0  2.584876  0  0  -0.190098  -0.174749  0  2.579817  0
O  O90  1  0.54483094  0.84947976  0.93412313  1  0  -0.263706  0  2.342246  0  0  -0.187675  0  2.582237  0  0  -0.205718  0  2.584881  0  0  -0.190094  -0.174786  0  2.579811  0
O  O91  1  0.04483466  0.65051464  0.06587833  1  0  -0.263615  0  2.342245  0  0  -0.187583  0  2.582249  0  0  -0.205625  0  2.584894  0  0  -0.190062  -0.174699  0  2.579819  0
O  O92  1  0.50319724  0.68999190  0.34142122  1  0  -0.580125  0  2.112372  0  0  -0.538734  0  2.339473  0  0  -0.553374  0  2.324357  0  0  -0.435815  -0.528085  0  2.349253  0
O  O93  1  0.00318732  0.81000994  0.65857743  1  0  -0.580151  0  2.112403  0  0  -0.538765  0  2.339376  0  0  -0.553415  0  2.324278  0  0  -0.435826  -0.528108  0  2.349213  0
O  O94  1  0.49679480  0.31000487  0.65857643  1  0  -0.580104  0  2.112496  0  0  -0.538687  0  2.339576  0  0  -0.553335  0  2.324479  0  0  -0.435754  -0.528032  0  2.349356  0
O  O95  1  0.99681131  0.18999097  0.34142129  1  0  -0.580255  0  2.112396  0  0  -0.538866  0  2.339408  0  0  -0.553512  0  2.324309  0  0  -0.435874  -0.528212  0  2.349228  0
