# generated using pymatgen
data_ZnH19C19(NO2)2
_symmetry_space_group_name_H-M   'P 1'
_cell_length_a   11.03079271
_cell_length_b   13.86180566
_cell_length_c   15.39100023
_cell_angle_alpha   90.03213223
_cell_angle_beta   87.83518483
_cell_angle_gamma   72.69928513
_symmetry_Int_Tables_number   1
_chemical_formula_structural   ZnH19C19(NO2)2
_chemical_formula_sum   'Zn2 H38 C38 N4 O8'
_cell_volume   2245.13785576
_cell_formula_units_Z   2
loop_
 _symmetry_equiv_pos_site_id
 _symmetry_equiv_pos_as_xyz
  1  'x, y, z'
loop_
 _atom_site_type_symbol
 _atom_site_label
 _atom_site_symmetry_multiplicity
 _atom_site_fract_x
 _atom_site_fract_y
 _atom_site_fract_z
 _atom_site_occupancy
 _atom_site_pbe_bader_charge
 _atom_site_pbe_bader_spin_density
 _atom_site_pbe_cm5_charge
 _atom_site_pbe_ddec_charge
 _atom_site_pbe_ddec_spin_density
 _atom_site_pbe_ddec_sum_bond_order
 _atom_site_pbe_magmom
Zn  Zn0  1  0.48155296  0.60805057  0.49488293  1  1.285943  0  0.665247  0.823315  0  2.400786  0
Zn  Zn1  1  0.50016375  0.40335907  0.49440077  1  1.284952  0  0.667519  0.819648  0  2.447168  0
H  H2  1  0.12940475  0.42524596  0.48992799  1  0.092587  0  0.099631  0.101361  0  1.032894  0
H  H3  1  0.56705136  0.63106211  0.77023284  1  0.062705  0  0.09698  0.096672  0  1.016053  0
H  H4  1  0.57634770  0.33728230  0.05499799  1  0.039869  0  0.097537  0.095041  0  1.009917  0
H  H5  1  0.57873574  0.62824122  0.93169821  1  0.04331  0  0.096977  0.094805  0  1.011175  0
H  H6  1  0.66654002  0.22463526  0.41289125  1  0.122151  0  0.125396  0.105829  0  0.990896  0
H  H7  1  0.48891322  0.75357486  0.62972560  1  0.122123  0  0.122049  0.10547  0  1.009666  0
H  H8  1  0.34035451  0.27673064  0.56934934  1  0.107228  0  0.125309  0.104769  0  0.97704  0
H  H9  1  0.53134721  0.75081349  0.36199731  1  0.124662  0  0.122194  0.104342  0  0.998845  0
H  H10  1  0.94600843  0.86425681  0.63446207  1  0.008778  0  0.080908  0.10142  0  1.020842  0
H  H11  1  0.81703370  0.81215234  0.63104718  1  0.027705  0  0.078203  0.100213  0  1.031029  0
H  H12  1  0.89574505  0.81235305  0.72971962  1  -0.014633  0  0.082695  0.106335  0  1.007273  0
H  H13  1  0.85579151  0.57726427  0.50405708  1  0.107819  0  0.100319  0.103603  0  1.026574  0
H  H14  1  0.96541241  0.63933129  0.66068021  1  0.025323  0  0.087325  0.076325  0  0.980001  0
H  H15  1  0.09486035  0.68957103  0.66271218  1  0.03921  0  0.09121  0.086184  0  0.9702  0
H  H16  1  0.06738450  0.73878469  0.50824503  1  0.036319  0  0.091642  0.094643  0  0.989794  0
H  H17  1  0.92887921  0.69827044  0.50584295  1  -0.016479  0  0.089108  0.083215  0  0.999435  0
H  H18  1  0.99357336  0.11307758  0.55544112  1  0.006331  0  0.079218  0.101767  0  1.014807  0
H  H19  1  0.13420010  0.14536293  0.57470002  1  0.011084  0  0.077422  0.098458  0  1.029949  0
H  H20  1  0.03647977  0.12683442  0.66382108  1  0.014316  0  0.082434  0.105963  0  1.008833  0
H  H21  1  0.00054853  0.31329963  0.64071069  1  0.00219  0  0.085197  0.07323  0  0.978594  0
H  H22  1  0.86105878  0.28070607  0.61984419  1  0.00927  0  0.089912  0.088564  0  0.982209  0
H  H23  1  0.91929234  0.26882081  0.46060420  1  0.027483  0  0.08884  0.085036  0  0.990398  0
H  H24  1  0.36862903  0.08994747  0.58024074  1  0.091985  0  0.110874  0.115663  0  1.00643  0
H  H25  1  0.05676495  0.30511218  0.48153027  1  0.021658  0  0.08966  0.083533  0  0.998671  0
H  H26  1  0.78004290  0.07025532  0.37186140  1  0.403458  0  0.312161  0.250661  0  0.93968  0
H  H27  1  0.91030561  0.91545170  0.39935894  1  0.058891  0  0.112368  0.124576  0  0.967586  0
H  H28  1  0.78526482  0.87286842  0.44406121  1  0.057156  0  0.096912  0.103375  0  1.031675  0
H  H29  1  0.84992293  0.95211607  0.50732483  1  0.019661  0  0.092456  0.08992  0  1.019842  0
H  H30  1  0.51536109  0.88000705  0.71076668  1  0.443388  0  0.319253  0.258185  0  0.937264  0
H  H31  1  0.63109200  0.97710864  0.75555277  1  0.044663  0  0.110611  0.117181  0  0.972295  0
H  H32  1  0.53817579  0.07584305  0.69009053  1  0.065518  0  0.096635  0.102994  0  1.005103  0
H  H33  1  0.68134952  0.99019134  0.64640331  1  0.052178  0  0.102874  0.107249  0  1.007758  0
H  H34  1  0.56541172  0.92323615  0.36316016  1  0.08608  0  0.113081  0.122119  0  0.987933  0
H  H35  1  0.44322395  0.66265483  0.05360926  1  0.047639  0  0.097124  0.09464  0  1.011924  0
H  H36  1  0.44150009  0.36793143  0.93840495  1  0.0683  0  0.098754  0.097173  0  1.007455  0
H  H37  1  0.44042932  0.66543333  0.21543443  1  0.088796  0  0.100932  0.103123  0  1.0079  0
H  H38  1  0.43539178  0.36971404  0.77656780  1  0.078158  0  0.101226  0.10467  0  1.004792  0
H  H39  1  0.57032385  0.34168670  0.21705410  1  0.107961  0  0.100579  0.103534  0  1.006072  0
C  C40  1  0.50156545  0.50548300  0.32388222  1  1.522609  0  0.211397  0.589875  0  4.17352  0
C  C41  1  0.52988311  0.79323258  0.42184681  1  0.450267  0  0.030358  0.046149  0  3.97134  0
C  C42  1  0.43733132  0.11740220  0.54285048  1  -0.074726  0  -0.084029  -0.172523  0  4.014598  0
C  C43  1  0.54984622  0.88723745  0.42377324  1  -0.037594  0  -0.082525  -0.159172  0  4.005815  0
C  C44  1  0.54138889  0.04699226  0.50023402  1  0.044398  0  0.000604  0.021169  0  3.944821  0
C  C45  1  0.54544312  0.93945789  0.50267949  1  0.024846  0  -0.004301  0.001488  0  3.957605  0
C  C46  1  0.73892953  0.44551298  0.49675359  1  1.54173  0  0.206299  0.57415  0  4.178492  0
C  C47  1  0.24492590  0.55830741  0.50290611  1  1.577291  0  0.208129  0.575757  0  4.175275  0
C  C48  1  0.88008402  0.42271429  0.50051038  1  0.034368  0  -0.01151  -0.016859  0  3.866805  0
C  C49  1  0.10392589  0.57858022  0.51146092  1  -0.056902  0  -0.011513  -0.018413  0  3.868596  0
C  C50  1  0.92688079  0.50306924  0.50309625  1  -0.094163  0  -0.089886  -0.10525  0  4.014876  0
C  C51  1  0.49101355  0.50446962  0.66655138  1  1.598493  0  0.209568  0.585581  0  4.185224  0
C  C52  1  0.05821319  0.49829664  0.50180245  1  -0.051358  0  -0.087759  -0.103561  0  4.012254  0
C  C53  1  0.47348885  0.59198286  0.08914614  1  -0.057662  0  -0.096339  -0.141328  0  4.000944  0
C  C54  1  0.47108413  0.42496708  0.90167697  1  -0.060315  0  -0.094789  -0.139384  0  3.993226  0
C  C55  1  0.47109980  0.59396360  0.17954317  1  0.003091  0  -0.087274  -0.090381  0  4.001128  0
C  C56  1  0.46631472  0.42612645  0.81144114  1  -0.056009  0  -0.087624  -0.091472  0  3.995374  0
C  C57  1  0.50570979  0.50374898  0.22624387  1  -0.001765  0  -0.019804  -0.032336  0  3.958838  0
C  C58  1  0.49890304  0.50144517  0.76365923  1  0.002097  0  -0.020074  -0.026989  0  3.963568  0
C  C59  1  0.54303272  0.41153650  0.18036423  1  -0.025059  0  -0.086712  -0.086794  0  3.994935  0
C  C60  1  0.53905922  0.57413137  0.80797740  1  -0.022658  0  -0.091828  -0.097422  0  4.015696  0
C  C61  1  0.54525270  0.40953801  0.08994346  1  -0.073026  0  -0.095656  -0.141273  0  3.999958  0
C  C62  1  0.51022432  0.49977569  0.04261411  1  -0.041637  0  -0.007339  0.074103  0  4.003104  0
C  C63  1  0.54474958  0.57256877  0.89806023  1  -0.063247  0  -0.096661  -0.140941  0  4.006275  0
C  C64  1  0.02240319  0.68356338  0.53476724  1  0.02005  0  -0.163297  -0.176642  0  3.970074  0
C  C65  1  0.00213438  0.69934283  0.63395091  1  -0.011006  0  -0.162913  -0.086194  0  3.943398  0
C  C66  1  0.91033999  0.80269634  0.65879036  1  -0.041523  0  -0.247254  -0.354233  0  3.995608  0
C  C67  1  0.95832491  0.31387827  0.50449126  1  -0.017784  0  -0.161949  -0.170772  0  3.978147  0
C  C68  1  0.95974116  0.26979201  0.59641521  1  0.053699  0  -0.164586  -0.090973  0  3.948339  0
C  C69  1  0.03501423  0.15782257  0.59796919  1  -0.060383  0  -0.246409  -0.347858  0  3.99788  0
C  C70  1  0.82368164  0.93724657  0.44126956  1  0.283451  0  -0.139382  -0.224202  0  3.979461  0
C  C71  1  0.59782457  0.99650072  0.68974816  1  0.282487  0  -0.132798  -0.212372  0  3.978028  0
C  C72  1  0.50947025  0.49860633  0.94674413  1  -0.00321  0  -0.006866  0.072123  0  4.00201  0
C  C73  1  0.62780618  0.08504820  0.45068913  1  0.424824  0  0.100792  0.134927  0  4.055536  0
C  C74  1  0.52828240  0.88962537  0.58071050  1  0.403363  0  0.105586  0.137362  0  4.083892  0
C  C75  1  0.60202835  0.19072857  0.44838749  1  0.458266  0  0.04916  -0.006983  0  3.908661  0
C  C76  1  0.50582013  0.79493640  0.57226711  1  0.532471  0  0.045874  -0.014412  0  3.902788  0
C  C77  1  0.41969959  0.22033878  0.53678812  1  0.492118  0  0.03729  0.056923  0  3.973111  0
N  N78  1  0.50261257  0.25549456  0.48985179  1  -1.23152  0  -0.32495  -0.173941  0  3.586636  0
N  N79  1  0.50506213  0.74955594  0.49610194  1  -1.245696  0  -0.321418  -0.171658  0  3.583698  0
N  N80  1  0.73449131  0.02624123  0.40397704  1  -1.137877  0  -0.449633  -0.304827  0  3.545698  0
N  N81  1  0.52968499  0.92676083  0.66353711  1  -1.198651  0  -0.441771  -0.291204  0  3.612793  0
O  O82  1  0.46975662  0.59189668  0.36170681  1  -1.169174  0  -0.319883  -0.55326  0  2.310635  0
O  O83  1  0.47532300  0.42753459  0.62882666  1  -1.17549  0  -0.321781  -0.55342  0  2.305104  0
O  O84  1  0.52967705  0.42043104  0.36163090  1  -1.181234  0  -0.319837  -0.5523  0  2.320059  0
O  O85  1  0.50079257  0.58409010  0.62916915  1  -1.177655  0  -0.319261  -0.558152  0  2.330213  0
O  O86  1  0.67412700  0.53640242  0.48273636  1  -1.178765  0  -0.322154  -0.559269  0  2.371922  0
O  O87  1  0.31137220  0.46785528  0.48413897  1  -1.182513  0  -0.325073  -0.558796  0  2.384282  0
O  O88  1  0.69298356  0.37155010  0.50726662  1  -1.165538  0  -0.318091  -0.543239  0  2.319672  0
O  O89  1  0.28942478  0.63244499  0.51419068  1  -1.16152  0  -0.3189  -0.535607  0  2.284412  0
