# generated using pymatgen
data_NaBH8(C4O5)2
_symmetry_space_group_name_H-M   'P 1'
_cell_length_a   5.17738591
_cell_length_b   9.79266045
_cell_length_c   11.83405190
_cell_angle_alpha   90.00230768
_cell_angle_beta   89.99854543
_cell_angle_gamma   104.22489825
_symmetry_Int_Tables_number   1
_chemical_formula_structural   NaBH8(C4O5)2
_chemical_formula_sum   'Na2 B2 H16 C16 O20'
_cell_volume   581.59442633
_cell_formula_units_Z   2
loop_
 _symmetry_equiv_pos_site_id
 _symmetry_equiv_pos_as_xyz
  1  'x, y, z'
loop_
 _atom_site_type_symbol
 _atom_site_label
 _atom_site_symmetry_multiplicity
 _atom_site_fract_x
 _atom_site_fract_y
 _atom_site_fract_z
 _atom_site_occupancy
 _atom_site_hle17_bader_spin_density
 _atom_site_hle17_ddec_charge
 _atom_site_hle17_ddec_spin_density
 _atom_site_hle17_ddec_sum_bond_order
 _atom_site_hle17_magmom
 _atom_site_hse06_10hf_bader_spin_density
 _atom_site_hse06_10hf_ddec_charge
 _atom_site_hse06_10hf_ddec_spin_density
 _atom_site_hse06_10hf_ddec_sum_bond_order
 _atom_site_hse06_10hf_magmom
 _atom_site_hse06_bader_spin_density
 _atom_site_hse06_ddec_charge
 _atom_site_hse06_ddec_spin_density
 _atom_site_hse06_ddec_sum_bond_order
 _atom_site_hse06_magmom
 _atom_site_pbe_bader_spin_density
 _atom_site_pbe_cm5_charge
 _atom_site_pbe_ddec_charge
 _atom_site_pbe_ddec_spin_density
 _atom_site_pbe_ddec_sum_bond_order
 _atom_site_pbe_magmom
Na  Na0  1  0.25274670  0.64895510  0.54666096  1  0  0.910629  0  0.392779  0  0  0.872281  0  0.536903  0  0  0.881908  0  0.515919  0  0  0.761261  0.864741  0  0.552435  0
Na  Na1  1  0.74726827  0.35105117  0.04665279  1  0  0.91066  0  0.392708  0  0  0.872269  0  0.536901  0  0  0.88189  0  0.515921  0  0  0.761196  0.864725  0  0.552442  0
B  B2  1  0.78666284  0.70392064  0.70598728  1  0  1.032161  0  2.89162  0  0  0.874231  0  3.239392  0  0  0.906967  0  3.212161  0  0  0.02492  0.849847  0  3.261186  0
B  B3  1  0.21334987  0.29607979  0.20599755  1  0  1.032372  0  2.890949  0  0  0.874469  0  3.238702  0  0  0.907181  0  3.211519  0  0  0.024956  0.850071  0  3.260518  0
H  H4  1  0.51698463  0.97489543  0.31718152  1  0  0.396302  0  0.881509  0  0  0.363082  0  0.96609  0  0  0.37622  0  0.951523  0  0  0.30634  0.353902  0  0.976294  0
H  H5  1  0.48301953  0.02511291  0.81716501  1  0  0.396307  0  0.881627  0  0  0.363149  0  0.966095  0  0  0.376296  0  0.95151  0  0  0.306384  0.35397  0  0.976288  0
H  H6  1  0.12416767  0.95284110  0.44999330  1  0  0.143735  0  0.926549  0  0  0.153704  0  0.988989  0  0  0.157397  0  0.986798  0  0  0.118608  0.151089  0  0.99059  0
H  H7  1  0.87582597  0.04714024  0.94998753  1  0  0.143697  0  0.926576  0  0  0.153737  0  0.988902  0  0  0.157436  0  0.986707  0  0  0.118652  0.151122  0  0.990506  0
H  H8  1  0.04631334  0.10048378  0.51179573  1  0  0.133772  0  0.90775  0  0  0.147831  0  0.964525  0  0  0.150483  0  0.963438  0  0  0.115338  0.145899  0  0.965435  0
H  H9  1  0.95367956  0.89948308  0.01180986  1  0  0.1338  0  0.907502  0  0  0.147801  0  0.964357  0  0  0.150458  0  0.963263  0  0  0.115381  0.145871  0  0.965265  0
H  H10  1  0.19908257  0.97175138  0.65733131  1  0  0.077262  0  0.911197  0  0  0.085763  0  0.97156  0  0  0.087524  0  0.970734  0  0  0.12096  0.084231  0  0.972591  0
H  H11  1  0.80090890  0.02826382  0.15732505  1  0  0.077287  0  0.911174  0  0  0.085791  0  0.971483  0  0  0.087552  0  0.970657  0  0  0.120952  0.084263  0  0.972515  0
H  H12  1  0.37715284  0.44446937  0.78380379  1  0  0.082004  0  0.887108  0  0  0.092159  0  0.940813  0  0  0.094112  0  0.939578  0  0  0.12682  0.090978  0  0.94154  0
H  H13  1  0.62283565  0.55553016  0.28379890  1  0  0.081968  0  0.887035  0  0  0.092035  0  0.940843  0  0  0.093983  0  0.939613  0  0  0.126782  0.090859  0  0.941571  0
H  H14  1  0.54325055  0.24646109  0.70439305  1  0  0.145255  0  0.924442  0  0  0.158496  0  0.983453  0  0  0.161176  0  0.982337  0  0  0.119299  0.1557  0  0.986036  0
H  H15  1  0.45674100  0.75354348  0.20438915  1  0  0.145198  0  0.924499  0  0  0.158468  0  0.983491  0  0  0.16115  0  0.982368  0  0  0.119278  0.15567  0  0.986065  0
H  H16  1  0.33401294  0.31145704  0.60964755  1  0  0.134666  0  0.934838  0  0  0.144014  0  0.997033  0  0  0.147538  0  0.994903  0  0  0.110637  0.141583  0  0.998458  0
H  H17  1  0.66598989  0.68853506  0.10964587  1  0  0.13464  0  0.934799  0  0  0.143992  0  0.997006  0  0  0.147517  0  0.99488  0  0  0.110622  0.14156  0  0.998432  0
H  H18  1  0.82139770  0.31729865  0.41074349  1  0  0.413739  0  0.835765  0  0  0.380276  0  0.918444  0  0  0.392341  0  0.904503  0  0  0.324335  0.371732  0  0.928213  0
H  H19  1  0.17859611  0.68270735  0.91074858  1  0  0.41376  0  0.835843  0  0  0.380321  0  0.918491  0  0  0.392385  0  0.904546  0  0  0.324368  0.371778  0  0.928259  0
C  C20  1  0.75043710  0.35834801  0.56585038  1  0  0.74101  0  3.730946  0  0  0.69557  0  4.033975  0  0  0.728574  0  4.024367  0  0  0.249109  0.6725  0  4.041223  0
C  C21  1  0.24956983  0.64164750  0.06585681  1  0  0.741234  0  3.730486  0  0  0.695519  0  4.033937  0  0  0.728577  0  4.024249  0  0  0.249074  0.672434  0  4.041199  0
C  C22  1  0.52860932  0.33668504  0.65147703  1  0  -0.326596  0  3.639751  0  0  -0.372597  0  3.883122  0  0  -0.379465  0  3.889524  0  0  -0.157272  -0.367605  0  3.879933  0
C  C23  1  0.47138566  0.66331201  0.15147666  1  0  -0.326494  0  3.639786  0  0  -0.372467  0  3.883247  0  0  -0.379354  0  3.889637  0  0  -0.157169  -0.367448  0  3.880054  0
C  C24  1  0.55303625  0.46510495  0.72733983  1  0  0.138588  0  3.666213  0  0  0.116972  0  3.914037  0  0  0.119163  0  3.922164  0  0  0.025528  0.115195  0  3.908344  0
C  C25  1  0.44694573  0.53489849  0.22733874  1  0  0.138599  0  3.665805  0  0  0.11705  0  3.913583  0  0  0.119242  0  3.92169  0  0  0.025584  0.115232  0  3.907937  0
C  C26  1  0.80020730  0.49648903  0.80213163  1  0  0.628804  0  3.797215  0  0  0.575315  0  4.104878  0  0  0.607592  0  4.095417  0  0  0.251975  0.55352  0  4.110598  0
C  C27  1  0.19977284  0.50352392  0.30214405  1  0  0.628707  0  3.798127  0  0  0.575256  0  4.10566  0  0  0.607558  0  4.096166  0  0  0.251949  0.553474  0  4.111378  0
C  C28  1  0.70924058  0.94397126  0.45425216  1  0  0.742186  0  3.742475  0  0  0.697664  0  4.039658  0  0  0.730196  0  4.030986  0  0  0.247917  0.675468  0  4.044982  0
C  C29  1  0.29076260  0.05601869  0.95425322  1  0  0.742204  0  3.742325  0  0  0.697638  0  4.039547  0  0  0.730195  0  4.030834  0  0  0.24795  0.675441  0  4.044875  0
C  C30  1  0.98191823  0.98489669  0.50692813  1  0  -0.32133  0  3.655695  0  0  -0.366673  0  3.904113  0  0  -0.373444  0  3.910782  0  0  -0.154498  -0.361952  0  3.89936  0
C  C31  1  0.01807734  0.01508366  0.00692762  1  0  -0.321185  0  3.655414  0  0  -0.366497  0  3.903662  0  0  -0.373283  0  3.910327  0  0  -0.154479  -0.361768  0  3.898919  0
C  C32  1  0.00145397  0.92082438  0.62260464  1  0  0.137854  0  3.671273  0  0  0.110861  0  3.926959  0  0  0.113185  0  3.934766  0  0  0.020071  0.109365  0  3.9215  0
C  C33  1  0.99854743  0.07917460  0.12260129  1  0  0.137563  0  3.67161  0  0  0.110635  0  3.927065  0  0  0.112961  0  3.93487  0  0  0.01998  0.109136  0  3.921627  0
C  C34  1  0.79533226  0.94073915  0.70887193  1  0  0.636652  0  3.761731  0  0  0.577588  0  4.076727  0  0  0.610303  0  4.067954  0  0  0.258653  0.555005  0  4.082207  0
C  C35  1  0.20467359  0.05926351  0.20886409  1  0  0.636784  0  3.761967  0  0  0.5778  0  4.076807  0  0  0.610517  0  4.06802  0  0  0.258662  0.555205  0  4.082311  0
O  O36  1  0.51352774  0.86633696  0.50011618  1  0  -0.620574  0  1.951456  0  0  -0.580825  0  2.181088  0  0  -0.601012  0  2.170041  0  0  -0.354736  -0.566817  0  2.188387  0
O  O37  1  0.48649958  0.13366101  0.00010773  1  0  -0.620636  0  1.951268  0  0  -0.580915  0  2.180965  0  0  -0.60111  0  2.169903  0  0  -0.354799  -0.566898  0  2.188264  0
O  O38  1  0.70256589  0.00131873  0.35301974  1  0  -0.554024  0  2.105089  0  0  -0.50365  0  2.328394  0  0  -0.526523  0  2.313836  0  0  -0.325052  -0.487589  0  2.337767  0
O  O39  1  0.29745137  0.99868481  0.85301652  1  0  -0.554099  0  2.105215  0  0  -0.503781  0  2.328502  0  0  -0.526666  0  2.313923  0  0  -0.325182  -0.487707  0  2.337862  0
O  O40  1  0.96877538  0.77226092  0.61857189  1  0  -0.641848  0  2.184849  0  0  -0.573173  0  2.442832  0  0  -0.589629  0  2.431351  0  0  -0.2946  -0.561193  0  2.450629  0
O  O41  1  0.03124500  0.22773684  0.11858101  1  0  -0.641782  0  2.184726  0  0  -0.57311  0  2.442655  0  0  -0.58956  0  2.431173  0  0  -0.294438  -0.561115  0  2.450448  0
O  O42  1  0.68786664  0.82051207  0.75982345  1  0  -0.533627  0  2.165981  0  0  -0.460143  0  2.407855  0  0  -0.482528  0  2.396712  0  0  -0.156349  -0.44392  0  2.415298  0
O  O43  1  0.31211987  0.17948855  0.25982188  1  0  -0.53378  0  2.166144  0  0  -0.460348  0  2.408013  0  0  -0.482731  0  2.396862  0  0  -0.156347  -0.444114  0  2.415459  0
O  O44  1  0.73702132  0.05294990  0.73202079  1  0  -0.55259  0  1.974114  0  0  -0.50709  0  2.196578  0  0  -0.529729  0  2.187604  0  0  -0.282759  -0.491871  0  2.204031  0
O  O45  1  0.26300158  0.94706323  0.23201045  1  0  -0.552587  0  1.974056  0  0  -0.507159  0  2.196536  0  0  -0.529793  0  2.18756  0  0  -0.28278  -0.491935  0  2.204002  0
O  O46  1  0.67154893  0.29841240  0.46615275  1  0  -0.534166  0  2.049718  0  0  -0.485609  0  2.265296  0  0  -0.506917  0  2.249433  0  0  -0.320126  -0.470679  0  2.276172  0
O  O47  1  0.32842824  0.70158542  0.96614160  1  0  -0.534441  0  2.049426  0  0  -0.485736  0  2.264981  0  0  -0.507063  0  2.249094  0  0  -0.320229  -0.470799  0  2.275867  0
O  O48  1  0.98089024  0.42365864  0.58664697  1  0  -0.616898  0  1.947337  0  0  -0.579528  0  2.177849  0  0  -0.600669  0  2.167532  0  0  -0.341699  -0.56485  0  2.185181  0
O  O49  1  0.01910964  0.57634091  0.08664868  1  0  -0.616949  0  1.947212  0  0  -0.579491  0  2.177878  0  0  -0.600651  0  2.167533  0  0  -0.341677  -0.564805  0  2.185216  0
O  O50  1  0.57042689  0.59073074  0.66430345  1  0  -0.639941  0  2.172936  0  0  -0.573285  0  2.429977  0  0  -0.589555  0  2.418324  0  0  -0.284784  -0.560464  0  2.4379  0
O  O51  1  0.42955703  0.40927739  0.16429404  1  0  -0.639933  0  2.172786  0  0  -0.573288  0  2.429805  0  0  -0.589555  0  2.41815  0  0  -0.28487  -0.560454  0  2.437744  0
O  O52  1  0.87393235  0.41255304  0.86349254  1  0  -0.588622  0  1.950005  0  0  -0.560684  0  2.181899  0  0  -0.579122  0  2.169894  0  0  -0.353661  -0.547715  0  2.189718  0
O  O53  1  0.12607003  0.58745305  0.36349935  1  0  -0.588509  0  1.951082  0  0  -0.560602  0  2.182941  0  0  -0.579047  0  2.170923  0  0  -0.353583  -0.547643  0  2.190755  0
O  O54  1  0.92345190  0.63324301  0.79508328  1  0  -0.564375  0  2.162265  0  0  -0.482541  0  2.396237  0  0  -0.50608  0  2.383345  0  0  -0.156219  -0.466114  0  2.404789  0
O  O55  1  0.07654344  0.36676438  0.29509410  1  0  -0.564411  0  2.16219  0  0  -0.482544  0  2.396136  0  0  -0.506093  0  2.383243  0  0  -0.156231  -0.46611  0  2.404657  0
