# generated using pymatgen
data_CuH10C5N2Cl2O
_symmetry_space_group_name_H-M   'P 1'
_cell_length_a   6.51110587
_cell_length_b   8.55019258
_cell_length_c   16.57751002
_cell_angle_alpha   89.99393627
_cell_angle_beta   90.02578562
_cell_angle_gamma   112.73675260
_symmetry_Int_Tables_number   1
_chemical_formula_structural   CuH10C5N2Cl2O
_chemical_formula_sum   'Cu4 H40 C20 N8 Cl8 O4'
_cell_volume   851.17248519
_cell_formula_units_Z   4
loop_
 _symmetry_equiv_pos_site_id
 _symmetry_equiv_pos_as_xyz
  1  'x, y, z'
loop_
 _atom_site_type_symbol
 _atom_site_label
 _atom_site_symmetry_multiplicity
 _atom_site_fract_x
 _atom_site_fract_y
 _atom_site_fract_z
 _atom_site_occupancy
 _atom_site_hle17_ddec_charge
 _atom_site_hle17_ddec_spin_density
 _atom_site_hle17_ddec_sum_bond_order
 _atom_site_hle17_magmom
 _atom_site_hse06_10hf_ddec_charge
 _atom_site_hse06_10hf_ddec_spin_density
 _atom_site_hse06_10hf_ddec_sum_bond_order
 _atom_site_hse06_10hf_magmom
 _atom_site_hse06_ddec_charge
 _atom_site_hse06_ddec_spin_density
 _atom_site_hse06_ddec_sum_bond_order
 _atom_site_hse06_magmom
 _atom_site_pbe_cm5_charge
 _atom_site_pbe_ddec_charge
 _atom_site_pbe_ddec_spin_density
 _atom_site_pbe_ddec_sum_bond_order
 _atom_site_pbe_magmom
Cu  Cu0  1  0.99999834  0.50000077  0.49999977  1  0.634531  -0.573853  2.090109  -0.407  0.633458  -0.691985  2.506417  -0.538  0.725842  -0.771086  2.427173  -0.629  0.466544  0.586344  -0.633517  2.552815  -0.48
Cu  Cu1  1  0.00000045  0.99999763  0.99999940  1  0.632319  -0.585957  2.092541  -0.413  0.631789  -0.700054  2.508467  -0.543  0.723735  -0.771181  2.429443  -0.627  0.46716  0.586837  -0.665055  2.553823  -0.502
Cu  Cu2  1  0.49999832  0.50000169  0.50000004  1  0.752481  0.643943  1.909678  0.451  0.778607  0.760195  2.278948  0.591  0.897849  0.875298  2.178992  0.701  0.522199  0.711474  0.677347  2.339699  0.519
Cu  Cu3  1  0.49999894  0.99999671  0.99999974  1  0.749267  -0.627265  1.909738  -0.447  0.775305  -0.753869  2.279772  -0.587  0.895031  -0.848732  2.179327  -0.695  0.520365  0.708439  -0.68826  2.340351  -0.522
H  H4  1  0.84619497  0.97547976  0.57683911  1  0.092098  -0.000861  0.929576  0.0  0.106414  -0.000691  0.994143  0.0  0.108113  -0.000557  0.99279  0.0  0.103544  0.105196  -0.000782  0.995104  0.0
H  H5  1  0.84669303  0.47555526  0.92319215  1  0.091972  -0.00056  0.929352  0.0  0.106444  -0.000628  0.993857  0.0  0.108146  -0.000432  0.992507  0.0  0.103529  0.105286  -0.000793  0.994752  0.0
H  H6  1  0.15380383  0.02452489  0.42316097  1  0.092235  -0.000861  0.929511  0.0  0.106505  -0.000691  0.994103  0.0  0.108205  -0.000557  0.992748  0.0  0.103592  0.105287  -0.000782  0.995066  0.0
H  H7  1  0.15330248  0.52443672  0.07680551  1  0.092036  -0.000566  0.92938  0.0  0.106518  -0.000628  0.99386  0.0  0.108218  -0.000432  0.992513  0.0  0.103565  0.105361  -0.000793  0.994754  0.0
H  H8  1  0.98928852  0.20058015  0.58782190  1  0.085452  0.00043  0.979749  0.0  0.092373  0.00036  1.058217  0.0  0.093301  0.000272  1.057812  0.0  0.100586  0.091485  0.000437  1.058825  0.0
H  H9  1  0.98958369  0.70066392  0.91225303  1  0.08562  0.000347  0.979391  0.0  0.092479  0.000181  1.057996  0.0  0.093432  0.000227  1.057591  0.0  0.100558  0.091544  9.7e-05  1.058678  0.0
H  H10  1  0.01071055  0.79942197  0.41217818  1  0.085487  0.000433  0.979741  0.0  0.09234  0.00036  1.05825  0.0  0.093267  0.000272  1.057845  0.0  0.100558  0.091451  0.000437  1.058861  0.0
H  H11  1  0.01041336  0.29932807  0.08774886  1  0.085601  0.000341  0.979462  0.0  0.092495  0.000181  1.058022  0.0  0.093444  0.000227  1.057622  0.0  0.100566  0.09156  9.7e-05  1.058703  0.0
H  H12  1  0.29520390  0.00437472  0.59711757  1  0.097779  0.000483  0.937499  0.0  0.113458  0.000439  0.996596  0.0  0.116203  0.000256  0.994216  0.0  0.113277  0.111555  0.000607  0.998183  0.0
H  H13  1  0.29546239  0.50397586  0.90293675  1  0.097627  -0.000398  0.937537  0.0  0.113044  -0.000423  0.996702  0.0  0.115849  -0.000227  0.994229  0.0  0.112967  0.111123  -0.000614  0.998267  0.0
H  H14  1  0.70479490  0.99562993  0.40288431  1  0.097707  0.000485  0.93755  0.0  0.113367  0.000439  0.996702  0.0  0.116146  0.000256  0.994254  0.0  0.113246  0.111461  0.000607  0.998289  0.0
H  H15  1  0.70453439  0.49601866  0.09706212  1  0.097616  -0.000401  0.937485  0.0  0.11297  -0.000423  0.996737  0.0  0.11578  -0.000227  0.994254  0.0  0.112933  0.11105  -0.000614  0.998299  0.0
H  H16  1  0.42727766  0.85822819  0.58249302  1  0.086593  -0.000402  0.961228  0.0  0.096276  -0.000213  1.035924  0.0  0.096372  -0.00018  1.036631  0.0  0.104229  0.096205  -0.000223  1.035466  0.0
H  H17  1  0.42795588  0.35805781  0.91751567  1  0.086709  0.00063  0.961744  0.0  0.096433  0.000311  1.036116  0.0  0.096503  0.000283  1.036873  0.0  0.104094  0.096358  0.00031  1.03564  0.0
H  H18  1  0.57272179  0.14177773  0.41750827  1  0.086546  -0.0004  0.961257  0.0  0.096231  -0.000213  1.035968  0.0  0.096309  -0.00018  1.036676  0.0  0.104194  0.096155  -0.000223  1.035508  0.0
H  H19  1  0.57203872  0.64193543  0.08248260  1  0.08669  0.000628  0.961803  0.0  0.096403  0.000311  1.036184  0.0  0.096471  0.000283  1.036945  0.0  0.104092  0.096331  0.00031  1.035708  0.0
H  H20  1  0.88145753  0.17987748  0.73260425  1  0.074464  -6.1e-05  0.941786  0.0  0.092173  -5.8e-05  1.004622  0.0  0.09299  -2.5e-05  1.004992  0.0  0.090068  0.091614  -9.3e-05  1.00431  0.0
H  H21  1  0.88152019  0.68000785  0.76746412  1  0.074538  -0.000122  0.941529  0.0  0.0922  -0.000152  1.004413  0.0  0.093017  -0.000103  1.004774  0.0  0.09013  0.091643  -0.000192  1.004104  0.0
H  H22  1  0.11854616  0.82012465  0.26739764  1  0.074506  -6.1e-05  0.941755  0.0  0.092192  -5.8e-05  1.00462  0.0  0.093008  -2.5e-05  1.004991  0.0  0.090084  0.091635  -9.3e-05  1.004306  0.0
H  H23  1  0.11847862  0.31999680  0.23253656  1  0.074565  -0.000123  0.94154  0.0  0.092252  -0.000152  1.004402  0.0  0.09307  -0.000102  1.004764  0.0  0.090159  0.091693  -0.000192  1.004094  0.0
H  H24  1  0.01145502  0.03655591  0.71389433  1  0.082995  -0.000168  0.924439  0.0  0.105342  -0.000215  0.977392  0.0  0.105993  -0.000165  0.978016  0.0  0.096142  0.104819  -0.000251  0.977079  0.0
H  H25  1  0.01169463  0.53677582  0.78614644  1  0.082828  0.000163  0.924845  0.0  0.10528  0.000158  0.977618  0.0  0.105925  0.000134  0.978256  0.0  0.096035  0.104769  0.000171  0.977281  0.0
H  H26  1  0.98854802  0.96344496  0.28610575  1  0.082991  -0.000169  0.924405  0.0  0.105348  -0.000215  0.977352  0.0  0.105999  -0.000165  0.977977  0.0  0.096142  0.104827  -0.000251  0.97704  0.0
H  H27  1  0.98830725  0.46322884  0.21385243  1  0.082849  0.000161  0.924736  0.0  0.105305  0.000158  0.977524  0.0  0.105953  0.000133  0.978159  0.0  0.096021  0.104795  0.000171  0.977186  0.0
H  H28  1  0.29153727  0.82606436  0.72021063  1  0.084456  0.00018  0.933958  0.0  0.101878  0.000101  0.995754  0.0  0.103114  7.6e-05  0.995282  0.0  0.093455  0.101075  0.000123  0.995996  0.0
H  H29  1  0.29176941  0.32590298  0.77977329  1  0.084215  -0.000111  0.933937  0.0  0.101824  -0.000128  0.995674  0.0  0.103074  -7.1e-05  0.995183  0.0  0.093485  0.10103  -0.000188  0.995919  0.0
H  H30  1  0.70846308  0.17394029  0.27979005  1  0.084434  0.000179  0.933963  0.0  0.101853  0.000101  0.995747  0.0  0.103085  7.6e-05  0.995281  0.0  0.093435  0.101049  0.000123  0.995989  0.0
H  H31  1  0.70823582  0.67409916  0.22022437  1  0.084195  -0.000113  0.933823  0.0  0.101809  -0.000128  0.995538  0.0  0.103059  -7.1e-05  0.995045  0.0  0.093468  0.101013  -0.000187  0.995788  0.0
H  H32  1  0.42533451  0.04570492  0.73973987  1  0.072153  -0.000641  0.954257  0.0  0.090406  -0.000681  1.016001  0.0  0.091516  -0.000507  1.016107  0.0  0.086325  0.089735  -0.000811  1.015835  0.0
H  H33  1  0.42528955  0.54557936  0.76031472  1  0.072359  -0.000572  0.954104  0.0  0.090868  -0.000566  1.015606  0.0  0.092001  -0.000424  1.015667  0.0  0.086296  0.090175  -0.000689  1.01548  0.0
H  H34  1  0.57466828  0.95429848  0.26026202  1  0.072107  -0.000642  0.954318  0.0  0.090386  -0.00068  1.016014  0.0  0.091493  -0.000507  1.016123  0.0  0.08633  0.089713  -0.000811  1.01585  0.0
H  H35  1  0.57471106  0.45442276  0.23968476  1  0.072324  -0.000571  0.954186  0.0  0.09081  -0.000566  1.015684  0.0  0.091942  -0.000425  1.015745  0.0  0.086287  0.090117  -0.000688  1.015555  0.0
H  H36  1  0.65900046  0.90510309  0.79612398  1  0.076851  -4.6e-05  0.951073  0.0  0.091212  -0.000125  1.016496  0.0  0.091422  -9.3e-05  1.017639  0.0  0.084826  0.091013  -0.000157  1.015771  0.0
H  H37  1  0.65913903  0.40528548  0.70385984  1  0.076827  -4e-06  0.950989  0.0  0.09126  -7.1e-05  1.016499  0.0  0.091481  -5.4e-05  1.017642  0.0  0.084784  0.091065  -8.1e-05  1.015752  0.0
H  H38  1  0.34100042  0.09489650  0.20387670  1  0.076836  -3.5e-05  0.95108  0.0  0.091201  -0.000125  1.016506  0.0  0.091408  -9.3e-05  1.017646  0.0  0.084815  0.090998  -0.000156  1.015775  0.0
H  H39  1  0.34086439  0.59471919  0.29613843  1  0.076827  -1.1e-05  0.95092  0.0  0.091251  -7.1e-05  1.016436  0.0  0.09147  -5.4e-05  1.01758  0.0  0.084784  0.09106  -8.1e-05  1.015692  0.0
H  H40  1  0.64941832  0.79645444  0.70366413  1  0.065761  -0.000881  0.955115  0.0  0.083491  -0.000877  1.019888  0.0  0.08414  -0.000678  1.02034  0.0  0.08159  0.08309  -0.001018  1.019507  0.0
H  H41  1  0.64986895  0.29653433  0.79629027  1  0.065715  -0.000768  0.954902  0.0  0.083377  -0.000817  1.019787  0.0  0.084085  -0.00063  1.020196  0.0  0.081558  0.082947  -0.000958  1.019415  0.0
H  H42  1  0.35058075  0.20354768  0.29633535  1  0.065755  -0.000875  0.955086  0.0  0.083482  -0.000876  1.019871  0.0  0.084126  -0.000678  1.020324  0.0  0.081583  0.083079  -0.001018  1.019488  0.0
H  H43  1  0.35013346  0.70346527  0.20370740  1  0.065693  -0.000774  0.954957  0.0  0.083357  -0.000817  1.019844  0.0  0.084065  -0.00063  1.020252  0.0  0.081576  0.082929  -0.000957  1.019474  0.0
C  C44  1  0.85072813  0.08851873  0.60995476  1  -0.042051  -0.000421  3.604421  0.0  -0.115039  -0.000369  3.857582  0.0  -0.113248  -0.000158  3.869036  0.0  -0.059201  -0.116019  -0.000525  3.849872  -0.001
C  C45  1  0.85105052  0.58858778  0.89008672  1  -0.041681  -0.000921  3.603815  -0.001  -0.114826  -0.001065  3.856644  -0.001  -0.113048  -0.000805  3.868082  -0.001  -0.058868  -0.115861  -0.001273  3.84904  -0.001
C  C46  1  0.14927683  0.91148595  0.39004592  1  -0.04223  -0.000429  3.604554  0.0  -0.115098  -0.00037  3.857671  0.0  -0.113311  -0.000158  3.869133  0.0  -0.059223  -0.116078  -0.000525  3.849969  -0.001
C  C47  1  0.14894871  0.41140548  0.10991276  1  -0.041825  -0.000899  3.604019  -0.001  -0.11498  -0.001065  3.856904  -0.001  -0.113197  -0.000805  3.868342  -0.001  -0.058904  -0.116021  -0.001273  3.849296  -0.001
C  C48  1  0.43507848  0.97188228  0.61538150  1  -0.042791  0.001452  3.595156  0.001  -0.11516  0.000869  3.843977  0.001  -0.111556  0.000447  3.852157  0.0  -0.064268  -0.117194  0.001353  3.838124  0.001
C  C49  1  0.43542964  0.47166146  0.88465058  1  -0.043009  -0.001331  3.596294  -0.002  -0.114605  -0.000894  3.843786  -0.001  -0.111032  -0.000362  3.852058  0.0  -0.063493  -0.116473  -0.001525  3.837602  -0.002
C  C50  1  0.56492250  0.02812364  0.38461979  1  -0.042644  0.001446  3.595092  0.001  -0.115064  0.000869  3.843988  0.001  -0.111412  0.000447  3.852057  0.0  -0.064185  -0.117081  0.001353  3.838109  0.001
C  C51  1  0.56456778  0.52833433  0.11534829  1  -0.042955  -0.001319  3.596236  -0.002  -0.114519  -0.000894  3.84375  -0.001  -0.110948  -0.000363  3.852026  0.0  -0.063461  -0.116397  -0.001524  3.837571  -0.002
C  C52  1  0.86165509  0.06190106  0.70083381  1  -0.117786  -0.000597  3.663166  -0.001  -0.160097  -0.000502  3.925958  0.0  -0.161496  -0.000413  3.939198  0.0  -0.162681  -0.158895  -0.000578  3.916581  0.0
C  C53  1  0.86186091  0.56202412  0.79919780  1  -0.117882  0.000301  3.663056  0.0  -0.160045  3.1e-05  3.925551  0.0  -0.161444  0.000104  3.938819  0.0  -0.162631  -0.158824  -3.3e-05  3.916133  0.0
C  C54  1  0.13834860  0.93810107  0.29916687  1  -0.117835  -0.000582  3.663234  0.0  -0.160143  -0.000501  3.926012  0.0  -0.161548  -0.000414  3.93925  0.0  -0.16268  -0.158934  -0.000577  3.916608  0.0
C  C55  1  0.13813996  0.43797547  0.20080167  1  -0.117903  0.000301  3.662955  0.0  -0.160102  3.1e-05  3.925504  0.0  -0.161505  0.000104  3.938775  0.0  -0.162675  -0.158879  -3.2e-05  3.916089  0.0
C  C56  1  0.43988861  0.93974496  0.70608643  1  -0.121344  -0.001273  3.663907  -0.001  -0.162168  -0.001106  3.92603  -0.001  -0.163888  -0.000842  3.938645  -0.001  -0.16501  -0.160713  -0.001299  3.916867  -0.001
C  C57  1  0.44004638  0.43962349  0.79393681  1  -0.12103  -0.000244  3.663387  0.0  -0.162552  -0.000718  3.925889  0.0  -0.164278  -0.000473  3.938551  0.0  -0.16501  -0.161133  -0.000916  3.916634  -0.001
C  C58  1  0.56011110  0.06025843  0.29391485  1  -0.121295  -0.001267  3.663889  -0.001  -0.162066  -0.001106  3.925971  -0.001  -0.163808  -0.000841  3.938569  -0.001  -0.16499  -0.160621  -0.001299  3.916798  -0.001
C  C59  1  0.55995040  0.56037103  0.20606146  1  -0.121039  -0.00025  3.663358  0.0  -0.162458  -0.000717  3.925725  0.0  -0.164187  -0.000472  3.938395  0.0  -0.164997  -0.161031  -0.000916  3.916472  -0.001
C  C60  1  0.65259480  0.91553280  0.73024350  1  -0.116213  -0.000604  3.676431  0.0  -0.154739  -0.000931  3.937638  -0.001  -0.155245  -0.000687  3.951988  -0.001  -0.172827  -0.154211  -0.001087  3.927586  -0.001
C  C61  1  0.65281661  0.41560279  0.76975308  1  -0.116411  -0.00084  3.676061  -0.001  -0.155005  -0.000946  3.93747  -0.001  -0.155538  -0.000683  3.951774  -0.001  -0.173044  -0.154411  -0.001136  3.927338  -0.001
C  C62  1  0.34740454  0.08446679  0.26975658  1  -0.116161  -0.000644  3.67645  0.0  -0.154722  -0.000931  3.937709  -0.001  -0.155214  -0.000687  3.952039  -0.001  -0.172823  -0.154187  -0.001086  3.927638  -0.001
C  C63  1  0.34718336  0.58439807  0.23024458  1  -0.116347  -0.000812  3.676003  -0.001  -0.154967  -0.000946  3.937424  -0.001  -0.155499  -0.000683  3.951726  -0.001  -0.173022  -0.154394  -0.001136  3.927315  -0.001
N  N64  1  0.65810610  0.25378057  0.56202117  1  0.091419  0.007016  3.151833  0.002  0.058928  0.004246  3.47654  0.0  0.069291  0.001912  3.491728  -0.001  -0.04412  0.051604  0.007562  3.468109  0.004
N  N65  1  0.65816467  0.75368648  0.93798235  1  0.091114  -0.005252  3.153979  -0.002  0.058694  -0.003188  3.478039  -0.001  0.069096  -0.000189  3.493045  0.001  -0.044369  0.051268  -0.007541  3.469878  -0.005
N  N66  1  0.34189514  0.74622282  0.43797951  1  0.091391  0.007025  3.151786  0.002  0.058912  0.004246  3.476495  0.0  0.069272  0.001913  3.491697  -0.001  -0.04411  0.051587  0.007562  3.468066  0.004
N  N67  1  0.34183276  0.24630930  0.06201713  1  0.091045  -0.005253  3.154019  -0.002  0.05866  -0.003189  3.47806  -0.001  0.069061  -0.00019  3.493065  0.001  -0.044386  0.051233  -0.007543  3.46989  -0.005
N  N68  1  0.64335232  0.11019663  0.59149752  1  0.074424  -0.002161  3.392767  -0.001  0.194136  0.000529  3.584476  0.002  0.187086  -0.001148  3.602115  -0.001  -0.108142  0.198492  0.001923  3.572963  0.004
N  N69  1  0.64363422  0.61011267  0.90853852  1  0.073186  0.001925  3.393449  0.001  0.193207  -0.000836  3.584396  -0.002  0.186136  0.001052  3.602031  0.001  -0.109086  0.197611  -0.002298  3.572874  -0.004
N  N70  1  0.35664802  0.88980803  0.40850316  1  0.074438  -0.002188  3.392718  -0.001  0.194146  0.000531  3.58442  0.002  0.187075  -0.001149  3.602056  -0.001  -0.108172  0.198499  0.001924  3.572905  0.004
N  N71  1  0.35636193  0.38988058  0.09146216  1  0.073253  0.001921  3.3933  0.001  0.193252  -0.000836  3.584277  -0.002  0.186182  0.001054  3.601908  0.001  -0.109099  0.197659  -0.002298  3.572747  -0.004
Cl  Cl72  1  0.73475370  0.48075722  0.40145232  1  -0.387959  -0.001135  1.246855  -0.003  -0.388315  -0.005969  1.567579  -0.008  -0.431633  -0.005099  1.540656  -0.009  -0.220282  -0.36827  -0.010171  1.588068  -0.012
Cl  Cl73  1  0.73499822  0.98076852  0.09837424  1  -0.383715  -0.191569  1.249586  -0.219  -0.38525  -0.137122  1.570992  -0.165  -0.428774  -0.109601  1.544019  -0.139  -0.218649  -0.365596  -0.149661  1.591495  -0.174
Cl  Cl74  1  0.26524383  0.51924489  0.59854776  1  -0.387961  -0.001135  1.246853  -0.003  -0.388327  -0.005968  1.567597  -0.008  -0.431645  -0.005098  1.540674  -0.009  -0.220287  -0.368285  -0.010171  1.588088  -0.012
Cl  Cl75  1  0.26500074  0.01922727  0.90162463  1  -0.383739  -0.191567  1.24958  -0.219  -0.385261  -0.137121  1.570984  -0.165  -0.428785  -0.1096  1.544011  -0.139  -0.218678  -0.365611  -0.149653  1.591493  -0.174
Cl  Cl76  1  0.88399167  0.67245595  0.57643526  1  -0.487711  -0.104037  1.057692  -0.118  -0.492152  -0.074829  1.359614  -0.09  -0.526911  -0.061367  1.333183  -0.077  -0.286299  -0.47195  -0.080811  1.377565  -0.093
Cl  Cl77  1  0.88393426  0.17248283  0.92345904  1  -0.48616  -0.129024  1.056232  -0.149  -0.491675  -0.080692  1.358267  -0.099  -0.526561  -0.062337  1.331784  -0.081  -0.286362  -0.472085  -0.091388  1.376194  -0.108
Cl  Cl78  1  0.11600958  0.32754744  0.42356482  1  -0.487725  -0.104036  1.057711  -0.118  -0.492187  -0.074828  1.359668  -0.09  -0.526938  -0.061367  1.333221  -0.077  -0.286296  -0.471985  -0.080812  1.377617  -0.093
Cl  Cl79  1  0.11606316  0.82751295  0.07654104  1  -0.486159  -0.129022  1.056202  -0.149  -0.491657  -0.080691  1.358211  -0.099  -0.526532  -0.062337  1.33171  -0.081  -0.286366  -0.472066  -0.091391  1.376134  -0.108
O  O80  1  0.47398513  0.27065519  0.55029271  1  -0.362149  0.0898  2.069043  0.114  -0.34452  0.061229  2.368978  0.086  -0.387504  0.046493  2.377998  0.069  -0.165605  -0.317634  0.069205  2.364286  0.094
O  O81  1  0.47400125  0.77039818  0.94963798  1  -0.363562  -0.086154  2.069988  -0.111  -0.344615  -0.060787  2.368995  -0.086  -0.387351  -0.045097  2.37776  -0.068  -0.165641  -0.317961  -0.069955  2.36457  -0.094
O  O82  1  0.52601458  0.72934820  0.44970797  1  -0.362124  0.089814  2.069115  0.114  -0.344472  0.061226  2.36903  0.086  -0.387465  0.046492  2.378072  0.069  -0.165595  -0.317585  0.069206  2.364338  0.094
O  O83  1  0.52599681  0.22959887  0.05036029  1  -0.363482  -0.086168  2.070049  -0.111  -0.344611  -0.060787  2.369054  -0.086  -0.387347  -0.045097  2.377821  -0.068  -0.165634  -0.317956  -0.069964  2.36462  -0.094
