# generated using pymatgen
data_BaH8C6N8O5
_symmetry_space_group_name_H-M   'P 1'
_cell_length_a   6.88459197
_cell_length_b   6.88464891
_cell_length_c   13.23805958
_cell_angle_alpha   101.44103691
_cell_angle_beta   101.45742678
_cell_angle_gamma   103.71745137
_symmetry_Int_Tables_number   1
_chemical_formula_structural   BaH8C6N8O5
_chemical_formula_sum   'Ba2 H16 C12 N16 O10'
_cell_volume   577.21867542
_cell_formula_units_Z   2
loop_
 _symmetry_equiv_pos_site_id
 _symmetry_equiv_pos_as_xyz
  1  'x, y, z'
loop_
 _atom_site_type_symbol
 _atom_site_label
 _atom_site_symmetry_multiplicity
 _atom_site_fract_x
 _atom_site_fract_y
 _atom_site_fract_z
 _atom_site_occupancy
 _atom_site_hle17_bader_spin_density
 _atom_site_hle17_ddec_charge
 _atom_site_hle17_ddec_spin_density
 _atom_site_hle17_ddec_sum_bond_order
 _atom_site_hle17_magmom
 _atom_site_hse06_10hf_bader_spin_density
 _atom_site_hse06_10hf_ddec_charge
 _atom_site_hse06_10hf_ddec_spin_density
 _atom_site_hse06_10hf_ddec_sum_bond_order
 _atom_site_hse06_10hf_magmom
 _atom_site_hse06_bader_spin_density
 _atom_site_hse06_ddec_charge
 _atom_site_hse06_ddec_spin_density
 _atom_site_hse06_ddec_sum_bond_order
 _atom_site_hse06_magmom
 _atom_site_pbe_bader_spin_density
 _atom_site_pbe_cm5_charge
 _atom_site_pbe_ddec_charge
 _atom_site_pbe_ddec_spin_density
 _atom_site_pbe_ddec_sum_bond_order
 _atom_site_pbe_magmom
Ba  Ba0  1  0.84036434  0.84032804  0.00002300  1  0  1.561335  0  1.20433  0  0  1.391215  0  1.618896  0  0  1.429683  0  1.579269  0  0  0.951171  1.363152  0  1.64685  0
Ba  Ba1  1  0.09038065  0.59034067  0.49999882  1  0  1.561227  0  1.204553  0  0  1.391092  0  1.619171  0  0  1.429562  0  1.579533  0  0  0.951105  1.363055  0  1.647153  0
H  H2  1  0.67275558  0.29336581  0.02788248  1  0  0.345171  0  0.913994  0  0  0.327863  0  0.976884  0  0  0.335724  0  0.970069  0  0  0.309617  0.322262  0  0.98174  0
H  H3  1  0.26541096  0.64463333  0.97201706  1  0  0.345215  0  0.912995  0  0  0.327093  0  0.977228  0  0  0.335005  0  0.970354  0  0  0.309194  0.321456  0  0.982127  0
H  H4  1  0.89486530  0.01564030  0.47215158  1  0  0.34596  0  0.912907  0  0  0.327952  0  0.976796  0  0  0.33587  0  0.969908  0  0  0.309516  0.322328  0  0.981671  0
H  H5  1  0.54367503  0.42285949  0.52791065  1  0  0.345661  0  0.913779  0  0  0.328398  0  0.976534  0  0  0.33626  0  0.969702  0  0  0.30976  0.322802  0  0.981404  0
H  H6  1  0.49542860  0.06153901  0.95432841  1  0  0.333212  0  0.891028  0  0  0.316944  0  0.954799  0  0  0.324392  0  0.947898  0  0  0.315756  0.311603  0  0.959815  0
H  H7  1  0.10713209  0.54079330  0.04551070  1  0  0.333519  0  0.890955  0  0  0.317199  0  0.954642  0  0  0.324639  0  0.947744  0  0  0.315791  0.31185  0  0.959683  0
H  H8  1  0.79127578  0.85738431  0.54572125  1  0  0.333186  0  0.891274  0  0  0.316908  0  0.955011  0  0  0.324345  0  0.948132  0  0  0.315733  0.31157  0  0.960021  0
H  H9  1  0.31192816  0.24546649  0.45438007  1  0  0.333354  0  0.890814  0  0  0.317101  0  0.95456  0  0  0.324538  0  0.947678  0  0  0.315728  0.311775  0  0.959553  0
H  H10  1  0.29077001  0.25277275  0.06193714  1  0  0.395486  0  0.917045  0  0  0.356468  0  0.995524  0  0  0.367785  0  0.97895  0  0  0.286369  0.348457  0  1.007225  0
H  H11  1  0.19095901  0.22894403  0.93830196  1  0  0.396132  0  0.915995  0  0  0.35696  0  0.994768  0  0  0.368272  0  0.978198  0  0  0.28682  0.348954  0  1.006464  0
H  H12  1  0.47875694  0.94088662  0.43807120  1  0  0.396403  0  0.915772  0  0  0.357165  0  0.994506  0  0  0.368486  0  0.977925  0  0  0.28693  0.349154  0  1.006212  0
H  H13  1  0.50272335  0.04061767  0.56172655  1  0  0.395322  0  0.917239  0  0  0.356221  0  0.995776  0  0  0.367528  0  0.979215  0  0  0.286085  0.348211  0  1.007477  0
H  H14  1  0.48472929  0.95065116  0.74522719  1  0  0.31464  0  0.945583  0  0  0.288177  0  1.014401  0  0  0.299325  0  1.004949  0  0  0.317634  0.280314  0  1.021097  0
H  H15  1  0.20519473  0.73935166  0.25463846  1  0  0.31363  0  0.945877  0  0  0.286778  0  1.015374  0  0  0.297796  0  1.006187  0  0  0.317819  0.279011  0  1.021896  0
H  H16  1  0.98966533  0.95556566  0.75478849  1  0  0.313242  0  0.946134  0  0  0.28638  0  1.015525  0  0  0.297392  0  1.006335  0  0  0.317591  0.278599  0  1.022067  0
H  H17  1  0.20064145  0.23478116  0.24529635  1  0  0.314743  0  0.944753  0  0  0.288364  0  1.013431  0  0  0.299456  0  1.004097  0  0  0.317783  0.280496  0  1.02014  0
C  C18  1  0.64666619  0.23404821  0.87077579  1  0  0.599401  0  3.807142  0  0  0.546421  0  4.095619  0  0  0.569821  0  4.103339  0  0  0.345853  0.530735  0  4.089959  0
C  C19  1  0.36313094  0.77562803  0.12912170  1  0  0.603221  0  3.802049  0  0  0.549295  0  4.091357  0  0  0.572631  0  4.099099  0  0  0.347152  0.533659  0  4.08567  0
C  C20  1  0.02599408  0.11348981  0.62927008  1  0  0.602917  0  3.801861  0  0  0.549097  0  4.090788  0  0  0.572389  0  4.098614  0  0  0.347197  0.533502  0  4.085054  0
C  C21  1  0.48422345  0.39673177  0.37079462  1  0  0.599301  0  3.807111  0  0  0.54608  0  4.095763  0  0  0.569489  0  4.103501  0  0  0.345965  0.530391  0  4.090103  0
C  C22  1  0.72616966  0.40728263  0.76136528  1  0  0.176337  0  3.811188  0  0  0.153801  0  4.101526  0  0  0.159989  0  4.115396  0  0  0.204747  0.149757  0  4.092036  0
C  C23  1  0.64574981  0.96463209  0.23862369  1  0  0.174387  0  3.811493  0  0  0.151948  0  4.102049  0  0  0.158072  0  4.115998  0  0  0.202816  0.147869  0  4.092626  0
C  C24  1  0.21468781  0.39621564  0.73876453  1  0  0.175286  0  3.809739  0  0  0.152282  0  4.100741  0  0  0.158474  0  4.114568  0  0  0.203007  0.148204  0  4.091316  0
C  C25  1  0.65729028  0.47591924  0.26127675  1  0  0.177095  0  3.810098  0  0  0.15398  0  4.101086  0  0  0.160178  0  4.11494  0  0  0.205011  0.14993  0  4.091603  0
C  C26  1  0.81164088  0.58959287  0.72207900  1  0  0.635557  0  3.920116  0  0  0.58246  0  4.226938  0  0  0.616134  0  4.215478  0  0  0.232812  0.559498  0  4.234163  0
C  C27  1  0.86736143  0.08942792  0.27794404  1  0  0.634277  0  3.921086  0  0  0.580677  0  4.228518  0  0  0.614358  0  4.217139  0  0  0.232589  0.557735  0  4.235697  0
C  C28  1  0.33945917  0.61781460  0.77805834  1  0  0.633028  0  3.921717  0  0  0.580017  0  4.228363  0  0  0.613686  0  4.216989  0  0  0.232478  0.557072  0  4.235526  0
C  C29  1  0.83959353  0.56135578  0.22198798  1  0  0.635939  0  3.920554  0  0  0.583033  0  4.22724  0  0  0.616706  0  4.215778  0  0  0.233181  0.560071  0  4.234469  0
N  N30  1  0.62013536  0.21890213  0.69911512  1  0  -0.237226  0  2.948062  0  0  -0.218525  0  3.218911  0  0  -0.225127  0  3.232206  0  0  -0.208395  -0.213944  0  3.209959  0
N  N31  1  0.51955610  0.92086151  0.30081313  1  0  -0.237955  0  2.948363  0  0  -0.21939  0  3.219111  0  0  -0.226003  0  3.232415  0  0  -0.208595  -0.214777  0  3.210194  0
N  N32  1  0.17092955  0.27001304  0.80097549  1  0  -0.237202  0  2.945915  0  0  -0.218613  0  3.216666  0  0  -0.225221  0  3.229943  0  0  -0.208196  -0.213983  0  3.20773  0
N  N33  1  0.46883616  0.36989772  0.19909054  1  0  -0.237313  0  2.947949  0  0  -0.218454  0  3.218964  0  0  -0.22505  0  3.232251  0  0  -0.208248  -0.213861  0  3.209994  0
N  N34  1  0.74714356  0.42380031  0.86790707  1  0  -0.562936  0  3.016985  0  0  -0.517196  0  3.291142  0  0  -0.536283  0  3.30286  0  0  -0.392776  -0.504235  0  3.28302  0
N  N35  1  0.55580474  0.87902874  0.13207140  1  0  -0.564226  0  3.017112  0  0  -0.518253  0  3.291573  0  0  -0.537328  0  3.303385  0  0  -0.392579  -0.505277  0  3.283406  0
N  N36  1  0.12924967  0.30618049  0.63220976  1  0  -0.564585  0  3.016946  0  0  -0.518583  0  3.291568  0  0  -0.537676  0  3.303381  0  0  -0.393012  -0.505615  0  3.283396  0
N  N37  1  0.67393652  0.49706625  0.36784263  1  0  -0.562702  0  3.017012  0  0  -0.516729  0  3.291322  0  0  -0.535829  0  3.303057  0  0  -0.39278  -0.503768  0  3.283206  0
N  N38  1  0.63028975  0.17038171  0.96119190  1  0  -0.749449  0  3.073158  0  0  -0.711291  0  3.314864  0  0  -0.730724  0  3.30713  0  0  -0.610766  -0.697498  0  3.319939  0
N  N39  1  0.20909651  0.66883534  0.03868556  1  0  -0.74971  0  3.071794  0  0  -0.710586  0  3.314457  0  0  -0.730057  0  3.30669  0  0  -0.609534  -0.696762  0  3.319554  0
N  N40  1  0.91924204  0.95939060  0.53884918  1  0  -0.749765  0  3.071377  0  0  -0.710799  0  3.313783  0  0  -0.730262  0  3.306038  0  0  -0.609486  -0.69697  0  3.318876  0
N  N41  1  0.42063848  0.38042322  0.46122650  1  0  -0.750101  0  3.072974  0  0  -0.711829  0  3.314668  0  0  -0.73127  0  3.306947  0  0  -0.610625  -0.698036  0  3.319738  0
N  N42  1  0.57177063  0.10969227  0.77029861  1  0  -0.285811  0  3.341133  0  0  -0.224277  0  3.585591  0  0  -0.241339  0  3.597704  0  0  -0.265961  -0.212875  0  3.577419  0
N  N43  1  0.33918323  0.80127036  0.22958038  1  0  -0.284903  0  3.338172  0  0  -0.222418  0  3.582644  0  0  -0.239342  0  3.594858  0  0  -0.266224  -0.211141  0  3.574434  0
N  N44  1  0.05153979  0.08957204  0.72974665  1  0  -0.284859  0  3.338295  0  0  -0.222177  0  3.582404  0  0  -0.239072  0  3.594596  0  0  -0.266111  -0.210924  0  3.574215  0
N  N45  1  0.35971368  0.32172567  0.27032800  1  0  -0.285504  0  3.340252  0  0  -0.223927  0  3.584715  0  0  -0.240923  0  3.596774  0  0  -0.266073  -0.212524  0  3.576542  0
O  O46  1  0.79873295  0.56808951  0.62346711  1  0  -0.666494  0  1.992963  0  0  -0.608348  0  2.23241  0  0  -0.632001  0  2.222037  0  0  -0.345893  -0.59187  0  2.239246  0
O  O47  1  0.94447054  0.17514464  0.37655738  1  0  -0.665042  0  1.992405  0  0  -0.605928  0  2.231338  0  0  -0.629557  0  2.220976  0  0  -0.34541  -0.58947  0  2.238164  0
O  O48  1  0.42524912  0.69496840  0.87665731  1  0  -0.664042  0  1.993578  0  0  -0.605104  0  2.232343  0  0  -0.628748  0  2.222001  0  0  -0.345157  -0.588629  0  2.239146  0
O  O49  1  0.81808405  0.54834683  0.12335833  1  0  -0.666872  0  1.992843  0  0  -0.608472  0  2.231879  0  0  -0.632121  0  2.221513  0  0  -0.346135  -0.591981  0  2.238699  0
O  O50  1  0.89463615  0.75977046  0.79447007  1  0  -0.64395  0  2.001387  0  0  -0.585591  0  2.236618  0  0  -0.610386  0  2.226665  0  0  -0.348677  -0.568203  0  2.24307  0
O  O51  1  0.96510772  0.10011537  0.20556918  1  0  -0.645459  0  2.002773  0  0  -0.587149  0  2.238076  0  0  -0.612028  0  2.22823  0  0  -0.349506  -0.569695  0  2.244468  0
O  O52  1  0.34998307  0.71547261  0.70562911  1  0  -0.645293  0  2.003162  0  0  -0.586982  0  2.238031  0  0  -0.611893  0  2.228188  0  0  -0.349606  -0.569538  0  2.244418  0
O  O53  1  0.00970726  0.64446257  0.29439676  1  0  -0.644116  0  2.002947  0  0  -0.585797  0  2.238101  0  0  -0.610613  0  2.228199  0  0  -0.348629  -0.568402  0  2.244494  0
O  O54  1  0.17191791  0.17193838  0.00010548  1  0  -0.869376  0  1.81189  0  0  -0.80561  0  1.994335  0  0  -0.824733  0  1.961481  0  0  -0.632562  -0.791866  0  2.017323  0
O  O55  1  0.42174998  0.92190480  0.49988513  1  0  -0.869293  0  1.811792  0  0  -0.805341  0  1.994904  0  0  -0.824399  0  1.961957  0  0  -0.632276  -0.791625  0  2.017987  0
