# generated using pymatgen
data_CuPH10C7S2NO2
_symmetry_space_group_name_H-M   'P 1'
_cell_length_a   5.67964663
_cell_length_b   9.37616919
_cell_length_c   20.36846462
_cell_angle_alpha   101.93915525
_cell_angle_beta   89.99968610
_cell_angle_gamma   90.00039056
_symmetry_Int_Tables_number   1
_chemical_formula_structural   CuPH10C7S2NO2
_chemical_formula_sum   'Cu4 P4 H40 C28 S8 N4 O8'
_cell_volume   1061.22436491
_cell_formula_units_Z   4
loop_
 _symmetry_equiv_pos_site_id
 _symmetry_equiv_pos_as_xyz
  1  'x, y, z'
loop_
 _atom_site_type_symbol
 _atom_site_label
 _atom_site_symmetry_multiplicity
 _atom_site_fract_x
 _atom_site_fract_y
 _atom_site_fract_z
 _atom_site_occupancy
 _atom_site_hle17_bader_spin_density
 _atom_site_hle17_ddec_charge
 _atom_site_hle17_ddec_spin_density
 _atom_site_hle17_ddec_sum_bond_order
 _atom_site_hle17_magmom
 _atom_site_hse06_10hf_bader_spin_density
 _atom_site_hse06_10hf_ddec_charge
 _atom_site_hse06_10hf_ddec_spin_density
 _atom_site_hse06_10hf_ddec_sum_bond_order
 _atom_site_hse06_10hf_magmom
 _atom_site_hse06_bader_spin_density
 _atom_site_hse06_ddec_charge
 _atom_site_hse06_ddec_spin_density
 _atom_site_hse06_ddec_sum_bond_order
 _atom_site_hse06_magmom
 _atom_site_pbe_bader_spin_density
 _atom_site_pbe_cm5_charge
 _atom_site_pbe_ddec_charge
 _atom_site_pbe_ddec_spin_density
 _atom_site_pbe_ddec_sum_bond_order
 _atom_site_pbe_magmom
Cu  Cu0  1  0.04054989  0.27550263  0.81728440  1  0  0.410398  0  2.222952  0  0  0.341616  0  2.722662  0  0  0.331284  0  2.688257  0  0  0.395466  0.353169  0  2.74231  0
Cu  Cu1  1  0.54053813  0.22449257  0.68271707  1  0  0.410328  0  2.222939  0  0  0.341484  0  2.722656  0  0  0.33114  0  2.688226  0  0  0.395436  0.353032  0  2.742295  0
Cu  Cu2  1  0.95945993  0.72450553  0.18271537  1  0  0.410424  0  2.223077  0  0  0.341627  0  2.722804  0  0  0.331282  0  2.688391  0  0  0.395527  0.353176  0  2.742447  0
Cu  Cu3  1  0.45944879  0.77549943  0.31728524  1  0  0.410358  0  2.223138  0  0  0.341547  0  2.72285  0  0  0.331186  0  2.688432  0  0  0.395496  0.353109  0  2.742499  0
P  P4  1  0.55796542  0.50416648  0.82355515  1  0  1.008872  0  4.733923  0  0  0.902015  0  5.237565  0  0  0.945799  0  5.213084  0  0  0.260261  0.871853  0  5.253234  0
P  P5  1  0.05795821  0.99583082  0.67644799  1  0  1.008951  0  4.734021  0  0  0.902076  0  5.23765  0  0  0.945859  0  5.213172  0  0  0.260285  0.871902  0  5.253339  0
P  P6  1  0.44204792  0.49583307  0.17644634  1  0  1.008915  0  4.734078  0  0  0.902082  0  5.237681  0  0  0.945868  0  5.213201  0  0  0.260239  0.871906  0  5.253369  0
P  P7  1  0.94203576  0.00417216  0.32355723  1  0  1.008942  0  4.733819  0  0  0.902114  0  5.237489  0  0  0.945894  0  5.21301  0  0  0.260294  0.871946  0  5.253157  0
H  H8  1  0.96784923  0.40441384  0.68366591  1  0  0.084534  0  0.972567  0  0  0.093021  0  1.039313  0  0  0.096202  0  1.035852  0  0  0.103486  0.090255  0  1.042347  0
H  H9  1  0.46785710  0.09558826  0.81633558  1  0  0.084606  0  0.972879  0  0  0.093147  0  1.039585  0  0  0.096288  0  1.036163  0  0  0.103528  0.090358  0  1.042647  0
H  H10  1  0.03214650  0.59558892  0.31633437  1  0  0.084625  0  0.972892  0  0  0.093155  0  1.039607  0  0  0.096303  0  1.036177  0  0  0.103532  0.090363  0  1.042678  0
H  H11  1  0.53215448  0.90439610  0.18366608  1  0  0.084489  0  0.972548  0  0  0.093016  0  1.039284  0  0  0.096177  0  1.035846  0  0  0.103486  0.090251  0  1.042319  0
H  H12  1  0.18676874  0.52455488  0.60695733  1  0  0.099508  0  0.969694  0  0  0.110899  0  1.030466  0  0  0.114305  0  1.028824  0  0  0.105205  0.108352  0  1.032021  0
H  H13  1  0.68677479  0.97544806  0.89304071  1  0  0.099458  0  0.969743  0  0  0.110852  0  1.030516  0  0  0.114263  0  1.028862  0  0  0.105185  0.108302  0  1.032079  0
H  H14  1  0.81322699  0.47545446  0.39304450  1  0  0.099477  0  0.969694  0  0  0.110829  0  1.03052  0  0  0.114238  0  1.028875  0  0  0.105181  0.108281  0  1.032074  0
H  H15  1  0.31322270  0.02453151  0.10695120  1  0  0.099496  0  0.969734  0  0  0.110857  0  1.030549  0  0  0.114267  0  1.028901  0  0  0.105209  0.10831  0  1.032097  0
H  H16  1  0.64977713  0.37277253  0.45747192  1  0  0.097904  0  0.969124  0  0  0.109265  0  1.030489  0  0  0.112404  0  1.029526  0  0  0.10541  0.106977  0  1.031277  0
H  H17  1  0.14978427  0.12720562  0.04253119  1  0  0.097863  0  0.969095  0  0  0.109204  0  1.030478  0  0  0.112349  0  1.029507  0  0  0.105415  0.10689  0  1.031297  0
H  H18  1  0.35022388  0.62721628  0.54253209  1  0  0.097801  0  0.969008  0  0  0.109165  0  1.0304  0  0  0.112303  0  1.02944  0  0  0.105394  0.106859  0  1.03121  0
H  H19  1  0.85022907  0.87277455  0.95747354  1  0  0.097855  0  0.969108  0  0  0.109216  0  1.030487  0  0  0.112355  0  1.029523  0  0  0.105366  0.106953  0  1.03125  0
H  H20  1  0.45295168  0.26000737  0.54174052  1  0  0.076224  0  0.96827  0  0  0.089108  0  1.029436  0  0  0.091391  0  1.027679  0  0  0.106594  0.087324  0  1.030944  0
H  H21  1  0.95295350  0.23998710  0.95826132  1  0  0.07623  0  0.967802  0  0  0.08899  0  1.029143  0  0  0.091266  0  1.0274  0  0  0.10654  0.087197  0  1.030661  0
H  H22  1  0.54704757  0.73998224  0.45825717  1  0  0.076299  0  0.968024  0  0  0.089099  0  1.029314  0  0  0.091391  0  1.027536  0  0  0.106572  0.08731  0  1.030824  0
H  H23  1  0.04705103  0.76001693  0.04174300  1  0  0.076282  0  0.968283  0  0  0.089088  0  1.029547  0  0  0.091367  0  1.027801  0  0  0.106546  0.087298  0  1.031055  0
H  H24  1  0.92924242  0.73553801  0.75340797  1  0  0.110768  0  0.941885  0  0  0.128347  0  0.999877  0  0  0.129585  0  0.999467  0  0  0.106615  0.127393  0  1.000154  0
H  H25  1  0.42923269  0.76443959  0.74658758  1  0  0.110708  0  0.941886  0  0  0.128335  0  0.999819  0  0  0.129571  0  0.999408  0  0  0.10663  0.12738  0  1.000097  0
H  H26  1  0.07076035  0.26444601  0.24658629  1  0  0.110646  0  0.942088  0  0  0.128341  0  0.999923  0  0  0.12959  0  0.999507  0  0  0.106605  0.127388  0  1.0002  0
H  H27  1  0.57075776  0.23554565  0.25340973  1  0  0.110668  0  0.941944  0  0  0.128298  0  0.999882  0  0  0.129535  0  0.999472  0  0  0.10658  0.127347  0  1.000159  0
H  H28  1  0.03036306  0.63648509  0.81464820  1  0  0.090075  0  0.985167  0  0  0.102721  0  1.05693  0  0  0.103578  0  1.057313  0  0  0.090886  0.101997  0  1.056691  0
H  H29  1  0.53036699  0.86352311  0.68535787  1  0  0.090157  0  0.985036  0  0  0.102763  0  1.056845  0  0  0.103621  0  1.057229  0  0  0.090931  0.102039  0  1.056607  0
H  H30  1  0.96962915  0.36352441  0.18535708  1  0  0.090096  0  0.985172  0  0  0.102703  0  1.056979  0  0  0.103558  0  1.057367  0  0  0.090918  0.101977  0  1.056746  0
H  H31  1  0.46962521  0.13649189  0.31464887  1  0  0.090111  0  0.985067  0  0  0.102756  0  1.056833  0  0  0.103612  0  1.057211  0  0  0.090927  0.102033  0  1.056597  0
H  H32  1  0.80830114  0.77606264  0.83606626  1  0  0.074255  0  0.957369  0  0  0.08972  0  1.027789  0  0  0.090746  0  1.026101  0  0  0.092825  0.089019  0  1.028822  0
H  H33  1  0.30831209  0.72393288  0.66392657  1  0  0.074317  0  0.957333  0  0  0.089782  0  1.027749  0  0  0.090825  0  1.026047  0  0  0.092904  0.089085  0  1.028779  0
H  H34  1  0.19167346  0.22393662  0.16392882  1  0  0.074248  0  0.95722  0  0  0.089667  0  1.027745  0  0  0.090704  0  1.026045  0  0  0.092786  0.088969  0  1.028775  0
H  H35  1  0.69169773  0.27606842  0.33606574  1  0  0.074276  0  0.957222  0  0  0.089726  0  1.027681  0  0  0.090748  0  1.025996  0  0  0.092841  0.089027  0  1.028711  0
H  H36  1  0.25602766  0.74605614  0.95294907  1  0  0.07917  0  0.958525  0  0  0.097182  0  1.023106  0  0  0.096794  0  1.0242  0  0  0.09484  0.097541  0  1.022279  0
H  H37  1  0.75601920  0.75394404  0.54705454  1  0  0.079194  0  0.958483  0  0  0.097172  0  1.023126  0  0  0.096781  0  1.024222  0  0  0.094828  0.097543  0  1.022283  0
H  H38  1  0.74398391  0.25395851  0.04705027  1  0  0.079147  0  0.958504  0  0  0.097144  0  1.023116  0  0  0.096758  0  1.024206  0  0  0.094865  0.097503  0  1.0223  0
H  H39  1  0.24399237  0.24606286  0.45294168  1  0  0.079141  0  0.958428  0  0  0.097086  0  1.023105  0  0  0.096696  0  1.0242  0  0  0.09481  0.097453  0  1.022269  0
H  H40  1  0.45694412  0.60699305  0.96601426  1  0  0.080566  0  0.968055  0  0  0.094539  0  1.038315  0  0  0.094773  0  1.039734  0  0  0.086556  0.094409  0  1.037047  0
H  H41  1  0.95699042  0.89299502  0.53399394  1  0  0.080653  0  0.968024  0  0  0.094642  0  1.038225  0  0  0.09487  0  1.039649  0  0  0.086579  0.094518  0  1.036946  0
H  H42  1  0.54300935  0.39300011  0.03398962  1  0  0.080593  0  0.967944  0  0  0.094577  0  1.038181  0  0  0.094803  0  1.039604  0  0  0.086584  0.094454  0  1.036907  0
H  H43  1  0.04305108  0.10699932  0.46601201  1  0  0.080553  0  0.968077  0  0  0.094534  0  1.038337  0  0  0.094767  0  1.039754  0  0  0.086551  0.094405  0  1.037068  0
H  H44  1  0.17565211  0.55771777  0.92660430  1  0  0.079908  0  0.977394  0  0  0.092608  0  1.053789  0  0  0.094298  0  1.051995  0  0  0.082921  0.091113  0  1.055338  0
H  H45  1  0.67567349  0.94229264  0.57339195  1  0  0.079935  0  0.97751  0  0  0.092684  0  1.053826  0  0  0.094375  0  1.052032  0  0  0.082917  0.091195  0  1.055367  0
H  H46  1  0.82431369  0.44230532  0.07338988  1  0  0.079912  0  0.977556  0  0  0.092691  0  1.053856  0  0  0.094381  0  1.052062  0  0  0.082918  0.091204  0  1.055399  0
H  H47  1  0.32434513  0.05772132  0.42659260  1  0  0.079773  0  0.977665  0  0  0.092598  0  1.053947  0  0  0.09429  0  1.05215  0  0  0.082915  0.091103  0  1.055501  0
C  C48  1  0.90173649  0.40103665  0.63317738  1  0  0.147208  0  3.67452  0  0  0.117481  0  3.923993  0  0  0.125245  0  3.937468  0  0  0.043791  0.111991  0  3.916268  0
C  C49  1  0.40175915  0.09896050  0.86681592  1  0  0.147309  0  3.673453  0  0  0.117465  0  3.923075  0  0  0.125277  0  3.936551  0  0  0.043909  0.111977  0  3.915396  0
C  C50  1  0.09826100  0.59897443  0.36681527  1  0  0.147142  0  3.673945  0  0  0.117279  0  3.923524  0  0  0.125075  0  3.937001  0  0  0.043862  0.111812  0  3.915834  0
C  C51  1  0.59828412  0.90103431  0.13317681  1  0  0.147434  0  3.674308  0  0  0.117616  0  3.923839  0  0  0.125388  0  3.937324  0  0  0.043911  0.112119  0  3.916116  0
C  C52  1  0.02331477  0.46933773  0.58927321  1  0  -0.143575  0  3.685882  0  0  -0.164126  0  3.935529  0  0  -0.170505  0  3.953853  0  0  -0.080439  -0.161111  0  3.924676  0
C  C53  1  0.52334153  0.03066730  0.91073109  1  0  -0.143376  0  3.68565  0  0  -0.163905  0  3.935315  0  0  -0.170275  0  3.95363  0  0  -0.08039  -0.160892  0  3.924465  0
C  C54  1  0.97667568  0.53066198  0.41073173  1  0  -0.143516  0  3.685098  0  0  -0.163988  0  3.934805  0  0  -0.170365  0  3.95312  0  0  -0.080492  -0.160969  0  3.923939  0
C  C55  1  0.47670173  0.96934109  0.08927360  1  0  -0.143584  0  3.685794  0  0  -0.164065  0  3.935426  0  0  -0.170442  0  3.953748  0  0  -0.080455  -0.161045  0  3.924557  0
C  C56  1  0.93801496  0.46429018  0.52404539  1  0  0.078056  0  3.767864  0  0  0.089304  0  4.000833  0  0  0.094452  0  4.020593  0  0  0.00464  0.085786  0  3.987938  0
C  C57  1  0.43801513  0.03570296  0.97595242  1  0  0.077972  0  3.767938  0  0  0.089288  0  4.000814  0  0  0.094417  0  4.020608  0  0  0.00463  0.08577  0  3.987913  0
C  C58  1  0.06198781  0.53572248  0.47595771  1  0  0.078101  0  3.768286  0  0  0.089335  0  4.001262  0  0  0.094475  0  4.021034  0  0  0.004559  0.085811  0  3.98837  0
C  C59  1  0.56198236  0.96427461  0.02404325  1  0  0.078073  0  3.768397  0  0  0.089295  0  4.001314  0  0  0.09444  0  4.021082  0  0  0.004536  0.085773  0  3.988421  0
C  C60  1  0.72803330  0.38543066  0.50706841  1  0  -0.158122  0  3.73079  0  0  -0.177685  0  3.980268  0  0  -0.184718  0  4.000895  0  0  -0.08555  -0.172851  0  3.966359  0
C  C61  1  0.22803580  0.11458127  0.99292884  1  0  -0.158264  0  3.73151  0  0  -0.177825  0  3.980947  0  0  -0.184858  0  4.001577  0  0  -0.085617  -0.172993  0  3.967063  0
C  C62  1  0.27194835  0.61455540  0.49292307  1  0  -0.158063  0  3.731782  0  0  -0.177626  0  3.981252  0  0  -0.184661  0  4.001893  0  0  -0.085466  -0.172781  0  3.967351  0
C  C63  1  0.77195289  0.88544210  0.00707125  1  0  -0.158118  0  3.73085  0  0  -0.177662  0  3.980333  0  0  -0.184693  0  4.000962  0  0  -0.085482  -0.172858  0  3.966421  0
C  C64  1  0.61643919  0.32065189  0.55391866  1  0  0.109378  0  3.716345  0  0  0.082846  0  3.96233  0  0  0.08914  0  3.977536  0  0  0.034862  0.07828  0  3.953389  0
C  C65  1  0.11648574  0.17932965  0.94608694  1  0  0.109749  0  3.717044  0  0  0.08336  0  3.963003  0  0  0.089654  0  3.978221  0  0  0.03504  0.07888  0  3.953941  0
C  C66  1  0.38353893  0.67933155  0.44608636  1  0  0.109444  0  3.716556  0  0  0.082972  0  3.962526  0  0  0.08926  0  3.977742  0  0  0.034861  0.078443  0  3.953564  0
C  C67  1  0.88357865  0.82066160  0.05392267  1  0  0.109401  0  3.715969  0  0  0.082897  0  3.961977  0  0  0.089188  0  3.977173  0  0  0.034866  0.078358  0  3.953001  0
C  C68  1  0.87888643  0.68924081  0.79637530  1  0  -0.04247  0  3.572216  0  0  -0.135493  0  3.829729  0  0  -0.128401  0  3.83243  0  0  -0.142334  -0.139985  0  3.827561  0
C  C69  1  0.37888699  0.81075086  0.70362300  1  0  -0.042479  0  3.571944  0  0  -0.135532  0  3.829531  0  0  -0.128449  0  3.832214  0  0  -0.1424  -0.140028  0  3.827366  0
C  C70  1  0.12110754  0.31075861  0.20362323  1  0  -0.04235  0  3.572156  0  0  -0.135365  0  3.829667  0  0  -0.12829  0  3.832376  0  0  -0.142313  -0.139867  0  3.827502  0
C  C71  1  0.62111050  0.18924313  0.29637556  1  0  -0.042458  0  3.57191  0  0  -0.135488  0  3.829502  0  0  -0.12839  0  3.832202  0  0  -0.142374  -0.139992  0  3.827338  0
C  C72  1  0.32184822  0.63609355  0.93254345  1  0  -0.041569  0  3.619209  0  0  -0.136385  0  3.879464  0  0  -0.129434  0  3.883246  0  0  -0.146559  -0.140902  0  3.876559  0
C  C73  1  0.82184592  0.86390649  0.56745220  1  0  -0.041698  0  3.619199  0  0  -0.136518  0  3.879365  0  0  -0.129561  0  3.883139  0  0  -0.146545  -0.141037  0  3.876472  0
C  C74  1  0.67814398  0.36391552  0.06745247  1  0  -0.041579  0  3.61921  0  0  -0.136428  0  3.879441  0  0  -0.129469  0  3.883216  0  0  -0.146608  -0.140959  0  3.876549  0
C  C75  1  0.17815686  0.13610035  0.43254254  1  0  -0.041287  0  3.619078  0  0  -0.136177  0  3.879296  0  0  -0.129225  0  3.883076  0  0  -0.146476  -0.1407  0  3.876401  0
S  S76  1  0.32423425  0.37989970  0.76189713  1  0  -0.564187  0  2.63097  0  0  -0.535498  0  3.138638  0  0  -0.540528  0  3.103347  0  0  -0.242772  -0.531999  0  3.160204  0
S  S77  1  0.82425351  0.12010610  0.73810143  1  0  -0.564252  0  2.631145  0  0  -0.535576  0  3.138826  0  0  -0.540596  0  3.103521  0  0  -0.242755  -0.532076  0  3.160405  0
S  S78  1  0.67575443  0.62010852  0.23810411  1  0  -0.564224  0  2.630959  0  0  -0.535585  0  3.13869  0  0  -0.540604  0  3.103387  0  0  -0.24278  -0.532079  0  3.160252  0
S  S79  1  0.17576159  0.87990215  0.26190031  1  0  -0.564274  0  2.630967  0  0  -0.535603  0  3.138641  0  0  -0.540619  0  3.103336  0  0  -0.2428  -0.532112  0  3.160227  0
S  S80  1  0.76436794  0.41867966  0.88406231  1  0  -0.579172  0  2.217472  0  0  -0.537063  0  2.612618  0  0  -0.550804  0  2.593693  0  0  -0.221556  -0.527929  0  2.624224  0
S  S81  1  0.26436413  0.08130860  0.61593680  1  0  -0.579123  0  2.217514  0  0  -0.537017  0  2.612638  0  0  -0.550751  0  2.593704  0  0  -0.221511  -0.527876  0  2.62424  0
S  S82  1  0.23564364  0.58132548  0.11594260  1  0  -0.579172  0  2.217606  0  0  -0.537071  0  2.612744  0  0  -0.550807  0  2.593817  0  0  -0.221531  -0.527933  0  2.624358  0
S  S83  1  0.73562808  0.91868112  0.38406336  1  0  -0.579178  0  2.217464  0  0  -0.537059  0  2.612569  0  0  -0.550795  0  2.593636  0  0  -0.221547  -0.527919  0  2.624163  0
N  N84  1  0.69902468  0.32765276  0.61657855  1  0  -0.273686  0  3.33663  0  0  -0.206896  0  3.625006  0  0  -0.214158  0  3.631322  0  0  -0.356531  -0.203524  0  3.621413  0
N  N85  1  0.19901440  0.17235088  0.88342933  1  0  -0.274126  0  3.335995  0  0  -0.207415  0  3.624545  0  0  -0.214691  0  3.630869  0  0  -0.356777  -0.204081  0  3.620988  0
N  N86  1  0.30097809  0.67236855  0.38342382  1  0  -0.273767  0  3.336279  0  0  -0.206909  0  3.624661  0  0  -0.214159  0  3.63096  0  0  -0.356586  -0.203584  0  3.621108  0
N  N87  1  0.80097077  0.82764484  0.11658312  1  0  -0.273839  0  3.336829  0  0  -0.207029  0  3.625278  0  0  -0.214272  0  3.631572  0  0  -0.35658  -0.203664  0  3.621688  0
O  O88  1  0.69703848  0.58305390  0.77237096  1  0  -0.407322  0  2.34885  0  0  -0.32086  0  2.602442  0  0  -0.34273  0  2.599764  0  0  -0.213673  -0.305803  0  2.603811  0
O  O89  1  0.19704154  0.91693498  0.72762734  1  0  -0.407432  0  2.348681  0  0  -0.320941  0  2.602275  0  0  -0.342811  0  2.599592  0  0  -0.213775  -0.305872  0  2.603639  0
O  O90  1  0.30296429  0.41694016  0.22762908  1  0  -0.407345  0  2.348713  0  0  -0.320963  0  2.602381  0  0  -0.342837  0  2.599711  0  0  -0.213717  -0.305896  0  2.603748  0
O  O91  1  0.80294715  0.08305247  0.27237065  1  0  -0.407323  0  2.348643  0  0  -0.320935  0  2.602315  0  0  -0.342808  0  2.599641  0  0  -0.213699  -0.305867  0  2.603674  0
O  O92  1  0.42212985  0.64305297  0.86818559  1  0  -0.416702  0  2.312266  0  0  -0.326581  0  2.558399  0  0  -0.348631  0  2.556431  0  0  -0.224918  -0.311271  0  2.559225  0
O  O93  1  0.92209085  0.85694555  0.63181668  1  0  -0.416803  0  2.31198  0  0  -0.326669  0  2.558094  0  0  -0.348722  0  2.556127  0  0  -0.225006  -0.311356  0  2.558928  0
O  O94  1  0.57789053  0.35694863  0.13181313  1  0  -0.416738  0  2.312159  0  0  -0.326601  0  2.558266  0  0  -0.348655  0  2.556297  0  0  -0.224902  -0.31128  0  2.559098  0
O  O95  1  0.07785910  0.14306379  0.36818516  1  0  -0.416804  0  2.312108  0  0  -0.326688  0  2.558269  0  0  -0.34874  0  2.556301  0  0  -0.224935  -0.311375  0  2.559101  0
