# generated using pymatgen
data_NiH5C5N2ClO3
_symmetry_space_group_name_H-M   'P 1'
_cell_length_a   6.71985926
_cell_length_b   10.41755138
_cell_length_c   11.44162825
_cell_angle_alpha   89.99943759
_cell_angle_beta   87.78140315
_cell_angle_gamma   89.99948541
_symmetry_Int_Tables_number   1
_chemical_formula_structural   NiH5C5N2ClO3
_chemical_formula_sum   'Ni4 H20 C20 N8 Cl4 O12'
_cell_volume   800.36482478
_cell_formula_units_Z   4
loop_
 _symmetry_equiv_pos_site_id
 _symmetry_equiv_pos_as_xyz
  1  'x, y, z'
loop_
 _atom_site_type_symbol
 _atom_site_label
 _atom_site_symmetry_multiplicity
 _atom_site_fract_x
 _atom_site_fract_y
 _atom_site_fract_z
 _atom_site_occupancy
 _atom_site_hle17_ddec_charge
 _atom_site_hle17_ddec_spin_density
 _atom_site_hle17_ddec_sum_bond_order
 _atom_site_hle17_magmom
 _atom_site_hse06_10hf_ddec_charge
 _atom_site_hse06_10hf_ddec_spin_density
 _atom_site_hse06_10hf_ddec_sum_bond_order
 _atom_site_hse06_10hf_magmom
 _atom_site_hse06_ddec_charge
 _atom_site_hse06_ddec_spin_density
 _atom_site_hse06_ddec_sum_bond_order
 _atom_site_hse06_magmom
 _atom_site_pbe_cm5_charge
 _atom_site_pbe_ddec_charge
 _atom_site_pbe_ddec_spin_density
 _atom_site_pbe_ddec_sum_bond_order
 _atom_site_pbe_magmom
Ni  Ni0  1  0.27484916  0.77927538  0.70237528  1  0.696365  -0.147588  2.307733  -0.057  0.690794  -0.119736  2.744734  -0.04  0.792165  -0.12398  2.650269  -0.031  0.62788  0.630891  -0.10805  2.805209  -0.044
Ni  Ni1  1  0.77880556  0.22577478  0.30151300  1  0.79797  1.83475  2.134885  1.469  0.814257  1.889696  2.529203  1.594  0.903798  1.959084  2.451642  1.689  0.616889  0.754188  1.819049  2.582965  1.51
Ni  Ni2  1  0.27880439  0.27422331  0.80151419  1  0.798055  1.834763  2.134827  1.469  0.8144  1.889706  2.529142  1.594  0.90396  1.959087  2.451541  1.689  0.616923  0.754336  1.819065  2.582874  1.51
Ni  Ni3  1  0.77485043  0.72072755  0.20237326  1  0.696333  -0.147545  2.307461  -0.057  0.69069  -0.119705  2.744457  -0.04  0.792076  -0.123955  2.649988  -0.031  0.627786  0.630747  -0.108039  2.804911  -0.044
H  H4  1  0.00544112  0.55723624  0.04531807  1  0.12022  0.000428  0.922031  0.001  0.123846  0.000461  0.985755  0.001  0.127045  0.00039  0.982127  0.001  0.133078  0.121252  0.000436  0.989223  0.001
H  H5  1  0.50965612  0.44794305  0.95706299  1  0.118763  0.000978  0.921136  0.002  0.124637  0.00084  0.981379  0.002  0.128042  0.000583  0.978134  0.001  0.131704  0.121864  0.001139  0.984458  0.002
H  H6  1  0.00965442  0.05204900  0.45707139  1  0.118752  0.000977  0.921075  0.002  0.124612  0.00084  0.981358  0.002  0.128018  0.000583  0.978107  0.001  0.131703  0.121791  0.001139  0.984488  0.002
H  H7  1  0.50546169  0.94276894  0.54532784  1  0.120221  0.00043  0.922032  0.001  0.123854  0.00046  0.985729  0.001  0.127049  0.00039  0.982109  0.001  0.133081  0.121266  0.000436  0.989199  0.001
H  H8  1  0.85732519  0.94604503  0.05151628  1  0.116784  0.000429  0.944754  0.001  0.119105  0.000507  1.010535  0.001  0.122295  0.000457  1.006656  0.001  0.130976  0.116565  0.000456  1.014596  0.001
H  H9  1  0.39225406  0.05495375  0.95070652  1  0.122761  0.001067  0.929307  0.002  0.127598  0.000883  0.991165  0.002  0.130342  0.000629  0.988523  0.001  0.131883  0.125334  0.001152  0.993811  0.002
H  H10  1  0.89225852  0.44503918  0.45068858  1  0.122804  0.001064  0.929208  0.002  0.127606  0.000882  0.991116  0.002  0.13035  0.000629  0.988476  0.001  0.131863  0.125339  0.001151  0.993766  0.002
H  H11  1  0.35731336  0.55396777  0.55153257  1  0.116854  0.000429  0.944686  0.001  0.119098  0.000506  1.010543  0.001  0.122274  0.000457  1.006694  0.001  0.130942  0.116564  0.000456  1.014589  0.001
H  H12  1  0.03472596  0.97761927  0.85917643  1  0.114671  0.000409  0.953302  0.001  0.119395  0.000488  1.013771  0.001  0.122015  0.000366  1.010716  0.001  0.128962  0.117213  0.000543  1.017213  0.001
H  H13  1  0.54074475  0.02939618  0.14564878  1  0.118263  0.001062  0.951077  0.002  0.123534  0.000881  1.011667  0.002  0.125865  0.000618  1.009745  0.001  0.129162  0.121831  0.001169  1.013585  0.002
H  H14  1  0.04074885  0.47060495  0.64562814  1  0.118325  0.001063  0.951018  0.002  0.123546  0.000881  1.011601  0.002  0.125879  0.000618  1.009674  0.001  0.129163  0.121844  0.001169  1.013517  0.002
H  H15  1  0.53471184  0.52238513  0.35918764  1  0.11461  0.000409  0.953308  0.001  0.119409  0.000488  1.013688  0.001  0.122029  0.000366  1.010634  0.001  0.129002  0.117228  0.000544  1.017126  0.001
H  H16  1  0.97483279  0.69425658  0.49495063  1  0.392125  -0.000338  0.911689  0.0  0.364949  -3.5e-05  0.977511  0.0  0.374957  -4.2e-05  0.963077  0.0  0.257426  0.358101  -2.4e-05  0.987296  0.0
H  H17  1  0.52313434  0.29150096  0.49713790  1  0.398049  -8.1e-05  0.899827  0.0  0.372329  0.000564  0.967753  0.0  0.384103  0.000343  0.951259  0.0  0.263817  0.364102  0.000695  0.97912  0.001
H  H18  1  0.02313711  0.20849249  0.99713872  1  0.398087  -8.2e-05  0.899785  0.0  0.372372  0.000564  0.967669  0.0  0.384151  0.000343  0.951178  0.0  0.263871  0.364146  0.000695  0.979036  0.001
H  H19  1  0.47481760  0.80573815  0.99495696  1  0.392234  -0.000338  0.911605  0.0  0.365049  -3.5e-05  0.977391  0.0  0.375059  -4.2e-05  0.962954  0.0  0.257472  0.358197  -2.5e-05  0.987183  0.0
H  H20  1  0.86141278  0.73894427  0.61242596  1  0.406123  -0.000116  0.856241  0.0  0.38144  9.8e-05  0.932786  0.0  0.39043  6.5e-05  0.919415  0.0  0.287342  0.375064  9.6e-05  0.941821  0.0
H  H21  1  0.40529487  0.23067566  0.39388821  1  0.415473  -0.000614  0.825964  -0.001  0.397552  -0.000119  0.887612  0.0  0.406093  -0.000234  0.878903  0.0  0.313378  0.391819  -5e-05  0.8932  0.0
H  H22  1  0.90529441  0.26931686  0.89388920  1  0.415523  -0.000614  0.825987  -0.001  0.397576  -0.000119  0.887665  0.0  0.40612  -0.000234  0.878943  0.0  0.3134  0.391831  -4.9e-05  0.893272  0.0
H  H23  1  0.36140659  0.76104479  0.11243353  1  0.405997  -0.000116  0.856452  0.0  0.381319  9.8e-05  0.93296  0.0  0.390311  6.5e-05  0.919588  0.0  0.287283  0.374939  9.6e-05  0.942021  0.0
C  C24  1  0.20323015  0.56243312  0.82907116  1  0.615437  -0.001047  3.890161  0.0  0.574154  -0.000151  4.182533  0.001  0.614539  -0.000243  4.177013  0.001  0.223238  0.544778  -0.000136  4.186944  0.0
C  C25  1  0.69828661  0.44823778  0.17301422  1  0.604238  -0.001821  3.881121  -0.001  0.561159  0.00081  4.180007  0.002  0.600944  0.000599  4.175925  0.002  0.220751  0.533263  0.000776  4.181193  0.002
C  C26  1  0.19828420  0.05176122  0.67301555  1  0.604302  -0.00182  3.881248  -0.001  0.561176  0.000809  4.180157  0.002  0.600963  0.000602  4.176074  0.002  0.220753  0.533292  0.000776  4.181345  0.002
C  C27  1  0.70323992  0.93757166  0.32907770  1  0.615418  -0.00104  3.890318  0.0  0.574005  -0.00015  4.182753  0.001  0.61438  -0.000244  4.17725  0.001  0.223112  0.544634  -0.000136  4.187144  0.0
C  C28  1  0.10469273  0.66757480  0.89588997  1  0.044071  0.006051  3.735805  0.007  0.04932  0.005209  3.975154  0.006  0.049201  0.003682  3.989514  0.004  0.111576  0.045951  0.006716  3.972499  0.008
C  C29  1  0.60381950  0.34082065  0.10714716  1  0.05207  0.000151  3.711747  0.001  0.059518  0.001375  3.953183  0.002  0.057564  0.000808  3.969062  0.001  0.116255  0.058827  0.002187  3.946447  0.003
C  C30  1  0.10381401  0.15918056  0.60714937  1  0.051943  0.000133  3.711767  0.001  0.059487  0.001374  3.953177  0.002  0.057533  0.000807  3.969057  0.001  0.116213  0.058778  0.002187  3.946436  0.003
C  C31  1  0.60471139  0.83242496  0.39589903  1  0.04394  0.006054  3.736155  0.007  0.049422  0.005206  3.975241  0.006  0.049299  0.003679  3.989597  0.004  0.111648  0.046061  0.006715  3.97256  0.008
C  C32  1  0.00748856  0.65060583  0.00303321  1  0.091088  -0.00219  3.627673  -0.001  0.052304  -0.000669  3.878146  -0.001  0.061967  -0.001069  3.890484  -0.001  0.065524  0.043346  -0.000253  3.875765  0.0
C  C33  1  0.51701991  0.35487102  0.99978962  1  0.086644  -0.005616  3.622383  -0.005  0.051176  -0.001876  3.873134  -0.002  0.059666  -0.00219  3.885407  -0.002  0.064074  0.043822  -0.001548  3.869327  -0.002
C  C34  1  0.01701412  0.14512531  0.49979029  1  0.086755  -0.00559  3.62241  -0.005  0.051216  -0.001876  3.873165  -0.002  0.059703  -0.00219  3.885438  -0.002  0.064066  0.043905  -0.001549  3.869367  -0.002
C  C35  1  0.50750905  0.84939982  0.50304114  1  0.091072  -0.002205  3.627812  -0.001  0.052293  -0.000666  3.878232  -0.001  0.061956  -0.001067  3.890571  -0.001  0.065423  0.043312  -0.000252  3.875892  0.0
C  C36  1  0.92677249  0.86545611  0.00573606  1  0.132049  -0.000434  3.553451  0.0  0.101175  0.001445  3.804395  0.002  0.114033  0.000294  3.808504  0.001  0.078041  0.089203  0.002349  3.808139  0.002
C  C37  1  0.45080352  0.13750344  0.99650204  1  0.123844  -0.005913  3.564968  -0.005  0.097738  -0.001351  3.812501  -0.001  0.106653  -0.00203  3.822305  -0.002  0.075901  0.090267  -0.001037  3.809348  -0.001
C  C38  1  0.95080735  0.36249441  0.49649529  1  0.123862  -0.005879  3.564909  -0.005  0.097754  -0.001351  3.812269  -0.001  0.106664  -0.00203  3.822079  -0.002  0.075922  0.090279  -0.001037  3.809116  -0.001
C  C39  1  0.42677903  0.63455204  0.50574619  1  0.131971  -0.000438  3.553222  0.0  0.101187  0.001447  3.804216  0.002  0.114053  0.000296  3.808312  0.001  0.07814  0.08922  0.00235  3.807962  0.002
C  C40  1  0.02707766  0.88274457  0.89811834  1  0.119  0.002176  3.588289  0.003  0.090186  0.003006  3.84386  0.003  0.101148  0.001882  3.849105  0.002  0.070253  0.080107  0.003625  3.846656  0.004
C  C41  1  0.53576510  0.12364889  0.10506197  1  0.111637  -0.001157  3.604028  0.0  0.086845  0.000861  3.85752  0.001  0.09384  0.000338  3.867846  0.0  0.068446  0.080356  0.000959  3.85401  0.001
C  C42  1  0.03576583  0.37635079  0.60505003  1  0.111546  -0.001174  3.604209  0.0  0.086914  0.000862  3.857576  0.001  0.093898  0.000339  3.86792  0.0  0.068556  0.080412  0.00096  3.854063  0.001
C  C43  1  0.52708452  0.61726423  0.39812849  1  0.11926  0.002181  3.588452  0.003  0.090452  0.003  3.843923  0.003  0.1014  0.001878  3.849169  0.002  0.070235  0.080367  0.003621  3.846703  0.004
N  N44  1  0.11681970  0.78412453  0.84257603  1  -0.219033  0.016538  3.363969  0.02  -0.18203  0.016238  3.651084  0.019  -0.206269  0.013801  3.664315  0.016  -0.324646  -0.171145  0.017114  3.647921  0.021
N  N45  1  0.61234753  0.22465100  0.15954615  1  -0.25049  0.043894  3.340853  0.064  -0.217185  0.032817  3.620567  0.048  -0.236129  0.026631  3.636954  0.04  -0.314646  -0.206751  0.037319  3.613054  0.053
N  N46  1  0.11234356  0.27535150  0.65954124  1  -0.250438  0.043898  3.340867  0.064  -0.217291  0.032814  3.620618  0.048  -0.23623  0.026628  3.637002  0.04  -0.314688  -0.206831  0.037317  3.613081  0.053
N  N47  1  0.61682491  0.71587673  0.34259323  1  -0.219099  0.01654  3.364478  0.02  -0.182205  0.016245  3.65155  0.019  -0.206421  0.013806  3.664771  0.016  -0.324627  -0.171298  0.017121  3.64834  0.021
N  N48  1  0.91588634  0.74990662  0.05790642  1  -0.193235  0.019083  3.351217  0.025  -0.145711  0.018107  3.635049  0.023  -0.172913  0.015785  3.648787  0.02  -0.322948  -0.131366  0.017994  3.630647  0.023
N  N49  1  0.43953916  0.25286388  0.94504098  1  -0.231246  0.047775  3.308927  0.069  -0.189978  0.035029  3.59351  0.051  -0.211616  0.028667  3.607932  0.044  -0.315223  -0.177669  0.039913  3.58648  0.057
N  N50  1  0.93954005  0.24712597  0.44503875  1  -0.231372  0.047755  3.309093  0.069  -0.190019  0.035025  3.593602  0.051  -0.211648  0.028665  3.608025  0.044  -0.315262  -0.177702  0.039909  3.586547  0.057
N  N51  1  0.41589261  0.75010484  0.55791908  1  -0.193249  0.019082  3.351389  0.025  -0.145883  0.018099  3.635335  0.023  -0.173086  0.01578  3.649063  0.02  -0.322948  -0.131554  0.017986  3.630963  0.023
Cl  Cl52  1  0.59153624  0.82380935  0.80677554  1  -0.598022  0.069603  0.732061  0.095  -0.607786  0.021316  0.957391  0.03  -0.639373  0.016474  0.935767  0.024  -0.364023  -0.578881  0.022952  0.970906  0.032
Cl  Cl53  1  0.06123598  0.17573014  0.18075836  1  -0.546016  0.102426  0.849238  0.142  -0.56491  0.057371  1.085823  0.081  -0.603446  0.039791  1.067969  0.058  -0.319038  -0.532139  0.07293  1.096699  0.1
Cl  Cl54  1  0.56123316  0.32427144  0.68076154  1  -0.546036  0.102423  0.849213  0.142  -0.564925  0.057368  1.085831  0.081  -0.603463  0.03979  1.067945  0.058  -0.319056  -0.532157  0.072928  1.096705  0.1
Cl  Cl55  1  0.09154661  0.67618668  0.30676876  1  -0.598001  0.069599  0.732029  0.095  -0.607779  0.021313  0.957379  0.03  -0.639361  0.016469  0.935754  0.024  -0.364048  -0.578895  0.022953  0.970893  0.032
O  O56  1  0.29517020  0.59777760  0.73456462  1  -0.522182  -0.068589  2.17518  -0.072  -0.487711  -0.037815  2.450977  -0.04  -0.539271  -0.034023  2.448835  -0.035  -0.271477  -0.449176  -0.036448  2.44945  -0.039
O  O57  1  0.79749931  0.41706848  0.25994537  1  -0.535745  0.057932  2.135975  0.088  -0.513601  0.038331  2.40906  0.06  -0.553906  0.02895  2.404535  0.047  -0.279568  -0.483735  0.047464  2.410475  0.072
O  O58  1  0.29750379  0.08293094  0.75994985  1  -0.535723  0.057931  2.135959  0.088  -0.513579  0.038331  2.409064  0.06  -0.553887  0.028949  2.404531  0.047  -0.279537  -0.483714  0.047464  2.410478  0.072
O  O59  1  0.79517324  0.90222774  0.23456454  1  -0.522129  -0.068608  2.175085  -0.072  -0.487651  -0.037823  2.450948  -0.04  -0.539227  -0.034027  2.44884  -0.035  -0.27148  -0.449104  -0.036463  2.449389  -0.039
O  O60  1  0.18790737  0.44864614  0.86651969  1  -0.575405  0.039563  2.1309  0.062  -0.549972  0.028858  2.401484  0.046  -0.588647  0.022603  2.390599  0.037  -0.297351  -0.521142  0.035158  2.407794  0.054
O  O61  1  0.66987552  0.56261715  0.13640137  1  -0.553403  -0.040364  2.134272  -0.042  -0.519254  -0.023471  2.410927  -0.024  -0.567126  -0.02227  2.40076  -0.023  -0.288714  -0.482515  -0.020682  2.414307  -0.022
O  O62  1  0.16987487  0.93738324  0.63640554  1  -0.553473  -0.04036  2.134362  -0.042  -0.5193  -0.023467  2.411028  -0.024  -0.567167  -0.022272  2.400853  -0.023  -0.28873  -0.482561  -0.020676  2.414402  -0.022
O  O63  1  0.68791392  0.05134884  0.36652253  1  -0.57534  0.039552  2.131103  0.062  -0.549863  0.028853  2.401712  0.046  -0.588529  0.022601  2.39084  0.037  -0.297252  -0.521034  0.035152  2.408006  0.054
O  O64  1  0.93019309  0.66690722  0.57438996  1  -0.806163  0.003402  1.792342  0.004  -0.771463  0.003028  1.960572  0.004  -0.787446  0.002315  1.930129  0.003  -0.593203  -0.760524  0.003513  1.982002  0.004
O  O65  1  0.50948065  0.29238557  0.41044684  1  -0.766738  0.028137  1.903909  0.042  -0.733441  0.026999  2.088321  0.04  -0.760589  0.020925  2.060647  0.032  -0.555687  -0.713106  0.032525  2.106942  0.047
O  O66  1  0.00948638  0.20761277  0.91044850  1  -0.766847  0.028137  1.903989  0.042  -0.7335  0.026998  2.088363  0.04  -0.760673  0.020924  2.060673  0.032  -0.555766  -0.713147  0.032524  2.107009  0.047
O  O67  1  0.43018725  0.83308286  0.07440042  1  -0.806125  0.003403  1.792449  0.004  -0.771414  0.003027  1.96059  0.004  -0.787405  0.002314  1.930153  0.003  -0.593195  -0.760484  0.003513  1.982073  0.004
