# generated using pymatgen
data_CuH11C16SN3O4
_symmetry_space_group_name_H-M   'P 1'
_cell_length_a   10.31613405
_cell_length_b   10.31613407
_cell_length_c   19.01786464
_cell_angle_alpha   79.62147202
_cell_angle_beta   79.62153935
_cell_angle_gamma   67.09285020
_symmetry_Int_Tables_number   1
_chemical_formula_structural   CuH11C16SN3O4
_chemical_formula_sum   'Cu4 H44 C64 S4 N12 O16'
_cell_volume   1820.24415618
_cell_formula_units_Z   4
loop_
 _symmetry_equiv_pos_site_id
 _symmetry_equiv_pos_as_xyz
  1  'x, y, z'
loop_
 _atom_site_type_symbol
 _atom_site_label
 _atom_site_symmetry_multiplicity
 _atom_site_fract_x
 _atom_site_fract_y
 _atom_site_fract_z
 _atom_site_occupancy
 _atom_site_pbe_bader_charge
 _atom_site_pbe_bader_spin_density
 _atom_site_pbe_cm5_charge
 _atom_site_pbe_ddec_charge
 _atom_site_pbe_ddec_spin_density
 _atom_site_pbe_ddec_sum_bond_order
 _atom_site_pbe_magmom
Cu  Cu0  1  0.05764836  0.59709415  0.07523932  1  1.091305  0.578546  0.73641  0.804386  0.735767  2.196554  0.577
Cu  Cu1  1  0.40290609  0.94235010  0.42476113  1  1.091389  0.578554  0.736424  0.804421  0.735776  2.196543  0.577
Cu  Cu2  1  0.94235064  0.40290666  0.92476110  1  1.091308  0.578549  0.736414  0.8044  0.735771  2.196591  0.577
Cu  Cu3  1  0.59709293  0.05764774  0.57523958  1  1.091269  0.578552  0.73643  0.804403  0.735775  2.196586  0.577
H  H4  1  0.01269959  0.14066099  0.81559707  1  0.538892  -1.2e-05  0.306994  0.28885  -8.7e-05  1.014422  0.0
H  H5  1  0.85933943  0.98730023  0.68440265  1  0.538873  -1.2e-05  0.306992  0.288848  -8.7e-05  1.014425  0.0
H  H6  1  0.98730047  0.85934141  0.18440256  1  0.5389  -1.2e-05  0.307008  0.288858  -8.7e-05  1.014444  0.0
H  H7  1  0.14065854  0.01269800  0.31559760  1  0.53887  -1.2e-05  0.307001  0.288894  -8.7e-05  1.014395  0.0
H  H8  1  0.28900297  0.66127372  0.98224481  1  0.140031  0.001737  0.106108  0.076741  0.00075  1.079073  0.002
H  H9  1  0.33872944  0.71099657  0.51775617  1  0.140826  0.001735  0.106099  0.076713  0.00075  1.079097  0.002
H  H10  1  0.71099813  0.33872928  0.01775519  1  0.140003  0.001737  0.1061  0.076701  0.00075  1.079109  0.002
H  H11  1  0.66127276  0.28900111  0.48224530  1  0.140024  0.001737  0.106111  0.076705  0.00075  1.079092  0.002
H  H12  1  0.32425387  0.83390270  0.88095064  1  0.107039  0.000883  0.110345  0.126832  0.000466  1.009361  0.0
H  H13  1  0.16609947  0.67574499  0.61904940  1  0.10703  0.000883  0.110336  0.126809  0.000466  1.009391  0.0
H  H14  1  0.67574619  0.16609970  0.11904847  1  0.10706  0.000883  0.110356  0.126848  0.000466  1.009402  0.0
H  H15  1  0.83390167  0.32425208  0.38095222  1  0.107035  0.000883  0.110336  0.126821  0.000466  1.009361  0.0
H  H16  1  0.86728966  0.03410018  0.89109024  1  0.091493  0.001027  0.111675  0.131933  0.000527  1.011835  0.001
H  H17  1  0.96590176  0.13270898  0.60890869  1  0.091509  0.001027  0.111684  0.131932  0.000527  1.011868  0.001
H  H18  1  0.13271039  0.96590222  0.10890939  1  0.091509  0.001027  0.111686  0.131898  0.000527  1.011902  0.001
H  H19  1  0.03409516  0.86728667  0.39108875  1  0.091524  0.001027  0.11166  0.131881  0.000527  1.01185  0.001
H  H20  1  0.85265899  0.85601636  0.99643496  1  0.141718  0.001576  0.11989  0.099492  0.000676  1.002359  0.001
H  H21  1  0.14398617  0.14733921  0.50356475  1  0.141722  0.001576  0.119877  0.099453  0.000676  1.002315  0.001
H  H22  1  0.14734002  0.14398346  0.00356345  1  0.141707  0.001577  0.119923  0.099522  0.000676  1.002337  0.001
H  H23  1  0.85601390  0.85266023  0.49643464  1  0.14168  0.001575  0.119942  0.099547  0.000675  1.002449  0.001
H  H24  1  0.32459969  0.26593006  0.63127080  1  0.107468  0.00186  0.122029  0.105115  0.00085  0.98496  0.001
H  H25  1  0.73406815  0.67540156  0.86872800  1  0.107472  0.001859  0.122014  0.105075  0.00085  0.984977  0.001
H  H26  1  0.67540037  0.73407135  0.36872840  1  0.107516  0.00186  0.122027  0.105104  0.00085  0.984968  0.001
H  H27  1  0.26593193  0.32459689  0.13127201  1  0.107489  0.00186  0.122013  0.105077  0.00085  0.984977  0.001
H  H28  1  0.12390067  0.27198373  0.72830065  1  0.109969  0.001016  0.115556  0.136066  0.00051  0.987414  0.001
H  H29  1  0.72801429  0.87609990  0.77169817  1  0.109957  0.001017  0.11554  0.136013  0.00051  0.987449  0.001
H  H30  1  0.87609833  0.72801807  0.27169757  1  0.110093  0.001016  0.115546  0.136019  0.00051  0.987501  0.001
H  H31  1  0.27198366  0.12390030  0.22830294  1  0.110067  0.001016  0.115558  0.136038  0.00051  0.987453  0.001
H  H32  1  0.33521860  0.81750070  0.77507803  1  0.085243  0.0009  0.109488  0.125232  0.000464  1.016707  0.0
H  H33  1  0.18249820  0.66478156  0.72492274  1  0.085317  0.0009  0.109472  0.125234  0.000464  1.016716  0.0
H  H34  1  0.66478040  0.18250209  0.22492167  1  0.085211  0.0009  0.109487  0.125209  0.000464  1.016689  0.0
H  H35  1  0.81749976  0.33521865  0.27507731  1  0.085318  0.0009  0.109477  0.125229  0.000464  1.016691  0.0
H  H36  1  0.52725516  0.83359627  0.68133901  1  0.133549  0.001633  0.115623  0.088889  0.000688  1.040761  0.001
H  H37  1  0.16640324  0.47274309  0.81866142  1  0.133545  0.001634  0.115626  0.088898  0.000688  1.040737  0.001
H  H38  1  0.47274489  0.16640612  0.31866062  1  0.133533  0.001633  0.115615  0.088887  0.000688  1.040776  0.001
H  H39  1  0.83359685  0.52725437  0.18133817  1  0.133537  0.001633  0.115625  0.088898  0.000688  1.040766  0.001
H  H40  1  0.65545094  0.18951481  0.78464746  1  0.122154  5e-06  0.10416  0.133043  3e-05  1.044879  0.0
H  H41  1  0.81048672  0.34455222  0.71535253  1  0.122682  5e-06  0.104149  0.13303  3e-05  1.044922  0.0
H  H42  1  0.34455335  0.81048703  0.21535234  1  0.122477  5e-06  0.104143  0.133024  3e-05  1.044966  0.0
H  H43  1  0.18951123  0.65544700  0.28464709  1  0.12269  5e-06  0.104153  0.133037  3e-05  1.044912  0.0
H  H44  1  0.39337241  0.19206127  0.82463460  1  0.089415  0.000559  0.102608  0.119616  0.000351  1.009632  0.0
H  H45  1  0.80793988  0.60663125  0.67536530  1  0.089529  0.000559  0.102604  0.119616  0.000351  1.00963  0.0
H  H46  1  0.60663189  0.80793860  0.17536539  1  0.089561  0.000559  0.102603  0.119619  0.000351  1.009638  0.0
H  H47  1  0.19205808  0.39336797  0.32463590  1  0.089544  0.000559  0.102597  0.119605  0.000351  1.009635  0.0
C  C48  1  0.19818226  0.74497172  0.96017219  1  0.441053  6e-05  0.036615  0.100067  -0.000433  3.983009  0.0
C  C49  1  0.25503027  0.80181577  0.53982794  1  0.440221  6.2e-05  0.036678  0.100179  -0.000433  3.983002  0.0
C  C50  1  0.80181567  0.25503145  0.03982758  1  0.441023  6e-05  0.036687  0.100274  -0.000433  3.982867  0.0
C  C51  1  0.74497088  0.19818130  0.46017210  1  0.441067  6.1e-05  0.036683  0.100269  -0.000432  3.983089  0.0
C  C52  1  0.21695454  0.84102262  0.90212105  1  -0.00997  0.005557  -0.100485  -0.249012  0.003705  3.961862  0.005
C  C53  1  0.15897866  0.78304461  0.59787902  1  -0.010004  0.005557  -0.100485  -0.249022  0.003705  3.961969  0.005
C  C54  1  0.78304552  0.15897978  0.09787858  1  -0.009632  0.005557  -0.100512  -0.249128  0.003705  3.962009  0.005
C  C55  1  0.84101931  0.21695263  0.40212185  1  -0.009754  0.005558  -0.100484  -0.249048  0.003705  3.96189  0.005
C  C56  1  0.09758308  0.94751905  0.87398958  1  0.352357  -0.002866  0.121744  0.286354  -0.003356  4.031892  -0.002
C  C57  1  0.05248200  0.90241417  0.62601116  1  0.352398  -0.002866  0.121708  0.286309  -0.003356  4.031861  -0.002
C  C58  1  0.90241591  0.05248374  0.12601065  1  0.352036  -0.002866  0.121688  0.286321  -0.003356  4.031876  -0.002
C  C59  1  0.94751705  0.09757973  0.37398888  1  0.352006  -0.002866  0.121705  0.286266  -0.003356  4.031927  -0.002
C  C60  1  0.96358315  0.95276186  0.90964507  1  0.057895  0.004879  -0.092427  -0.230776  0.003247  3.930667  0.004
C  C61  1  0.04723961  0.03641825  0.59035548  1  0.057479  0.004881  -0.09245  -0.230808  0.003247  3.93062  0.004
C  C62  1  0.03641690  0.04724054  0.09035561  1  0.057482  0.004881  -0.092426  -0.230702  0.003248  3.93065  0.004
C  C63  1  0.95275621  0.96358470  0.40964398  1  0.057672  0.004879  -0.092404  -0.230692  0.003246  3.930675  0.004
C  C64  1  0.95472779  0.85375614  0.96804071  1  0.440627  -9.9e-05  0.042386  0.108509  -0.000513  3.960522  0.0
C  C65  1  0.14624622  0.04527145  0.53195947  1  0.441068  -0.0001  0.042447  0.108648  -0.000512  3.960433  0.0
C  C66  1  0.04527227  0.14624625  0.03195840  1  0.441059  -0.000101  0.042375  0.108503  -0.000513  3.960562  0.0
C  C67  1  0.85375495  0.95472168  0.46804096  1  0.440986  -0.0001  0.04233  0.108524  -0.000513  3.960453  0.0
C  C68  1  0.32269154  0.16995151  0.66568278  1  0.471357  0.000161  0.045978  0.110445  -0.000195  3.948854  0.0
C  C69  1  0.83004572  0.67731028  0.83431661  1  0.471365  0.000161  0.04597  0.110512  -0.000195  3.948832  0.0
C  C70  1  0.67730852  0.83004990  0.33431590  1  0.471628  0.000159  0.045938  0.11042  -0.000195  3.948951  0.0
C  C71  1  0.16995330  0.32268856  0.16568400  1  0.471376  0.000161  0.045959  0.110482  -0.000195  3.9489  0.0
C  C72  1  0.21184089  0.17236989  0.71945956  1  -0.017229  0.004893  -0.090585  -0.236959  0.003284  3.926928  0.004
C  C73  1  0.82763082  0.78815733  0.78053928  1  -0.0172  0.004892  -0.090531  -0.23693  0.003283  3.927096  0.004
C  C74  1  0.78815917  0.82763152  0.28053859  1  -0.017563  0.004894  -0.090494  -0.236839  0.003284  3.926972  0.004
C  C75  1  0.17236926  0.21184013  0.21946136  1  -0.017358  0.004893  -0.090525  -0.236876  0.003284  3.927055  0.004
C  C76  1  0.21368723  0.04573035  0.76342446  1  0.424642  -0.002477  0.122769  0.289651  -0.002904  4.040245  -0.002
C  C77  1  0.95426732  0.78631265  0.73657561  1  0.424571  -0.002477  0.122748  0.289695  -0.002904  4.04018  -0.002
C  C78  1  0.78631071  0.95427282  0.23657478  1  0.424624  -0.002477  0.122716  0.289599  -0.002904  4.040309  -0.002
C  C79  1  0.04572851  0.21368833  0.26342458  1  0.424623  -0.002477  0.122748  0.28965  -0.002904  4.04022  -0.002
C  C80  1  0.32902344  0.92093839  0.74717441  1  -0.039038  0.005219  -0.102778  -0.253853  0.003448  3.971144  0.004
C  C81  1  0.07906081  0.67097507  0.75282646  1  -0.038878  0.005219  -0.102718  -0.253821  0.003448  3.971206  0.004
C  C82  1  0.67097768  0.07906264  0.25282472  1  -0.039073  0.005219  -0.102715  -0.253724  0.003448  3.97122  0.004
C  C83  1  0.92093927  0.32902239  0.24717418  1  -0.039036  0.005219  -0.102716  -0.253811  0.003448  3.971073  0.004
C  C84  1  0.43617494  0.92873358  0.69316639  1  0.487208  -0.000291  0.038949  0.101585  -0.00068  3.982643  0.0
C  C85  1  0.07126433  0.56382721  0.80683376  1  0.487106  -0.000291  0.038894  0.101496  -0.000679  3.98291  0.0
C  C86  1  0.56382512  0.07126783  0.30683282  1  0.487217  -0.000291  0.038901  0.101486  -0.00068  3.982643  0.0
C  C87  1  0.92873361  0.43617497  0.19316610  1  0.487233  -0.000292  0.038917  0.101553  -0.00068  3.982588  0.0
C  C88  1  0.61637414  0.32050227  0.86987344  1  -0.243336  0.007554  -0.033157  -0.135798  0.005227  4.001207  0.006
C  C89  1  0.67949604  0.38362742  0.63012644  1  -0.243739  0.007555  -0.033205  -0.135924  0.005228  4.001029  0.006
C  C90  1  0.38362699  0.67949678  0.13012641  1  -0.24344  0.007554  -0.033195  -0.135868  0.005228  4.001005  0.006
C  C91  1  0.32050403  0.61637301  0.36987233  1  -0.243738  0.007554  -0.033187  -0.135875  0.005228  4.000968  0.006
C  C92  1  0.58269272  0.24212611  0.82894912  1  0.040867  0.001471  -0.102853  -0.111251  0.000832  3.979142  0.001
C  C93  1  0.75787582  0.41730893  0.67105410  1  0.040902  0.001471  -0.102824  -0.111223  0.000832  3.978889  0.001
C  C94  1  0.41730945  0.75787650  0.17105344  1  0.040593  0.001472  -0.102818  -0.111213  0.000832  3.978963  0.001
C  C95  1  0.24212426  0.58268952  0.32894592  1  0.040885  0.001471  -0.102815  -0.111213  0.000833  3.978906  0.001
C  C96  1  0.44356524  0.24417667  0.84986107  1  -0.02356  0.000347  -0.103821  -0.110737  0.000117  3.991135  0.0
C  C97  1  0.75582203  0.55643599  0.65013983  1  -0.023676  0.000347  -0.103826  -0.110713  0.000117  3.991281  0.0
C  C98  1  0.55643588  0.75582435  0.15013860  1  -0.023716  0.000347  -0.103829  -0.110747  0.000117  3.991268  0.0
C  C99  1  0.24417592  0.44356421  0.34986127  1  -0.023709  0.000347  -0.103823  -0.110724  0.000117  3.991257  0.0
C  C100  1  0.37424584  0.32203568  0.90708905  1  -0.245511  0.008613  -0.031311  -0.129662  0.005875  3.995849  0.006
C  C101  1  0.67796475  0.62575485  0.59291221  1  -0.245302  0.008612  -0.031343  -0.129737  0.005875  3.995999  0.006
C  C102  1  0.62575528  0.67796436  0.09291228  1  -0.245507  0.008613  -0.031339  -0.129684  0.005875  3.995934  0.006
C  C103  1  0.32203426  0.37424497  0.40708830  1  -0.245309  0.008613  -0.031308  -0.129638  0.005875  3.995902  0.006
C  C104  1  0.22664205  0.35501794  0.94249648  1  1.594374  -0.000563  0.19418  0.57456  -0.000452  4.276678  -0.002
C  C105  1  0.64498406  0.77335855  0.55750511  1  1.594209  -0.000562  0.194176  0.574555  -0.000451  4.276701  -0.002
C  C106  1  0.77335908  0.64498210  0.05750380  1  1.594341  -0.000563  0.194165  0.574546  -0.000452  4.276747  -0.002
C  C107  1  0.35501601  0.22664089  0.44249481  1  1.593841  -0.00056  0.194185  0.574534  -0.000451  4.276662  -0.002
C  C108  1  0.75043711  0.34372223  0.86443206  1  1.585832  6.1e-05  0.196639  0.568972  -5e-05  4.269295  -0.001
C  C109  1  0.65627874  0.24956244  0.63556833  1  1.585836  6.1e-05  0.196652  0.568981  -5e-05  4.269327  -0.001
C  C110  1  0.24956082  0.65628094  0.13556981  1  1.58585  6.1e-05  0.196585  0.568895  -5e-05  4.269385  -0.001
C  C111  1  0.34372027  0.75043738  0.36443061  1  1.585837  6.1e-05  0.196615  0.568963  -5e-05  4.269304  -0.001
S  S112  1  0.47901250  0.39361142  0.93459271  1  0.278608  0.003073  0.098568  0.165809  0.001978  2.978417  0.002
S  S113  1  0.60638880  0.52098793  0.56540809  1  0.278637  0.003073  0.098609  0.16592  0.001977  2.978481  0.002
S  S114  1  0.52098758  0.60638802  0.06540879  1  0.27866  0.003073  0.098621  0.165888  0.001977  2.978454  0.002
S  S115  1  0.39361126  0.47901249  0.43459068  1  0.278704  0.003073  0.098583  0.165827  0.001977  2.97844  0.002
N  N116  1  0.06980446  0.74898696  0.99327678  1  -1.217201  0.087303  -0.352513  -0.251448  0.057826  3.58063  0.075
N  N117  1  0.25101556  0.93019404  0.50672374  1  -1.217205  0.087306  -0.352575  -0.251549  0.057827  3.580603  0.075
N  N118  1  0.93019772  0.25101368  0.00672282  1  -1.217232  0.087306  -0.352575  -0.251592  0.057828  3.580629  0.075
N  N119  1  0.74898239  0.06980616  0.49327737  1  -1.217207  0.087306  -0.352577  -0.251643  0.057828  3.580593  0.075
N  N120  1  0.10336118  0.04910330  0.81664153  1  -1.297182  -0.001591  -0.390545  -0.3284  -0.001658  3.560432  -0.001
N  N121  1  0.95089682  0.89663979  0.68335764  1  -1.297133  -0.001591  -0.390553  -0.32843  -0.001658  3.560403  -0.001
N  N122  1  0.89664100  0.95089734  0.18335755  1  -1.297135  -0.001591  -0.390565  -0.328448  -0.001658  3.56044  -0.001
N  N123  1  0.04910220  0.10335806  0.31664201  1  -1.297183  -0.001591  -0.390556  -0.328456  -0.001658  3.560395  -0.001
N  N124  1  0.43594121  0.05036436  0.65279122  1  -1.219778  0.085107  -0.351272  -0.248536  0.056398  3.580134  0.073
N  N125  1  0.94963645  0.56405901  0.84720805  1  -1.219781  0.085109  -0.351239  -0.248509  0.0564  3.580159  0.073
N  N126  1  0.56405886  0.94963606  0.34720808  1  -1.21983  0.085106  -0.351222  -0.24848  0.056398  3.580129  0.073
N  N127  1  0.05036574  0.43593965  0.15279174  1  -1.219755  0.085109  -0.351264  -0.248561  0.0564  3.58009  0.073
O  O128  1  0.18620643  0.41932875  0.99694942  1  -1.181457  0.003195  -0.322589  -0.577355  0.001292  2.299952  0.004
O  O129  1  0.58066944  0.81379505  0.50305085  1  -1.181429  0.003197  -0.322632  -0.577388  0.001293  2.299846  0.004
O  O130  1  0.81379364  0.58067069  0.00305208  1  -1.181421  0.003195  -0.322573  -0.577319  0.001291  2.300052  0.004
O  O131  1  0.41933063  0.18620438  0.49694855  1  -1.181365  0.003197  -0.322626  -0.577369  0.001293  2.299851  0.004
O  O132  1  0.15014966  0.31403952  0.91088889  1  -1.115087  0.10552  -0.336347  -0.560198  0.066524  2.377044  0.095
O  O133  1  0.68596166  0.84984966  0.58911132  1  -1.1152  0.105508  -0.336309  -0.560178  0.066517  2.377142  0.095
O  O134  1  0.84985039  0.68596288  0.08911180  1  -1.115073  0.105517  -0.336345  -0.560209  0.066522  2.376976  0.095
O  O135  1  0.31403735  0.15015016  0.41088867  1  -1.114837  0.105505  -0.336336  -0.560198  0.066516  2.377081  0.095
O  O136  1  0.85656553  0.27756678  0.82282535  1  -1.20518  0.002242  -0.320999  -0.569998  0.000617  2.248269  0.002
O  O137  1  0.72243338  0.14343625  0.67717495  1  -1.205188  0.002242  -0.321  -0.570006  0.000617  2.24831  0.002
O  O138  1  0.14343664  0.72243484  0.17717468  1  -1.205257  0.002241  -0.320971  -0.569928  0.000616  2.24832  0.002
O  O139  1  0.27756562  0.85656456  0.32282494  1  -1.205224  0.002241  -0.320997  -0.57  0.000617  2.248294  0.002
O  O140  1  0.74826631  0.43190833  0.90538016  1  -1.118773  0.092892  -0.327029  -0.548156  0.058871  2.395562  0.084
O  O141  1  0.56809292  0.25173462  0.59462056  1  -1.118698  0.092899  -0.327009  -0.548082  0.058875  2.395514  0.084
O  O142  1  0.25173587  0.56809231  0.09462102  1  -1.118655  0.092901  -0.327009  -0.548126  0.058876  2.395562  0.084
O  O143  1  0.43190821  0.74826542  0.40537920  1  -1.118671  0.092902  -0.327011  -0.548131  0.058877  2.395513  0.084
