# generated using pymatgen
data_HgH7C7N(ClO)2
_symmetry_space_group_name_H-M   'P 1'
_cell_length_a   7.46868546
_cell_length_b   9.35723221
_cell_length_c   14.18991848
_cell_angle_alpha   89.99990419
_cell_angle_beta   92.11087633
_cell_angle_gamma   90.00000368
_symmetry_Int_Tables_number   1
_chemical_formula_structural   HgH7C7N(ClO)2
_chemical_formula_sum   'Hg4 H28 C28 N4 Cl8 O8'
_cell_volume   991.00688936
_cell_formula_units_Z   4
loop_
 _symmetry_equiv_pos_site_id
 _symmetry_equiv_pos_as_xyz
  1  'x, y, z'
loop_
 _atom_site_type_symbol
 _atom_site_label
 _atom_site_symmetry_multiplicity
 _atom_site_fract_x
 _atom_site_fract_y
 _atom_site_fract_z
 _atom_site_occupancy
 _atom_site_pbe_bader_spin_density
 _atom_site_pbe_cm5_charge
 _atom_site_pbe_ddec_charge
 _atom_site_pbe_ddec_spin_density
 _atom_site_pbe_ddec_sum_bond_order
 _atom_site_pbe_magmom
Hg  Hg0  1  0.24379541  0.06235651  0.48720764  1  0  0.506624  0.591661  0  2.612612  0
Hg  Hg1  1  0.25619848  0.56236393  0.01279561  1  0  0.506607  0.59164  0  2.612625  0
Hg  Hg2  1  0.75619899  0.93763561  0.51279487  1  0  0.506615  0.591638  0  2.612639  0
Hg  Hg3  1  0.74379590  0.43764422  0.98720549  1  0  0.506658  0.591736  0  2.612595  0
H  H4  1  0.09557465  0.15511340  0.67875934  1  0  0.108119  0.089035  0  1.034482  0
H  H5  1  0.40442177  0.65511471  0.82124429  1  0  0.108124  0.089076  0  1.034396  0
H  H6  1  0.90441976  0.84488727  0.32124388  1  0  0.108127  0.089064  0  1.034452  0
H  H7  1  0.59557397  0.34488596  0.17875824  1  0  0.108108  0.089037  0  1.034503  0
H  H8  1  0.03070377  0.37313822  0.77645456  1  0  0.106826  0.124986  0  1.015777  0
H  H9  1  0.46930067  0.87313871  0.72354753  1  0  0.106847  0.125044  0  1.015728  0
H  H10  1  0.96929728  0.62686459  0.22354523  1  0  0.106828  0.125005  0  1.015771  0
H  H11  1  0.53069903  0.12685876  0.27645153  1  0  0.106862  0.125035  0  1.015745  0
H  H12  1  0.08858309  0.61561172  0.70649513  1  0  0.102166  0.1096  0  1.006791  0
H  H13  1  0.41141998  0.11561333  0.79350582  1  0  0.102196  0.109587  0  1.006755  0
H  H14  1  0.91142196  0.38438896  0.29350330  1  0  0.102199  0.109648  0  1.006698  0
H  H15  1  0.58858371  0.88438734  0.20649190  1  0  0.102173  0.109587  0  1.006839  0
H  H16  1  0.21509515  0.63026048  0.54663311  1  0  0.107669  0.127524  0  1.022818  0
H  H17  1  0.28490255  0.13026383  0.95336704  1  0  0.107661  0.127534  0  1.022817  0
H  H18  1  0.78490857  0.36973592  0.45336601  1  0  0.107649  0.127536  0  1.022805  0
H  H19  1  0.71509845  0.86974112  0.04662993  1  0  0.107659  0.127509  0  1.022793  0
H  H20  1  0.35512246  0.66002281  0.28664523  1  0  0.093984  0.123313  0  1.012412  0
H  H21  1  0.14487275  0.16002462  0.21335652  1  0  0.093984  0.123304  0  1.012464  0
H  H22  1  0.64487996  0.33997038  0.71335599  1  0  0.093969  0.123262  0  1.012414  0
H  H23  1  0.85512166  0.83997926  0.78664599  1  0  0.093996  0.123362  0  1.012375  0
H  H24  1  0.30311288  0.47638735  0.25765504  1  0  0.088313  0.103183  0  1.05208  0
H  H25  1  0.19688361  0.97638885  0.24234285  1  0  0.088325  0.103193  0  1.052062  0
H  H26  1  0.69688950  0.52360584  0.74234406  1  0  0.088312  0.103159  0  1.052059  0
H  H27  1  0.80311476  0.02361503  0.75765690  1  0  0.088331  0.103219  0  1.05206  0
H  H28  1  0.52107628  0.52323662  0.30533139  1  0  0.089415  0.09979  0  1.045646  0
H  H29  1  0.97892143  0.02323849  0.19466903  1  0  0.089417  0.099803  0  1.045615  0
H  H30  1  0.47892750  0.47675764  0.69467126  1  0  0.089364  0.099762  0  1.045683  0
H  H31  1  0.02107693  0.97676326  0.80533001  1  0  0.089435  0.099836  0  1.045614  0
C  C32  1  0.12175486  0.26293698  0.65359413  1  0  0.054446  0.098044  0  3.886156  0
C  C33  1  0.37824554  0.76293930  0.84640661  1  0  0.054447  0.098039  0  3.886121  0
C  C34  1  0.87824621  0.73706262  0.34640636  1  0  0.054412  0.098023  0  3.886168  0
C  C35  1  0.62175283  0.23706244  0.15359313  1  0  0.05445  0.098047  0  3.886185  0
C  C36  1  0.08493561  0.38418431  0.70664197  1  0  -0.066372  -0.085182  0  3.903478  0
C  C37  1  0.41506750  0.88418569  0.79336079  1  0  -0.06645  -0.085386  0  3.903527  0
C  C38  1  0.91506680  0.61581744  0.29335925  1  0  -0.066374  -0.085223  0  3.903444  0
C  C39  1  0.58493220  0.11581498  0.20663827  1  0  -0.066438  -0.085335  0  3.903511  0
C  C40  1  0.11798793  0.51808613  0.66797639  1  0  -0.061576  -0.019869  0  3.922696  0
C  C41  1  0.38201514  0.01808979  0.83202467  1  0  -0.061534  -0.019647  0  3.9224  0
C  C42  1  0.88201579  0.48191241  0.33202273  1  0  -0.061587  -0.01983  0  3.922625  0
C  C43  1  0.61798856  0.98191302  0.16797304  1  0  -0.061546  -0.019748  0  3.922559  0
C  C44  1  0.18858338  0.52692860  0.57849003  1  0  -0.072242  -0.128384  0  3.920118  0
C  C45  1  0.31141832  0.02693204  0.92150959  1  0  -0.072271  -0.128479  0  3.920211  0
C  C46  1  0.81142165  0.47306887  0.42150770  1  0  -0.072256  -0.128514  0  3.920345  0
C  C47  1  0.68858402  0.97307291  0.07848740  1  0  -0.072215  -0.128362  0  3.920023  0
C  C48  1  0.22475018  0.40052911  0.53021017  1  0  0.112669  0.085923  0  3.973219  0
C  C49  1  0.27524887  0.90053325  0.96978970  1  0  0.112626  0.085877  0  3.973395  0
C  C50  1  0.77525221  0.59946516  0.46978964  1  0  0.112607  0.085889  0  3.97334  0
C  C51  1  0.72474951  0.09947384  0.03021005  1  0  0.112724  0.085922  0  3.973167  0
C  C52  1  0.30224856  0.40163960  0.43411429  1  0  0.236922  0.480489  0  4.098961  0
C  C53  1  0.19775198  0.90164582  0.06588586  1  0  0.236982  0.480561  0  4.099143  0
C  C54  1  0.69775383  0.59835359  0.56588552  1  0  0.236972  0.480571  0  4.099051  0
C  C55  1  0.80224903  0.09836020  0.93411181  1  0  0.237047  0.48078  0  4.098782  0
C  C56  1  0.37803618  0.54829317  0.30558584  1  0  -0.157183  -0.185524  0  3.853716  0
C  C57  1  0.12196034  0.04829502  0.19441464  1  0  -0.157194  -0.185559  0  3.853735  0
C  C58  1  0.62196490  0.45170109  0.69441536  1  0  -0.157119  -0.185413  0  3.853635  0
C  C59  1  0.87803807  0.95170993  0.80558722  1  0  -0.157234  -0.185706  0  3.853762  0
N  N60  1  0.19057575  0.27165334  0.56787758  1  0  -0.292852  -0.176168  0  3.544571  0
N  N61  1  0.30942201  0.77165651  0.93212523  1  0  -0.292811  -0.176123  0  3.544591  0
N  N62  1  0.80942536  0.72834413  0.43212503  1  0  -0.292783  -0.176124  0  3.544522  0
N  N63  1  0.69057505  0.22834844  0.06787591  1  0  -0.292926  -0.17624  0  3.544645  0
Cl  Cl64  1  0.08290201  0.89501283  0.60976879  1  0  -0.2779  -0.443786  0  1.286888  0
Cl  Cl65  1  0.41709039  0.39501955  0.89023381  1  0  -0.277894  -0.44382  0  1.286912  0
Cl  Cl66  1  0.91709905  0.10497715  0.39023170  1  0  -0.277906  -0.443802  0  1.286893  0
Cl  Cl67  1  0.58290403  0.60498540  0.10976941  1  0  -0.277914  -0.443834  0  1.286896  0
Cl  Cl68  1  0.41098497  0.89864239  0.39068474  1  0  -0.251128  -0.386711  0  1.349591  0
Cl  Cl69  1  0.08900888  0.39864339  0.10931531  1  0  -0.251114  -0.386702  0  1.349593  0
Cl  Cl70  1  0.58901205  0.10135294  0.60931428  1  0  -0.251096  -0.386676  0  1.349603  0
Cl  Cl71  1  0.91098547  0.60135836  0.89068367  1  0  -0.251129  -0.386716  0  1.349607  0
O  O72  1  0.34739134  0.29417198  0.39110218  1  0  -0.26615  -0.430245  0  2.222849  0
O  O73  1  0.15261055  0.79417809  0.10889811  1  0  -0.266147  -0.430295  0  2.222981  0
O  O74  1  0.65260973  0.70582015  0.60889831  1  0  -0.26613  -0.430262  0  2.222933  0
O  O75  1  0.84738781  0.20583114  0.89110093  1  0  -0.266217  -0.430413  0  2.222765  0
O  O76  1  0.31441493  0.53451654  0.40077155  1  0  -0.161749  -0.177647  0  2.584755  0
O  O77  1  0.18557891  0.03452077  0.09922891  1  0  -0.161803  -0.177652  0  2.584878  0
O  O78  1  0.68558212  0.46547665  0.59922888  1  0  -0.161799  -0.177715  0  2.584842  0
O  O79  1  0.81441947  0.96548632  0.90077154  1  0  -0.161825  -0.177743  0  2.584975  0
