# generated using pymatgen
data_H12PbC11(IN2)2
_symmetry_space_group_name_H-M   'P 1'
_cell_length_a   8.20489439
_cell_length_b   9.52809500
_cell_length_c   10.65673236
_cell_angle_alpha   71.61538604
_cell_angle_beta   81.75736622
_cell_angle_gamma   79.17532263
_symmetry_Int_Tables_number   1
_chemical_formula_structural   H12PbC11(IN2)2
_chemical_formula_sum   'H24 Pb2 C22 I4 N8'
_cell_volume   773.35283758
_cell_formula_units_Z   2
loop_
 _symmetry_equiv_pos_site_id
 _symmetry_equiv_pos_as_xyz
  1  'x, y, z'
loop_
 _atom_site_type_symbol
 _atom_site_label
 _atom_site_symmetry_multiplicity
 _atom_site_fract_x
 _atom_site_fract_y
 _atom_site_fract_z
 _atom_site_occupancy
 _atom_site_pbe_bader_spin_density
 _atom_site_pbe_cm5_charge
 _atom_site_pbe_ddec_charge
 _atom_site_pbe_ddec_spin_density
 _atom_site_pbe_ddec_sum_bond_order
 _atom_site_pbe_magmom
H  H0  1  0.63057605  0.12668944  0.51538184  1  0  0.109959  0.106697  0  1.027141  0
H  H1  1  0.36946203  0.87331460  0.48460492  1  0  0.109999  0.106852  0  1.026928  0
H  H2  1  0.74253840  0.97504369  0.32796367  1  0  0.109784  0.116498  0  1.047729  0
H  H3  1  0.25745248  0.02494881  0.67202861  1  0  0.1098  0.116573  0  1.047708  0
H  H4  1  0.50631357  0.19597831  0.01967859  1  0  0.103193  0.125107  0  1.038228  0
H  H5  1  0.49366784  0.80401863  0.98032471  1  0  0.103207  0.12508  0  1.038241  0
H  H6  1  0.57023838  0.00184690  0.10552965  1  0  0.094738  0.119333  0  1.029692  0
H  H7  1  0.42973306  0.99815780  0.89446782  1  0  0.094769  0.119309  0  1.029712  0
H  H8  1  0.72148442  0.12751664  0.04124574  1  0  0.104098  0.120578  0  1.030504  0
H  H9  1  0.27849687  0.87247465  0.95873946  1  0  0.104115  0.120538  0  1.030515  0
H  H10  1  0.27240659  0.49374459  0.92200112  1  0  0.094661  0.09959  0  1.053601  0
H  H11  1  0.72758541  0.50624123  0.07800700  1  0  0.094652  0.09966  0  1.053459  0
H  H12  1  0.09344333  0.68965124  0.76533082  1  0  0.085207  0.099522  0  1.050258  0
H  H13  1  0.90654408  0.31032560  0.23468315  1  0  0.085152  0.099471  0  1.050134  0
H  H14  1  0.87111525  0.87661745  0.08029348  1  0  0.093489  0.099004  0  1.03049  0
H  H15  1  0.12886940  0.12336830  0.91970794  1  0  0.09345  0.099002  0  1.030341  0
H  H16  1  0.04829930  0.68235700  0.23757584  1  0  0.085837  0.084353  0  1.082442  0
H  H17  1  0.95170264  0.31764232  0.76242176  1  0  0.085807  0.084341  0  1.082388  0
H  H18  1  0.78297488  0.99552599  0.86132153  1  0  0.083691  0.124115  0  1.020686  0
H  H19  1  0.21701614  0.00445194  0.13867111  1  0  0.08371  0.124075  0  1.020749  0
H  H20  1  0.79291739  0.87123569  0.76455961  1  0  0.084496  0.128276  0  1.028955  0
H  H21  1  0.20709518  0.12874575  0.23542878  1  0  0.084434  0.128116  0  1.028833  0
H  H22  1  0.94550164  0.98719983  0.73346432  1  0  0.076509  0.125812  0  1.050912  0
H  H23  1  0.05450446  0.01278274  0.26654697  1  0  0.076507  0.125756  0  1.050776  0
Pb  Pb24  1  0.27862108  0.46833026  0.44158417  1  0  0.356201  0.634179  0  2.329287  0
Pb  Pb25  1  0.72141626  0.53173992  0.55839801  1  0  0.356219  0.63416  0  2.329581  0
C  C26  1  0.59515414  0.15207157  0.41546286  1  0  0.020938  0.008797  0  3.980686  0
C  C27  1  0.40486753  0.84794134  0.58453252  1  0  0.020759  0.008532  0  3.980479  0
C  C28  1  0.65295784  0.07585123  0.32206249  1  0  0.022312  -0.066292  0  3.860634  0
C  C29  1  0.34704657  0.92415484  0.67793669  1  0  0.022366  -0.066242  0  3.860722  0
C  C30  1  0.46733264  0.27196328  0.23849456  1  0  0.315416  0.311109  0  4.085537  0
C  C31  1  0.53266948  0.72804167  0.76151082  1  0  0.315252  0.311002  0  4.085436  0
C  C32  1  0.59391156  0.11673691  0.08643742  1  0  -0.132631  -0.274767  0  3.863919  0
C  C33  1  0.40606230  0.88326109  0.91356075  1  0  -0.132666  -0.274657  0  3.864042  0
C  C34  1  0.17391627  0.57635189  0.08997856  1  0  0.085426  0.153184  0  4.055017  0
C  C35  1  0.82608852  0.42365196  0.91002590  1  0  0.085428  0.153487  0  4.054932  0
C  C36  1  0.18528580  0.57853056  0.95594778  1  0  -0.083622  -0.126013  0  3.938021  0
C  C37  1  0.81471173  0.42145193  0.04405600  1  0  -0.083754  -0.126577  0  3.938452  0
C  C38  1  0.08484938  0.68830320  0.86889116  1  0  -0.09284  -0.128229  0  3.935123  0
C  C39  1  0.91513830  0.31167248  0.13111185  1  0  -0.092662  -0.127898  0  3.93506  0
C  C40  1  0.97096098  0.79911404  0.91081799  1  0  0.001493  0.190967  0  3.926269  0
C  C41  1  0.02902748  0.20086391  0.08919274  1  0  0.001433  0.190748  0  3.926876  0
C  C42  1  0.95965975  0.79381691  0.04482090  1  0  -0.097938  -0.148072  0  3.976361  0
C  C43  1  0.04033021  0.20617338  0.95518618  1  0  -0.097835  -0.14788  0  3.976252  0
C  C44  1  0.05933846  0.68431525  0.13369925  1  0  -0.083326  -0.131194  0  3.973326  0
C  C45  1  0.94066571  0.31568522  0.86630154  1  0  -0.083273  -0.131225  0  3.973117  0
C  C46  1  0.86719373  0.91941203  0.81386030  1  0  -0.248289  -0.417253  0  3.949425  0
C  C47  1  0.13279200  0.08057483  0.18613225  1  0  -0.248224  -0.416935  0  3.94937  0
I  I48  1  0.01548892  0.24879327  0.50002810  1  0  -0.175363  -0.414078  0  1.325542  0
I  I49  1  0.98454553  0.75122990  0.49999772  1  0  -0.175255  -0.413946  0  1.325778  0
I  I50  1  0.44735614  0.31268802  0.71648727  1  0  -0.178836  -0.397832  0  1.274261  0
I  I51  1  0.55264301  0.68738191  0.28351128  1  0  -0.178763  -0.397779  0  1.274406  0
N  N52  1  0.48038637  0.27230235  0.36306459  1  0  -0.319173  -0.331821  0  3.4483  0
N  N53  1  0.51963957  0.72770050  0.63692850  1  0  -0.319038  -0.331769  0  3.448025  0
N  N54  1  0.57152494  0.15217564  0.21155221  1  0  -0.226862  0.047025  0  3.742605  0
N  N55  1  0.42846310  0.84783254  0.78844531  1  0  -0.226873  0.046922  0  3.742854  0
N  N56  1  0.37028434  0.36972991  0.14537833  1  0  -0.149654  -0.162519  0  3.327102  0
N  N57  1  0.62971443  0.63026606  0.85463370  1  0  -0.149546  -0.162364  0  3.32647  0
N  N58  1  0.27189975  0.47177407  0.18464922  1  0  -0.139036  -0.096163  0  3.394114  0
N  N59  1  0.72812230  0.52822987  0.81534397  1  0  -0.139048  -0.096262  0  3.393689  0
