# generated using pymatgen
data_ZnH26C34(NO)10
_symmetry_space_group_name_H-M   'P 1'
_cell_length_a   7.66896777
_cell_length_b   9.92475244
_cell_length_c   11.71645957
_cell_angle_alpha   110.76653641
_cell_angle_beta   89.76859144
_cell_angle_gamma   98.12400809
_symmetry_Int_Tables_number   1
_chemical_formula_structural   ZnH26C34(NO)10
_chemical_formula_sum   'Zn1 H26 C34 N10 O10'
_cell_volume   824.44379141
_cell_formula_units_Z   1
loop_
 _symmetry_equiv_pos_site_id
 _symmetry_equiv_pos_as_xyz
  1  'x, y, z'
loop_
 _atom_site_type_symbol
 _atom_site_label
 _atom_site_symmetry_multiplicity
 _atom_site_fract_x
 _atom_site_fract_y
 _atom_site_fract_z
 _atom_site_occupancy
 _atom_site_hle17_bader_spin_density
 _atom_site_hle17_ddec_charge
 _atom_site_hle17_ddec_spin_density
 _atom_site_hle17_ddec_sum_bond_order
 _atom_site_hle17_magmom
 _atom_site_hse06_10hf_bader_spin_density
 _atom_site_hse06_10hf_ddec_charge
 _atom_site_hse06_10hf_ddec_spin_density
 _atom_site_hse06_10hf_ddec_sum_bond_order
 _atom_site_hse06_10hf_magmom
 _atom_site_hse06_bader_spin_density
 _atom_site_hse06_ddec_charge
 _atom_site_hse06_ddec_spin_density
 _atom_site_hse06_ddec_sum_bond_order
 _atom_site_hse06_magmom
 _atom_site_pbe_bader_spin_density
 _atom_site_pbe_cm5_charge
 _atom_site_pbe_ddec_charge
 _atom_site_pbe_ddec_spin_density
 _atom_site_pbe_ddec_sum_bond_order
 _atom_site_pbe_magmom
Zn  Zn0  1  0.49999890  0.99999846  0.99999849  1  0  1.08138  0  1.698388  0  0  0.901246  0  2.135083  0  0  0.949187  0  2.08272  0  0  0.686187  0.867984  0  2.170619  0
H  H1  1  0.98271207  0.79553478  0.35755768  1  0  0.113827  0  0.91846  0  0  0.125357  0  0.974791  0  0  0.128517  0  0.971876  0  0  0.116968  0.122815  0  0.977373  0
H  H2  1  0.01729013  0.20446651  0.64243978  1  0  0.113859  0  0.91845  0  0  0.125379  0  0.974774  0  0  0.128539  0  0.971861  0  0  0.11698  0.122835  0  0.977355  0
H  H3  1  0.44150447  0.75384176  0.76782839  1  0  0.077341  0  0.977408  0  0  0.083756  0  1.04793  0  0  0.086574  0  1.044352  0  0  0.114399  0.081446  0  1.050796  0
H  H4  1  0.55850075  0.24615412  0.23216660  1  0  0.077348  0  0.977405  0  0  0.083748  0  1.047938  0  0  0.086568  0  1.044357  0  0  0.114394  0.08144  0  1.050807  0
H  H5  1  0.69448894  0.80748138  0.09499919  1  0  0.090921  0  0.939333  0  0  0.09908  0  1.003426  0  0  0.101914  0  1.000531  0  0  0.122463  0.096719  0  1.005966  0
H  H6  1  0.30550652  0.19251875  0.90500134  1  0  0.090888  0  0.939352  0  0  0.099091  0  1.003402  0  0  0.101923  0  1.000508  0  0  0.122463  0.09673  0  1.005934  0
H  H7  1  0.83940768  0.04581313  0.10450735  1  0  0.422316  0  0.816613  0  0  0.409851  0  0.864041  0  0  0.417533  0  0.855196  0  0  0.321369  0.404168  0  0.870808  0
H  H8  1  0.16059658  0.95418491  0.89548999  1  0  0.422338  0  0.816555  0  0  0.409875  0  0.863984  0  0  0.417557  0  0.855138  0  0  0.321383  0.404193  0  0.870733  0
H  H9  1  0.84083161  0.19057624  0.07907740  1  0  0.393614  0  0.919794  0  0  0.352573  0  1.000661  0  0  0.36437  0  0.983496  0  0  0.285164  0.344522  0  1.012353  0
H  H10  1  0.15916907  0.80942395  0.92092314  1  0  0.3936  0  0.919816  0  0  0.352563  0  1.000677  0  0  0.364359  0  0.983513  0  0  0.285163  0.344509  0  1.012373  0
H  H11  1  0.29876934  0.68351296  0.60511726  1  0  0.073793  0  0.945538  0  0  0.084894  0  1.008185  0  0  0.087081  0  1.005978  0  0  0.115537  0.083167  0  1.009915  0
H  H12  1  0.70122983  0.31649373  0.39488268  1  0  0.073746  0  0.945594  0  0  0.08486  0  1.008221  0  0  0.087048  0  1.006016  0  0  0.115529  0.083134  0  1.009955  0
H  H13  1  0.16379272  0.87305738  0.55602814  1  0  0.10915  0  0.939367  0  0  0.121254  0  0.992684  0  0  0.123482  0  0.99369  0  0  0.111025  0.119532  0  0.992315  0
H  H14  1  0.83621002  0.12694718  0.44396774  1  0  0.109171  0  0.939379  0  0  0.121262  0  0.992682  0  0  0.123491  0  0.993687  0  0  0.111035  0.11954  0  0.99232  0
H  H15  1  0.07955556  0.35563393  0.28983799  1  0  0.092269  0  0.936375  0  0  0.096847  0  1.006186  0  0  0.10072  0  1.002229  0  0  0.119138  0.093968  0  1.009111  0
H  H16  1  0.92044156  0.64436840  0.71016490  1  0  0.09226  0  0.936363  0  0  0.096841  0  1.006176  0  0  0.100715  0  1.002215  0  0  0.11912  0.093935  0  1.009119  0
H  H17  1  0.63680519  0.38437765  0.80757750  1  0  0.109209  0  0.979209  0  0  0.11904  0  1.041427  0  0  0.121914  0  1.039818  0  0  0.111367  0.11678  0  1.042879  0
H  H18  1  0.36319234  0.61561924  0.19242377  1  0  0.109215  0  0.979253  0  0  0.118972  0  1.041559  0  0  0.121852  0  1.039933  0  0  0.111342  0.116715  0  1.043004  0
H  H19  1  0.47781521  0.48724459  0.67940218  1  0  0.119651  0  0.968406  0  0  0.128241  0  1.028449  0  0  0.132073  0  1.026651  0  0  0.109241  0.125453  0  1.029985  0
H  H20  1  0.52218624  0.51275235  0.32059739  1  0  0.119654  0  0.968407  0  0  0.128245  0  1.028456  0  0  0.132077  0  1.026659  0  0  0.10925  0.125457  0  1.03  0
H  H21  1  0.58793412  0.78082491  0.34340225  1  0  0.10866  0  0.948911  0  0  0.11621  0  1.015641  0  0  0.120148  0  1.013097  0  0  0.105741  0.113132  0  1.017995  0
H  H22  1  0.41206786  0.21917529  0.65660001  1  0  0.108683  0  0.948906  0  0  0.11623  0  1.015646  0  0  0.120174  0  1.01308  0  0  0.105745  0.113151  0  1.017992  0
H  H23  1  0.27802164  0.40367813  0.47776348  1  0  0.335745  0  0.960509  0  0  0.296331  0  1.051648  0  0  0.309429  0  1.04024  0  0  0.284622  0.287368  0  1.059101  0
H  H24  1  0.72197643  0.59632203  0.52223792  1  0  0.335749  0  0.960519  0  0  0.296326  0  1.051681  0  0  0.30942  0  1.040279  0  0  0.284634  0.287362  0  1.059141  0
H  H25  1  0.75454519  0.30306353  0.93842833  1  0  0.320798  0  0.932998  0  0  0.294951  0  1.00227  0  0  0.305114  0  0.993776  0  0  0.315536  0.287869  0  1.00801  0
H  H26  1  0.24545270  0.69693555  0.06157359  1  0  0.320807  0  0.933021  0  0  0.294973  0  1.002276  0  0  0.305136  0  0.993783  0  0  0.31555  0.287887  0  1.008024  0
C  C27  1  0.21568669  0.65497117  0.52234213  1  0  0.131058  0  3.693015  0  0  0.093195  0  3.955211  0  0  0.10045  0  3.972611  0  0  0.050471  0.08884  0  3.94304  0
C  C28  1  0.78431175  0.34503117  0.47765735  1  0  0.131178  0  3.692955  0  0  0.093301  0  3.95516  0  0  0.100552  0  3.972566  0  0  0.050541  0.088941  0  3.943005  0
C  C29  1  0.14094779  0.75994302  0.49428664  1  0  -0.106204  0  3.732943  0  0  -0.119026  0  3.991319  0  0  -0.127033  0  4.014855  0  0  -0.076562  -0.113903  0  3.975379  0
C  C30  1  0.85905458  0.24005936  0.50571200  1  0  -0.106236  0  3.73308  0  0  -0.119026  0  3.991406  0  0  -0.127035  0  4.014943  0  0  -0.07657  -0.113904  0  3.975473  0
C  C31  1  0.04004800  0.71718374  0.38565974  1  0  -0.00094  0  3.642297  0  0  -0.033656  0  3.894923  0  0  -0.028573  0  3.910052  0  0  -0.050826  -0.036701  0  3.884772  0
C  C32  1  0.95995193  0.28281970  0.61434007  1  0  -0.001072  0  3.642316  0  0  -0.033749  0  3.894925  0  0  -0.028663  0  3.910053  0  0  -0.050915  -0.036789  0  3.884766  0
C  C33  1  0.01381350  0.56994893  0.30901355  1  0  -0.04198  0  3.772788  0  0  -0.019869  0  4.010092  0  0  -0.025435  0  4.031141  0  0  0.002205  -0.01675  0  3.99607  0
C  C34  1  0.98618512  0.43005450  0.69098711  1  0  -0.041916  0  3.772774  0  0  -0.019863  0  4.01014  0  0  -0.025427  0  4.031188  0  0  0.002248  -0.016745  0  3.996103  0
C  C35  1  0.09255773  0.47149915  0.34517891  1  0  0.092624  0  3.68616  0  0  0.048992  0  3.94301  0  0  0.055545  0  3.959736  0  0  0.052805  0.045064  0  3.931672  0
C  C36  1  0.90744052  0.52850210  0.65482281  1  0  0.092622  0  3.686268  0  0  0.048993  0  3.943133  0  0  0.055544  0  3.959861  0  0  0.052809  0.045092  0  3.931789  0
C  C37  1  0.91346953  0.52455235  0.19278127  1  0  0.297597  0  3.816145  0  0  0.269905  0  4.098028  0  0  0.281766  0  4.115517  0  0  0.212703  0.262388  0  4.085754  0
C  C38  1  0.08652854  0.47544782  0.80722013  1  0  0.297642  0  3.816126  0  0  0.26997  0  4.097995  0  0  0.281833  0  4.115483  0  0  0.212729  0.262453  0  4.085714  0
C  C39  1  0.77259615  0.53777649  0.04242745  1  0  0.320124  0  3.796591  0  0  0.281106  0  4.075065  0  0  0.296413  0  4.090257  0  0  0.224177  0.271414  0  4.064102  0
C  C40  1  0.22740174  0.46222259  0.95757362  1  0  0.320136  0  3.796551  0  0  0.28109  0  4.075063  0  0  0.296398  0  4.090257  0  0  0.224168  0.271396  0  4.06409  0
C  C41  1  0.68082141  0.58946798  0.96110091  1  0  -0.0548  0  3.796837  0  0  -0.033637  0  4.039835  0  0  -0.040944  0  4.062142  0  0  -0.001552  -0.029306  0  4.024903  0
C  C42  1  0.31917614  0.41052891  0.03889609  1  0  -0.054756  0  3.796857  0  0  -0.033562  0  4.039817  0  0  -0.04086  0  4.062099  0  0  -0.001529  -0.029223  0  4.024874  0
C  C43  1  0.61675472  0.49838231  0.84300795  1  0  -0.032882  0  3.669793  0  0  -0.064687  0  3.921786  0  0  -0.060335  0  3.939217  0  0  -0.064459  -0.067458  0  3.910405  0
C  C44  1  0.38324133  0.50161347  0.15699043  1  0  -0.033044  0  3.669823  0  0  -0.064795  0  3.921836  0  0  -0.060442  0  3.93927  0  0  -0.064483  -0.067565  0  3.910459  0
C  C45  1  0.52849696  0.55554797  0.77150000  1  0  -0.110878  0  3.716309  0  0  -0.122919  0  3.974956  0  0  -0.130826  0  3.995762  0  0  -0.084079  -0.118161  0  3.961534  0
C  C46  1  0.47150356  0.44445113  0.22849851  1  0  -0.110804  0  3.71626  0  0  -0.122865  0  3.974894  0  0  -0.130772  0  3.995702  0  0  -0.084061  -0.118107  0  3.961485  0
C  C47  1  0.50634548  0.70124894  0.81924452  1  0  0.142444  0  3.678328  0  0  0.102115  0  3.936542  0  0  0.110768  0  3.953883  0  0  0.048437  0.096441  0  3.924956  0
C  C48  1  0.49365729  0.29874801  0.18075165  1  0  0.142453  0  3.678292  0  0  0.102141  0  3.936485  0  0  0.110794  0  3.953827  0  0  0.048434  0.096463  0  3.924911  0
C  C49  1  0.65062821  0.73453034  0.00269201  1  0  0.1216  0  3.638357  0  0  0.078967  0  3.88553  0  0  0.087271  0  3.901848  0  0  0.059189  0.074016  0  3.873978  0
C  C50  1  0.34937081  0.26546766  0.99730618  1  0  0.121709  0  3.638428  0  0  0.079018  0  3.885599  0  0  0.087322  0  3.901918  0  0  0.05923  0.074065  0  3.874035  0
C  C51  1  0.41814762  0.92871893  0.23904602  1  0  0.682795  0  3.897578  0  0  0.628972  0  4.204595  0  0  0.663658  0  4.193927  0  0  0.215802  0.605602  0  4.210999  0
C  C52  1  0.58184913  0.07128123  0.76095793  1  0  0.682904  0  3.897492  0  0  0.629063  0  4.204549  0  0  0.663749  0  4.19388  0  0  0.215838  0.605689  0  4.210951  0
C  C53  1  0.45817606  0.96904718  0.37475490  1  0  -0.046209  0  3.704589  0  0  -0.035664  0  3.945262  0  0  -0.038204  0  3.963304  0  0  -0.004589  -0.034049  0  3.933235  0
C  C54  1  0.54182836  0.03095196  0.62524619  1  0  -0.04618  0  3.704499  0  0  -0.035628  0  3.945173  0  0  -0.038165  0  3.963212  0  0  -0.004575  -0.034009  0  3.933125  0
C  C55  1  0.54788284  0.87718574  0.41184485  1  0  -0.098088  0  3.711223  0  0  -0.131978  0  3.967617  0  0  -0.131792  0  3.984967  0  0  -0.083808  -0.131904  0  3.956341  0
C  C56  1  0.45212082  0.12281666  0.58815550  1  0  -0.098227  0  3.711263  0  0  -0.13212  0  3.967651  0  0  -0.13193  0  3.984999  0  0  -0.083848  -0.132035  0  3.956367  0
C  C57  1  0.40973774  0.09374460  0.46454699  1  0  -0.074249  0  3.737806  0  0  -0.061952  0  3.977194  0  0  -0.066728  0  3.997532  0  0  -0.012644  -0.059346  0  3.963758  0
C  C58  1  0.59026573  0.90625671  0.53545645  1  0  -0.07434  0  3.737954  0  0  -0.062066  0  3.97737  0  0  -0.06685  0  3.997704  0  0  -0.012644  -0.059434  0  3.963906  0
C  C59  1  0.31248993  0.19465022  0.42868197  1  0  0.637109  0  3.846379  0  0  0.588552  0  4.150228  0  0  0.620206  0  4.142476  0  0  0.218868  0.567369  0  4.154373  0
C  C60  1  0.68750893  0.80534668  0.57131161  1  0  0.637279  0  3.846298  0  0  0.588771  0  4.150043  0  0  0.620449  0  4.142263  0  0  0.219014  0.567561  0  4.154217  0
N  N61  1  0.56483855  0.78870712  0.93335936  1  0  -0.322523  0  3.294697  0  0  -0.235014  0  3.558724  0  0  -0.255183  0  3.575493  0  0  -0.323182  -0.221467  0  3.546857  0
N  N62  1  0.43516179  0.21129089  0.06663882  1  0  -0.322622  0  3.294732  0  0  -0.235094  0  3.558741  0  0  -0.255265  0  3.57551  0  0  -0.323216  -0.221547  0  3.546875  0
N  N63  1  0.84496659  0.62054195  0.15345355  1  0  -0.457669  0  2.918538  0  0  -0.432129  0  3.194614  0  0  -0.448361  0  3.205664  0  0  -0.331459  -0.42095  0  3.186927  0
N  N64  1  0.15503279  0.37945822  0.84654699  1  0  -0.457675  0  2.918514  0  0  -0.432129  0  3.194594  0  0  -0.448364  0  3.205647  0  0  -0.331455  -0.420946  0  3.186894  0
N  N65  1  0.88551224  0.38652018  0.11169378  1  0  -0.295111  0  2.951586  0  0  -0.264846  0  3.210248  0  0  -0.277812  0  3.227894  0  0  -0.215269  -0.256059  0  3.198076  0
N  N66  1  0.11448713  0.61348000  0.88830847  1  0  -0.295103  0  2.951502  0  0  -0.264826  0  3.210151  0  0  -0.277789  0  3.227799  0  0  -0.215269  -0.256039  0  3.197981  0
N  N67  1  0.79671697  0.39760768  0.01696692  1  0  -0.218213  0  3.405977  0  0  -0.154565  0  3.639118  0  0  -0.170272  0  3.657731  0  0  -0.257668  -0.144301  0  3.626491  0
N  N68  1  0.20328109  0.60239248  0.98303533  1  0  -0.218232  0  3.405956  0  0  -0.154598  0  3.639107  0  0  -0.170311  0  3.657728  0  0  -0.25768  -0.144336  0  3.626489  0
N  N69  1  0.19167147  0.51414124  0.44907623  1  0  -0.295675  0  3.280698  0  0  -0.226772  0  3.526033  0  0  -0.242681  0  3.545567  0  0  -0.310751  -0.216262  0  3.512449  0
N  N70  1  0.80832471  0.48586326  0.55092560  1  0  -0.295722  0  3.280644  0  0  -0.226819  0  3.525998  0  0  -0.242727  0  3.545536  0  0  -0.310787  -0.216305  0  3.512404  0
O  O71  1  0.50983994  0.00481621  0.18624316  1  0  -0.66951  0  2.05506  0  0  -0.609647  0  2.320542  0  0  -0.638322  0  2.308111  0  0  -0.322887  -0.589307  0  2.328245  0
O  O72  1  0.49015498  0.99518066  0.81375639  1  0  -0.669536  0  2.055121  0  0  -0.609684  0  2.320616  0  0  -0.63836  0  2.308186  0  0  -0.322912  -0.589347  0  2.328314  0
O  O73  1  0.30557886  0.81665125  0.18984196  1  0  -0.605284  0  1.998332  0  0  -0.559882  0  2.228223  0  0  -0.583557  0  2.218623  0  0  -0.313361  -0.542898  0  2.234169  0
O  O74  1  0.69441397  0.18334886  0.81016197  1  0  -0.605304  0  1.998299  0  0  -0.559899  0  2.228206  0  0  -0.583574  0  2.218608  0  0  -0.313359  -0.542917  0  2.234144  0
O  O75  1  0.20990040  0.15249763  0.33796099  1  0  -0.546379  0  1.880367  0  0  -0.509002  0  2.083908  0  0  -0.527561  0  2.07686  0  0  -0.301843  -0.495814  0  2.08831  0
O  O76  1  0.79011725  0.84750275  0.66204302  1  0  -0.546621  0  1.879948  0  0  -0.509265  0  2.083469  0  0  -0.527832  0  2.076402  0  0  -0.302025  -0.496074  0  2.08788  0
O  O77  1  0.34996597  0.33243730  0.50448143  1  0  -0.561038  0  2.135134  0  0  -0.509442  0  2.372861  0  0  -0.532709  0  2.361564  0  0  -0.334612  -0.493157  0  2.379509  0
O  O78  1  0.65003472  0.66756289  0.49551912  1  0  -0.561005  0  2.135368  0  0  -0.509423  0  2.3731  0  0  -0.532694  0  2.361796  0  0  -0.33462  -0.493135  0  2.379757  0
O  O79  1  0.79431248  0.08426978  0.04667685  1  0  -0.795612  0  1.869862  0  0  -0.746014  0  2.05963  0  0  -0.763111  0  2.028685  0  0  -0.570747  -0.734161  0  2.081246  0
O  O80  1  0.20568785  0.91572823  0.95332305  1  0  -0.795624  0  1.869857  0  0  -0.746034  0  2.059621  0  0  -0.76313  0  2.028675  0  0  -0.570771  -0.734188  0  2.081226  0
