# generated using pymatgen
data_CoTe6H24C30(N3Cl)2
_symmetry_space_group_name_H-M   'P 1'
_cell_length_a   9.34796518
_cell_length_b   9.34777111
_cell_length_c   40.41509365
_cell_angle_alpha   89.98144288
_cell_angle_beta   90.02024277
_cell_angle_gamma   89.96411994
_symmetry_Int_Tables_number   1
_chemical_formula_structural   CoTe6H24C30(N3Cl)2
_chemical_formula_sum   'Co4 Te24 H96 C120 N24 Cl8'
_cell_volume   3531.57643435
_cell_formula_units_Z   4
loop_
 _symmetry_equiv_pos_site_id
 _symmetry_equiv_pos_as_xyz
  1  'x, y, z'
loop_
 _atom_site_type_symbol
 _atom_site_label
 _atom_site_symmetry_multiplicity
 _atom_site_fract_x
 _atom_site_fract_y
 _atom_site_fract_z
 _atom_site_occupancy
 _atom_site_pbe_bader_charge
 _atom_site_pbe_bader_spin_density
 _atom_site_pbe_cm5_charge
 _atom_site_pbe_ddec_charge
 _atom_site_pbe_ddec_spin_density
 _atom_site_pbe_ddec_sum_bond_order
 _atom_site_pbe_magmom
Co  Co0  1  0.16308147  0.83765200  0.25012733  1  1.1545  2.552778  0.576762  0.643152  2.789351  2.543717  2.528
Co  Co1  1  0.83768640  0.16304522  0.74987209  1  1.154593  2.552817  0.576935  0.643642  2.789472  2.543685  2.528
Co  Co2  1  0.66236473  0.66250177  0.50003799  1  1.162318  2.552291  0.57727  0.644112  2.789647  2.544299  2.528
Co  Co3  1  0.33770074  0.33702053  0.00011674  1  1.154475  2.552628  0.576624  0.643313  2.789315  2.544637  2.528
Te  Te4  1  0.56091876  0.10686033  0.33863233  1  0.359557  0.004974  0.15445  0.09006  0.003756  2.70405  0.002
Te  Te5  1  0.43895536  0.89250347  0.83851207  1  0.360042  0.004684  0.154963  0.091196  0.003588  2.709452  0.001
Te  Te6  1  0.06031396  0.39223205  0.41154316  1  0.358596  0.006081  0.155515  0.091402  0.004897  2.708731  0.002
Te  Te7  1  0.93892244  0.60731348  0.91152466  1  0.360219  0.004758  0.15504  0.091599  0.003638  2.7095  0.001
Te  Te8  1  0.89251031  0.43935735  0.16157655  1  0.361072  0.004934  0.155095  0.091329  0.003812  2.709799  0.002
Te  Te9  1  0.10691838  0.56061460  0.66140308  1  0.35898  0.004986  0.154412  0.090196  0.003764  2.705793  0.002
Te  Te10  1  0.60755385  0.93904246  0.08847169  1  0.360458  0.00516  0.154675  0.090648  0.00396  2.709055  0.002
Te  Te11  1  0.39204619  0.06033186  0.58845041  1  0.358902  0.00607  0.155546  0.091287  0.004893  2.708449  0.002
Te  Te12  1  0.70397835  0.24080380  0.38889854  1  0.273641  0.010104  0.164012  0.116828  0.006827  2.582121  0.007
Te  Te13  1  0.29507350  0.75928168  0.88871643  1  0.274573  0.010197  0.164005  0.116966  0.006932  2.58299  0.007
Te  Te14  1  0.20443016  0.25891423  0.36140424  1  0.279632  0.013324  0.16581  0.119257  0.009417  2.584645  0.008
Te  Te15  1  0.79504316  0.74083508  0.86129662  1  0.274887  0.010348  0.163634  0.116378  0.007051  2.583384  0.007
Te  Te16  1  0.75917905  0.29533672  0.11138461  1  0.276781  0.01231  0.164846  0.117848  0.008715  2.583408  0.008
Te  Te17  1  0.24081952  0.70382375  0.61114968  1  0.274119  0.010181  0.163877  0.116651  0.006889  2.582364  0.007
Te  Te18  1  0.74078694  0.79543619  0.13874223  1  0.274955  0.010387  0.163993  0.116857  0.007067  2.584842  0.007
Te  Te19  1  0.25893015  0.20431292  0.63863491  1  0.279935  0.013292  0.165759  0.119206  0.009388  2.585063  0.008
Te  Te20  1  0.57470197  0.21892269  0.24775991  1  0.287713  0.001978  0.118722  0.053759  0.001309  2.673831  0.001
Te  Te21  1  0.42569363  0.78135194  0.74786664  1  0.308901  0.002189  0.119636  0.055624  0.001478  2.677787  0.001
Te  Te22  1  0.07467970  0.28120513  0.50219029  1  0.291061  0.003742  0.120259  0.057363  0.003054  2.681619  0.002
Te  Te23  1  0.92592784  0.71889077  0.00204237  1  0.30884  0.002201  0.11941  0.055316  0.001486  2.679755  0.001
Te  Te24  1  0.78103947  0.42582950  0.25213470  1  0.308865  0.002176  0.119577  0.055368  0.001465  2.677633  0.001
Te  Te25  1  0.21915303  0.57472151  0.75223114  1  0.287767  0.001976  0.118668  0.053822  0.001308  2.674245  0.001
Te  Te26  1  0.71898825  0.92544502  0.99774401  1  0.288138  0.001993  0.118451  0.053239  0.00132  2.676449  0.001
Te  Te27  1  0.28130352  0.07476066  0.49769433  1  0.309157  0.003751  0.120226  0.057072  0.003067  2.680404  0.002
H  H28  1  0.83944265  0.76669728  0.25753045  1  0.093572  0.001282  0.094459  0.069717  0.000272  1.072368  0.001
H  H29  1  0.16133773  0.23411244  0.75753957  1  0.118122  0.001251  0.094318  0.069424  0.000244  1.072753  0.001
H  H30  1  0.33755846  0.73267559  0.49271785  1  0.112522  0.001232  0.094308  0.070537  0.000188  1.073878  0.001
H  H31  1  0.66159850  0.26582599  0.99244589  1  0.118274  0.001248  0.094318  0.069682  0.000244  1.072404  0.001
H  H32  1  0.23429424  0.16141177  0.24247187  1  0.117487  0.00125  0.094317  0.069684  0.000243  1.072123  0.001
H  H33  1  0.76663118  0.83922854  0.74246264  1  0.093535  0.001281  0.094593  0.069744  0.000271  1.072338  0.001
H  H34  1  0.26652004  0.66074264  0.00752315  1  0.093193  0.001282  0.094461  0.069682  0.000271  1.072284  0.001
H  H35  1  0.73232026  0.33778776  0.50728129  1  0.114969  0.001236  0.094338  0.070811  0.00019  1.073047  0.001
H  H36  1  0.62321618  0.86323418  0.28634358  1  0.08997  0.001042  0.094243  0.10981  0.00049  1.037565  0.0
H  H37  1  0.37717614  0.13714163  0.78646304  1  0.092397  0.000971  0.093999  0.109531  0.000462  1.038381  0.0
H  H38  1  0.12177193  0.63631052  0.46366852  1  0.081879  0.000769  0.09401  0.109101  0.000313  1.039688  0.0
H  H39  1  0.87731612  0.36273863  0.96355965  1  0.091811  0.000966  0.093988  0.109238  0.00046  1.038794  0.0
H  H40  1  0.13721669  0.37738977  0.21361239  1  0.089045  0.00097  0.094069  0.109473  0.000459  1.038569  0.0
H  H41  1  0.86330335  0.62294434  0.71368399  1  0.087934  0.001041  0.094154  0.10955  0.00049  1.037894  0.0
H  H42  1  0.36323864  0.87694810  0.03628498  1  0.088001  0.001041  0.094156  0.109517  0.00049  1.037878  0.0
H  H43  1  0.63593120  0.12191196  0.53630158  1  0.083778  0.000767  0.093921  0.108887  0.000313  1.039663  0.0
H  H44  1  0.90627775  0.15255052  0.33825407  1  0.079395  0.000641  0.073121  0.057656  0.000251  1.146526  0.0
H  H45  1  0.09340614  0.84778737  0.83812918  1  0.083615  0.000629  0.072938  0.057473  0.000232  1.146039  0.0
H  H46  1  0.40582721  0.34703468  0.41201899  1  0.085081  0.000648  0.07286  0.057318  0.000252  1.146563  0.0
H  H47  1  0.59327297  0.65225678  0.91187056  1  0.083074  0.000628  0.072973  0.057616  0.000232  1.146211  0.0
H  H48  1  0.84770524  0.09383526  0.16193954  1  0.086178  0.000662  0.072884  0.057387  0.000268  1.146912  0.0
H  H49  1  0.15257451  0.90596582  0.66176486  1  0.078724  0.000641  0.072875  0.057456  0.000251  1.14658  0.0
H  H50  1  0.65283737  0.59366698  0.08819280  1  0.079642  0.000644  0.07287  0.057385  0.000253  1.147291  0.0
H  H51  1  0.34675778  0.40588651  0.58800653  1  0.081886  0.00065  0.073051  0.057789  0.000251  1.146858  0.0
H  H52  1  0.10675074  0.04573842  0.30697461  1  0.108091  0.001392  0.089136  0.062835  0.000406  1.094219  0.001
H  H53  1  0.89321794  0.95540370  0.80685030  1  0.109494  0.00138  0.089284  0.06357  0.000417  1.093631  0.001
H  H54  1  0.60563166  0.45307370  0.44364702  1  0.11409  0.001408  0.08919  0.063328  0.000342  1.095139  0.001
H  H55  1  0.39321629  0.54468478  0.94311413  1  0.109943  0.001377  0.089273  0.063387  0.000416  1.093839  0.001
H  H56  1  0.95545724  0.89351265  0.19313296  1  0.110495  0.00138  0.089391  0.063593  0.000417  1.09349  0.001
H  H57  1  0.04566484  0.10650127  0.69301225  1  0.109727  0.001389  0.089375  0.063308  0.000405  1.093804  0.001
H  H58  1  0.54580705  0.39323386  0.05698434  1  0.10808  0.001386  0.089196  0.062889  0.000401  1.094465  0.001
H  H59  1  0.45279691  0.60575512  0.55641146  1  0.112183  0.001412  0.089061  0.063288  0.000344  1.095114  0.001
H  H60  1  0.74081592  0.98329750  0.50394849  1  0.081838  0.001618  0.107999  0.0841  0.000357  1.025268  0.001
H  H61  1  0.26141445  0.01786966  0.00355872  1  0.096906  0.001685  0.106866  0.082158  0.00053  1.028673  0.001
H  H62  1  0.23868303  0.51770536  0.24653067  1  0.103675  0.001736  0.107493  0.083242  0.000476  1.027637  0.001
H  H63  1  0.76135437  0.48239046  0.74642979  1  0.095896  0.001688  0.106946  0.082432  0.000531  1.02842  0.001
H  H64  1  0.01779219  0.26159270  0.99652011  1  0.103432  0.001737  0.107458  0.083199  0.000477  1.027631  0.001
H  H65  1  0.98313113  0.74079814  0.49612738  1  0.083889  0.001622  0.107814  0.083715  0.000357  1.026194  0.001
H  H66  1  0.48218066  0.76125126  0.25355363  1  0.097218  0.001686  0.106888  0.082291  0.000532  1.028798  0.001
H  H67  1  0.51790705  0.23875341  0.75345876  1  0.104516  0.001734  0.107568  0.083446  0.000477  1.02749  0.001
H  H68  1  0.74685252  0.19356920  0.46585674  1  0.074638  0.000796  0.094734  0.105692  0.000337  1.050655  0.0
H  H69  1  0.25269492  0.80761956  0.96567620  1  0.0836  0.00107  0.094977  0.10595  0.00051  1.048689  0.0
H  H70  1  0.24754872  0.30714567  0.28444606  1  0.080759  0.000992  0.095175  0.106134  0.000464  1.048578  0.0
H  H71  1  0.75261177  0.69263397  0.78431728  1  0.081316  0.001074  0.094925  0.105996  0.000512  1.048554  0.0
H  H72  1  0.80736246  0.25266148  0.03441718  1  0.082819  0.000986  0.095195  0.10649  0.000461  1.048582  0.0
H  H73  1  0.19345798  0.74685341  0.53418874  1  0.076631  0.000796  0.09481  0.10561  0.000338  1.050161  0.0
H  H74  1  0.69242589  0.75280454  0.21567028  1  0.083314  0.00107  0.095023  0.106077  0.00051  1.048402  0.0
H  H75  1  0.30733979  0.24743185  0.71555332  1  0.082044  0.000991  0.09526  0.106288  0.000464  1.048858  0.0
H  H76  1  0.68647327  0.89325098  0.38504035  1  0.101346  0.000789  0.091716  0.093344  0.000306  1.08932  0.0
H  H77  1  0.31400708  0.10669308  0.88459449  1  0.124364  0.000694  0.091582  0.09318  0.000286  1.089136  0.0
H  H78  1  0.18512898  0.60602692  0.36549482  1  0.124586  0.000675  0.091449  0.093075  0.000256  1.089579  0.0
H  H79  1  0.81414098  0.39345785  0.86539159  1  0.125448  0.000694  0.091353  0.092818  0.000286  1.089618  0.0
H  H80  1  0.10632383  0.31473433  0.11549395  1  0.125033  0.000673  0.091327  0.092817  0.000255  1.089623  0.0
H  H81  1  0.89333476  0.68613978  0.61503653  1  0.102621  0.000788  0.092015  0.093925  0.000306  1.088756  0.0
H  H82  1  0.39329477  0.81421441  0.13458650  1  0.124722  0.000698  0.091632  0.093217  0.000288  1.089227  0.0
H  H83  1  0.60615830  0.18517366  0.63448953  1  0.123454  0.000676  0.091176  0.0925  0.000258  1.089461  0.0
H  H84  1  0.68847289  0.70100710  0.42573542  1  0.123943  0.001486  0.107918  0.079843  0.000555  1.050746  0.001
H  H85  1  0.31527211  0.29932201  0.92520877  1  0.121902  0.001249  0.108235  0.079316  0.000114  1.052071  0.001
H  H86  1  0.18436158  0.79885018  0.32486956  1  0.125676  0.001318  0.108518  0.079729  0.000189  1.052408  0.001
H  H87  1  0.81533958  0.20085703  0.82477939  1  0.122781  0.00125  0.108383  0.079503  0.000115  1.052339  0.001
H  H88  1  0.29903831  0.31561381  0.07487318  1  0.12402  0.00132  0.108497  0.079719  0.000189  1.052033  0.001
H  H89  1  0.70103137  0.68808769  0.57436308  1  0.12528  0.001487  0.107879  0.079671  0.000555  1.05032  0.001
H  H90  1  0.20062464  0.81516531  0.17519830  1  0.120633  0.001249  0.108251  0.079567  0.000115  1.051649  0.001
H  H91  1  0.79903784  0.18456816  0.67512015  1  0.124611  0.001317  0.108484  0.079769  0.000187  1.051574  0.001
H  H92  1  0.46605602  0.04873659  0.18785972  1  0.0723  -2.8e-05  0.093302  0.107959  -9.3e-05  1.049613  0.0
H  H93  1  0.53486242  0.95142259  0.68800194  1  0.070965  -1.6e-05  0.09298  0.107468  -7.5e-05  1.050489  0.0
H  H94  1  0.96502088  0.45138612  0.56198444  1  0.068421  -3.1e-05  0.093009  0.107891  -0.000102  1.048951  0.0
H  H95  1  0.03472155  0.54864028  0.06198637  1  0.069051  -1.7e-05  0.093069  0.107715  -7.4e-05  1.050006  0.0
H  H96  1  0.95121326  0.53446188  0.31203007  1  0.071637  -1.5e-05  0.093241  0.108122  -7.4e-05  1.049708  0.0
H  H97  1  0.04889604  0.46642585  0.81215114  1  0.072348  -2.8e-05  0.093284  0.107921  -9.3e-05  1.049595  0.0
H  H98  1  0.54856636  0.03387742  0.93778227  1  0.072968  -2.8e-05  0.093264  0.108124  -9.3e-05  1.049419  0.0
H  H99  1  0.45142054  0.96528238  0.43787981  1  0.069787  -3.1e-05  0.093175  0.108112  -0.000102  1.049053  0.0
H  H100  1  0.34668032  0.09928872  0.13423954  1  0.0708  -1.9e-05  0.102013  0.06909  -4.2e-05  1.022685  0.0
H  H101  1  0.65362366  0.90086645  0.63434113  1  0.073001  -2e-06  0.101629  0.068346  -2.3e-05  1.023113  0.0
H  H102  1  0.84622497  0.40082725  0.61564880  1  0.073255  -1.7e-05  0.10191  0.068688  -4.5e-05  1.022733  0.0
H  H103  1  0.15327618  0.59919694  0.11569848  1  0.072421  -2.9e-05  0.101844  0.06876  -5.2e-05  1.022692  0.0
H  H104  1  0.90077600  0.65330810  0.36568865  1  0.07255  -2e-06  0.101836  0.068568  -2.3e-05  1.022938  0.0
H  H105  1  0.09937562  0.34699223  0.86576959  1  0.070559  -2.7e-05  0.101973  0.069024  -5e-05  1.022572  0.0
H  H106  1  0.59902536  0.15324946  0.88417216  1  0.075902  -2.7e-05  0.101646  0.068385  -5e-05  1.02346  0.0
H  H107  1  0.40088302  0.84608264  0.38426314  1  0.07026  -1.6e-05  0.101817  0.068328  -4.4e-05  1.022924  0.0
H  H108  1  0.49435793  0.50529625  0.20350521  1  0.057992  -4.9e-05  0.087508  0.093356  -0.000104  1.076452  0.0
H  H109  1  0.50555948  0.49489917  0.70360909  1  0.060238  -3.9e-05  0.087572  0.093374  -7.9e-05  1.076302  0.0
H  H110  1  0.99449134  0.99476226  0.54641413  1  0.05939  -6.9e-05  0.087723  0.093391  -0.000125  1.076623  0.0
H  H111  1  0.00568620  0.00518851  0.04628497  1  0.099628  -4e-05  0.087427  0.093265  -7.9e-05  1.076066  0.0
H  H112  1  0.49467356  0.50567946  0.29641605  1  0.059341  -3.8e-05  0.087627  0.093426  -7.8e-05  1.07593  0.0
H  H113  1  0.50547854  0.49421810  0.79648728  1  0.057314  -5e-05  0.087666  0.093463  -0.000104  1.07604  0.0
H  H114  1  0.00512233  0.00582773  0.95355985  1  0.061166  -5e-05  0.087606  0.093461  -0.000104  1.076139  0.0
H  H115  1  0.99486244  0.99449331  0.45348353  1  0.059652  -6.9e-05  0.087514  0.09344  -0.000124  1.076663  0.0
H  H116  1  0.37625828  0.53669337  0.14881096  1  0.056715  -1.5e-05  0.101327  0.073131  -3.1e-05  1.025797  0.0
H  H117  1  0.62322066  0.46342139  0.64889246  1  0.057413  -1e-05  0.101116  0.072992  -2.5e-05  1.025441  0.0
H  H118  1  0.87674822  0.96338978  0.60113237  1  0.057214  -8e-06  0.101418  0.073271  -3.2e-05  1.025954  0.0
H  H119  1  0.12308588  0.03663436  0.10105478  1  0.062538  -9e-06  0.101255  0.073154  -2.4e-05  1.025606  0.0
H  H120  1  0.46332507  0.62331546  0.35114163  1  0.057464  -9e-06  0.101216  0.073036  -2.5e-05  1.025503  0.0
H  H121  1  0.53677253  0.37613659  0.85118816  1  0.056114  -1.5e-05  0.101492  0.073246  -3.1e-05  1.025707  0.0
H  H122  1  0.03643664  0.12385326  0.89886253  1  0.059499  -1.6e-05  0.101334  0.073115  -3.1e-05  1.025566  0.0
H  H123  1  0.96348301  0.87639339  0.39879918  1  0.05787  -8e-06  0.101175  0.073037  -3.2e-05  1.026178  0.0
C  C124  1  0.84844089  0.85308859  0.27552110  1  0.482824  -0.003299  0.037275  0.098598  -0.003575  3.926106  -0.002
C  C125  1  0.15206202  0.14763404  0.77550207  1  0.457256  -0.003769  0.037701  0.099518  -0.004117  3.927447  -0.002
C  C126  1  0.34687649  0.64633523  0.47473834  1  0.410798  -0.002647  0.03786  0.099223  -0.003082  3.926013  -0.002
C  C127  1  0.65222416  0.35231985  0.97448906  1  0.481725  -0.003786  0.037558  0.098836  -0.004077  3.927438  -0.002
C  C128  1  0.14773627  0.15221179  0.22452438  1  0.482417  -0.003789  0.037683  0.099093  -0.004078  3.925951  -0.002
C  C129  1  0.85306771  0.84822794  0.72448469  1  0.483903  -0.003328  0.037334  0.098774  -0.0036  3.926125  -0.002
C  C130  1  0.35303561  0.65169228  0.02549681  1  0.482995  -0.003315  0.037286  0.098635  -0.003587  3.926177  -0.002
C  C131  1  0.64594220  0.34703867  0.52526227  1  0.469989  -0.002693  0.03806  0.09879  -0.003092  3.926454  -0.002
C  C132  1  0.72853427  0.90708814  0.29169524  1  -0.026993  0.004603  -0.099381  -0.14479  0.002316  3.974632  0.004
C  C133  1  0.27175485  0.09335518  0.79172003  1  -0.034138  0.004796  -0.0999  -0.144983  0.002416  3.975389  0.004
C  C134  1  0.22726556  0.59254987  0.45842298  1  0.030593  0.003815  -0.099837  -0.144885  0.001976  3.973562  0.003
C  C135  1  0.77185833  0.40655263  0.95828709  1  -0.036482  0.004772  -0.099567  -0.144213  0.002404  3.975147  0.004
C  C136  1  0.09342543  0.27197882  0.20833880  1  -0.035706  0.004767  -0.099931  -0.14501  0.002402  3.974115  0.004
C  C137  1  0.90712290  0.72827498  0.70833061  1  -0.026738  0.004612  -0.099403  -0.144161  0.002319  3.973212  0.004
C  C138  1  0.40716761  0.77159853  0.04163478  1  -0.024185  0.0046  -0.099486  -0.144487  0.002316  3.974184  0.003
C  C139  1  0.59215897  0.22739527  0.54157208  1  -0.028358  0.003851  -0.100189  -0.14523  0.001979  3.974371  0.003
C  C140  1  0.74600408  0.01747374  0.31468142  1  -0.398969  -0.005604  -0.064883  0.018276  -0.005765  3.877949  -0.004
C  C141  1  0.25403020  0.98267656  0.81464145  1  -0.397161  -0.005871  -0.064904  0.016996  -0.006015  3.879782  -0.004
C  C142  1  0.24514529  0.48223028  0.43543669  1  -0.349633  -0.004192  -0.064858  0.017083  -0.004374  3.878567  -0.003
C  C143  1  0.75402480  0.51726479  0.93537294  1  -0.395543  -0.005817  -0.064816  0.01686  -0.005962  3.879675  -0.004
C  C144  1  0.98265308  0.25435711  0.18543868  1  -0.398762  -0.005725  -0.064646  0.01743  -0.005877  3.878426  -0.004
C  C145  1  0.01751698  0.74569994  0.68534663  1  -0.401475  -0.005631  -0.064883  0.017302  -0.005793  3.878686  -0.004
C  C146  1  0.51775262  0.75407417  0.06459006  1  -0.401303  -0.005626  -0.064766  0.01763  -0.005787  3.878309  -0.004
C  C147  1  0.48180998  0.24523513  0.56455756  1  -0.352907  -0.0042  -0.064775  0.018173  -0.004381  3.879006  -0.003
C  C148  1  0.88428702  0.06770577  0.32043751  1  0.068801  0.004324  -0.106585  -0.156899  0.002106  4.033281  0.003
C  C149  1  0.11564786  0.93270613  0.82033504  1  0.068494  0.004241  -0.106471  -0.155812  0.002032  4.032271  0.003
C  C150  1  0.38348746  0.43180880  0.42983546  1  0.007243  0.003638  -0.106551  -0.155591  0.001799  4.031791  0.003
C  C151  1  0.61560567  0.56728876  0.92965737  1  0.067312  0.004221  -0.106699  -0.156252  0.002022  4.032818  0.003
C  C152  1  0.93268970  0.11599724  0.17971550  1  0.06819  0.00426  -0.106719  -0.156036  0.002042  4.033066  0.003
C  C153  1  0.06773906  0.88398325  0.67958229  1  0.063694  0.004333  -0.106562  -0.156064  0.002107  4.0326  0.003
C  C154  1  0.56793531  0.61572838  0.07037708  1  0.070643  0.004325  -0.106309  -0.156082  0.002107  4.033241  0.003
C  C155  1  0.43146053  0.38359226  0.57017963  1  -0.01175  0.003658  -0.10697  -0.157086  0.001801  4.033564  0.003
C  C156  1  0.99769579  0.00801146  0.30309420  1  0.43464  -0.003559  0.034679  0.098391  -0.003798  3.932307  -0.002
C  C157  1  0.00237939  0.99288999  0.80299130  1  0.438744  -0.003533  0.03434  0.096658  -0.003656  3.931095  -0.002
C  C158  1  0.49655071  0.49113573  0.44736374  1  0.447875  -0.002601  0.034058  0.096688  -0.002919  3.932687  -0.002
C  C159  1  0.50240450  0.50713626  0.94698639  1  0.438177  -0.003491  0.034344  0.096767  -0.003616  3.931623  -0.002
C  C160  1  0.99292901  0.00265263  0.19702022  1  0.439695  -0.00349  0.034572  0.096728  -0.003612  3.93083  -0.002
C  C161  1  0.00797325  0.99743403  0.69689906  1  0.441087  -0.003576  0.034532  0.097503  -0.003807  3.932171  -0.002
C  C162  1  0.50810504  0.50232788  0.05307619  1  0.433323  -0.003573  0.034467  0.098206  -0.003808  3.932293  -0.002
C  C163  1  0.49081830  0.49668452  0.55267297  1  0.467579  -0.002615  0.034281  0.097331  -0.002921  3.932434  -0.002
C  C164  1  0.72927662  0.96943726  0.47732235  1  0.507921  -0.005398  0.039055  0.091729  -0.005914  3.947909  -0.003
C  C165  1  0.27282670  0.03160110  0.97693093  1  0.473538  -0.004869  0.037442  0.091401  -0.005022  3.948735  -0.003
C  C166  1  0.22722708  0.53118339  0.27316479  1  0.480282  -0.002199  0.039495  0.094229  -0.002577  3.946905  -0.001
C  C167  1  0.77278893  0.46863451  0.77305870  1  0.474561  -0.004819  0.037144  0.090752  -0.00497  3.948108  -0.003
C  C168  1  0.03131013  0.27297280  0.02315491  1  0.479632  -0.002215  0.038934  0.09362  -0.002588  3.947241  -0.001
C  C169  1  0.96932636  0.72924100  0.52275369  1  0.482284  -0.005355  0.038883  0.091528  -0.005885  3.948102  -0.003
C  C170  1  0.46842546  0.77271969  0.22692645  1  0.474309  -0.004859  0.0372  0.091229  -0.005007  3.949561  -0.003
C  C171  1  0.53136922  0.22730839  0.72682810  1  0.477376  -0.002259  0.039124  0.093696  -0.002634  3.946754  -0.002
C  C172  1  0.73123020  0.08632766  0.45591458  1  0.002153  0.004947  -0.098816  -0.161298  0.002459  3.988377  0.004
C  C173  1  0.26919536  0.91453782  0.95561870  1  -0.007046  0.005336  -0.099173  -0.161506  0.002632  3.9899  0.004
C  C174  1  0.23086151  0.41406564  0.29448167  1  -0.069738  0.004301  -0.098937  -0.161812  0.002213  3.986561  0.003
C  C175  1  0.76917416  0.58569786  0.79437391  1  -0.011233  0.005328  -0.099226  -0.161689  0.002634  3.989141  0.004
C  C176  1  0.91426411  0.26929661  0.04446867  1  -0.067046  0.004278  -0.098646  -0.161544  0.0022  3.986679  0.003
C  C177  1  0.08624605  0.73122923  0.54415076  1  -0.067256  0.004945  -0.098926  -0.160801  0.002461  3.986418  0.004
C  C178  1  0.58548714  0.76923506  0.20561607  1  -0.006948  0.005338  -0.099233  -0.161826  0.002632  3.990464  0.004
C  C179  1  0.41425365  0.23085598  0.70551504  1  -0.067423  0.00431  -0.099002  -0.161568  0.002216  3.987004  0.003
C  C180  1  0.71286765  0.06256859  0.42194028  1  -0.351693  -0.008011  -0.061436  0.014144  -0.008146  3.898469  -0.005
C  C181  1  0.28714896  0.93784707  0.92162309  1  -0.364198  -0.007836  -0.061739  0.0138  -0.007964  3.899228  -0.005
C  C182  1  0.21257025  0.43736012  0.32847428  1  -0.311583  -0.003933  -0.06117  0.014838  -0.004145  3.89702  -0.003
C  C183  1  0.78720914  0.56236130  0.82837223  1  -0.361346  -0.007767  -0.06158  0.013862  -0.007901  3.899019  -0.005
C  C184  1  0.93761025  0.28748379  0.07846342  1  -0.312518  -0.003958  -0.061377  0.014359  -0.00415  3.898328  -0.003
C  C185  1  0.06255704  0.71273899  0.57812517  1  -0.239474  -0.007971  -0.06122  0.014205  -0.008123  3.897224  -0.005
C  C186  1  0.56215853  0.78731535  0.17162070  1  -0.364463  -0.007825  -0.06162  0.013912  -0.007958  3.899335  -0.005
C  C187  1  0.43753697  0.21250763  0.67152641  1  -0.31143  -0.004015  -0.061208  0.014264  -0.004225  3.8981  -0.003
C  C188  1  0.69969891  0.92137121  0.41103879  1  -0.004921  0.005355  -0.099426  -0.16402  0.002562  4.016867  0.004
C  C189  1  0.30134838  0.07887543  0.91063850  1  -0.040018  0.004697  -0.09899  -0.164025  0.002306  4.012887  0.004
C  C190  1  0.19807358  0.57834782  0.33946082  1  -0.042851  0.003796  -0.098791  -0.163802  0.001927  4.011985  0.003
C  C191  1  0.80142625  0.42130057  0.83935000  1  -0.039995  0.004692  -0.098725  -0.163353  0.002306  4.012393  0.004
C  C192  1  0.07860679  0.30189611  0.08945426  1  -0.04079  0.003778  -0.098122  -0.162911  0.001915  4.011856  0.003
C  C193  1  0.92138213  0.69947962  0.58903254  1  -0.06263  0.005358  -0.09995  -0.164776  0.002566  4.014862  0.004
C  C194  1  0.42110861  0.80144970  0.16062963  1  -0.041543  0.004714  -0.099056  -0.164048  0.002315  4.013212  0.004
C  C195  1  0.57851886  0.19814047  0.66052768  1  -0.041156  0.003807  -0.097865  -0.162369  0.00193  4.011265  0.003
C  C196  1  0.69916263  0.81116641  0.43411449  1  0.446149  -0.004617  0.043257  0.102656  -0.004793  3.919981  -0.003
C  C197  1  0.30375004  0.18932236  0.93365680  1  0.495753  -0.005261  0.044361  0.104456  -0.005896  3.919637  -0.004
C  C198  1  0.19583381  0.68882411  0.31643820  1  0.500043  -0.00247  0.044567  0.104278  -0.003145  3.921093  -0.002
C  C199  1  0.80384701  0.31086817  0.81632919  1  0.495509  -0.005225  0.044207  0.104042  -0.005864  3.919996  -0.004
C  C200  1  0.18901471  0.30419047  0.06643215  1  0.497237  -0.002485  0.044325  0.103949  -0.00316  3.921125  -0.002
C  C201  1  0.81114073  0.69894724  0.56596017  1  0.44529  -0.004609  0.043694  0.103287  -0.004787  3.917754  -0.003
C  C202  1  0.31065647  0.80372009  0.18364488  1  0.497312  -0.005236  0.044703  0.10452  -0.005873  3.919124  -0.004
C  C203  1  0.68900177  0.19598019  0.68354968  1  0.498809  -0.002513  0.044453  0.104219  -0.003189  3.919913  -0.002
C  C204  1  0.48769204  0.27338522  0.20053481  1  -0.314232  0.000412  -0.070795  0.002531  0.00018  3.938653  0.0
C  C205  1  0.51265624  0.72682062  0.70065746  1  -0.310662  0.000385  -0.070646  0.002452  0.000162  3.93762  0.0
C  C206  1  0.98728964  0.22668092  0.54935099  1  -0.309142  0.000324  -0.070665  0.001987  0.0001  3.937911  0.0
C  C207  1  0.01268491  0.77324116  0.04928624  1  -0.312542  0.000385  -0.070699  0.002633  0.000162  3.937662  0.0
C  C208  1  0.72658404  0.51254653  0.29937122  1  -0.310974  0.000385  -0.070704  0.002822  0.000162  3.937104  0.0
C  C209  1  0.27356710  0.48777908  0.79946626  1  -0.313969  0.000407  -0.070978  0.002414  0.000176  3.939458  0.0
C  C210  1  0.77322315  0.01236417  0.95052094  1  -0.369162  0.000414  -0.070149  0.004211  0.000179  3.937373  0.0
C  C211  1  0.22673907  0.98735877  0.45053707  1  -0.367951  0.000322  -0.070322  0.003309  9.7e-05  3.937322  0.0
C  C212  1  0.44661269  0.15886935  0.18038431  1  -0.097321  2.4e-05  -0.106009  -0.157432  -6.1e-05  3.983232  0.0
C  C213  1  0.55395630  0.84128543  0.68050422  1  -0.089092  0.000102  -0.105578  -0.15677  -1.7e-05  3.983657  0.0
C  C214  1  0.94589112  0.34122050  0.56947633  1  -0.087726  9.8e-05  -0.105471  -0.156805  -1.1e-05  3.982878  0.0
C  C215  1  0.05384240  0.65876655  0.06947651  1  -0.085912  9.7e-05  -0.105839  -0.15739  -1.9e-05  3.982967  0.0
C  C216  1  0.84109915  0.55366682  0.31952872  1  -0.10586  0.000102  -0.106384  -0.158599  -1.7e-05  3.983802  0.0
C  C217  1  0.15900883  0.44686491  0.81962290  1  -0.096927  9e-06  -0.106111  -0.157826  -7.2e-05  3.983483  0.0
C  C218  1  0.65868231  0.05335867  0.93033462  1  -0.045124  1e-05  -0.106186  -0.158287  -7.2e-05  3.982235  0.0
C  C219  1  0.34127284  0.94600733  0.43040628  1  -0.024404  0.0001  -0.105908  -0.158534  -1e-05  3.983714  0.0
C  C220  1  0.38007102  0.18764434  0.15019252  1  0.517094  -8.7e-05  0.031769  0.088384  -0.00012  3.996924  0.0
C  C221  1  0.62024337  0.81249602  0.65029801  1  0.500037  -3.5e-05  0.03132  0.088602  -6.4e-05  3.997336  0.0
C  C222  1  0.87959319  0.31246142  0.59968495  1  0.500698  -8e-05  0.03128  0.088117  -0.000119  3.996599  0.0
C  C223  1  0.12000236  0.68756474  0.09970695  1  0.500797  -5.1e-05  0.031401  0.088521  -8.9e-05  3.99576  0.0
C  C224  1  0.81237963  0.62000850  0.34973184  1  0.51781  -3.3e-05  0.031557  0.08916  -6.3e-05  3.996943  0.0
C  C225  1  0.18773592  0.38026921  0.84980911  1  0.518571  -9.1e-05  0.032197  0.089057  -0.000125  3.996186  0.0
C  C226  1  0.68740837  0.11992888  0.90015076  1  0.509863  -9.2e-05  0.032012  0.089254  -0.000126  3.996065  0.0
C  C227  1  0.31253073  0.87949856  0.40022358  1  0.499556  -8.1e-05  0.031346  0.08954  -0.00012  3.996579  0.0
C  C228  1  0.46266116  0.41219139  0.18907023  1  0.009836  0.000212  -0.108067  -0.171992  8.7e-05  4.027459  0.0
C  C229  1  0.53740435  0.58801132  0.68917491  1  0.020237  0.00025  -0.108766  -0.172969  0.000113  4.02702  0.0
C  C230  1  0.96256426  0.08787855  0.56083555  1  0.020598  0.00021  -0.108789  -0.172688  7.3e-05  4.026939  0.0
C  C231  1  0.03741707  0.91205851  0.06074830  1  -0.020863  0.000247  -0.10837  -0.172996  0.000112  4.027574  0.0
C  C232  1  0.58780078  0.53740928  0.31085486  1  0.020667  0.000248  -0.108755  -0.172837  0.000112  4.026259  0.0
C  C233  1  0.41235617  0.46260183  0.81092802  1  0.009259  0.000205  -0.108007  -0.171962  8.3e-05  4.027317  0.0
C  C234  1  0.91200364  0.03747372  0.93909258  1  0.02241  0.000206  -0.108528  -0.17323  8.4e-05  4.028441  0.0
C  C235  1  0.08794533  0.96251555  0.43906408  1  0.010654  0.000214  -0.108226  -0.172426  7.5e-05  4.027935  0.0
C  C236  1  0.39675385  0.42929963  0.15830288  1  0.495508  -2.1e-05  0.029872  0.087761  -6.2e-05  3.992333  0.0
C  C237  1  0.60304762  0.57086488  0.65838702  1  0.48211  -2.1e-05  0.029751  0.087867  -4.9e-05  3.992196  0.0
C  C238  1  0.89688785  0.07079974  0.59162076  1  0.484647  -8e-05  0.029681  0.087445  -0.000115  3.991978  0.0
C  C239  1  0.10292001  0.92920345  0.09155962  1  0.480552  -2.3e-05  0.029705  0.087687  -5.3e-05  3.992791  0.0
C  C240  1  0.57073474  0.60303336  0.34164688  1  0.484106  -2e-05  0.030161  0.088409  -4.8e-05  3.991789  0.0
C  C241  1  0.42939003  0.39673255  0.84170311  1  0.494853  -2.5e-05  0.029766  0.08777  -6.5e-05  3.991929  0.0
C  C242  1  0.92906064  0.10332055  0.90832408  1  0.477796  -2.3e-05  0.029849  0.088157  -6.4e-05  3.992189  0.0
C  C243  1  0.07087247  0.89668391  0.40829739  1  0.490531  -8.2e-05  0.029746  0.087379  -0.000116  3.993042  0.0
N  N244  1  0.98203822  0.90223881  0.28070868  1  -1.20914  0.055413  -0.323998  -0.231731  0.030339  3.533969  0.047
N  N245  1  0.01833126  0.09870132  0.78061013  1  -1.215009  0.055641  -0.324651  -0.232166  0.030418  3.534211  0.047
N  N246  1  0.48050983  0.59675028  0.46977451  1  -1.214784  0.055061  -0.323788  -0.231853  0.029803  3.536464  0.048
N  N247  1  0.51845067  0.40130962  0.96936435  1  -1.236189  0.055681  -0.324292  -0.231685  0.030409  3.533391  0.047
N  N248  1  0.09878815  0.01850256  0.21938897  1  -1.237957  0.055701  -0.324579  -0.231804  0.030416  3.532718  0.047
N  N249  1  0.90219199  0.98183094  0.71928338  1  -1.207945  0.055435  -0.323964  -0.232042  0.030351  3.533925  0.047
N  N250  1  0.40222152  0.51804031  0.03069918  1  -1.208962  0.055413  -0.324066  -0.232023  0.030336  3.533749  0.047
N  N251  1  0.59640141  0.48067828  0.53025360  1  -1.212517  0.055141  -0.323891  -0.232061  0.029842  3.538021  0.048
N  N252  1  0.71057347  0.83368321  0.46698153  1  -1.230007  0.060084  -0.332694  -0.240557  0.032921  3.580233  0.051
N  N253  1  0.29317010  0.16712736  0.96653180  1  -1.231822  0.05894  -0.332548  -0.240751  0.032023  3.585005  0.052
N  N254  1  0.20673254  0.66663301  0.28357428  1  -1.234385  0.057573  -0.332533  -0.241629  0.031212  3.583717  0.05
N  N255  1  0.79320094  0.33307731  0.78345332  1  -1.230675  0.059041  -0.332634  -0.240646  0.032073  3.583732  0.052
N  N256  1  0.16675399  0.29340606  0.03356719  1  -1.23481  0.057606  -0.332472  -0.241584  0.031213  3.584582  0.05
N  N257  1  0.83358543  0.71044934  0.53309274  1  -1.195662  0.060131  -0.332789  -0.240882  0.032948  3.579261  0.051
N  N258  1  0.33287258  0.79301488  0.21652080  1  -1.232083  0.059016  -0.33292  -0.24117  0.032057  3.584641  0.052
N  N259  1  0.66680893  0.20686410  0.71641331  1  -1.233931  0.057484  -0.332756  -0.241717  0.031161  3.5838  0.05
N  N260  1  0.35464637  0.32035172  0.13890878  1  -1.194465  0.000131  -0.328147  -0.274827  8.9e-05  3.345029  0.0
N  N261  1  0.64526141  0.67979387  0.63897533  1  -1.193039  0.000234  -0.328799  -0.276633  0.00011  3.343683  0.0
N  N262  1  0.85465290  0.17975267  0.61101265  1  -1.194234  0.000159  -0.32809  -0.274871  0.000106  3.344187  0.0
N  N263  1  0.14497808  0.82027906  0.11100842  1  -1.193877  0.000133  -0.328458  -0.275508  9.3e-05  3.343657  0.0
N  N264  1  0.67970978  0.64516792  0.36105291  1  -1.195118  0.00023  -0.329108  -0.27704  0.000107  3.342919  0.0
N  N265  1  0.32040600  0.35470353  0.86109620  1  -1.193667  0.000107  -0.32825  -0.274993  8.4e-05  3.344389  0.0
N  N266  1  0.82009451  0.14538897  0.88889460  1  -1.191884  0.00011  -0.328393  -0.275444  8.5e-05  3.344356  0.0
N  N267  1  0.17983158  0.85436554  0.38891985  1  -1.193701  0.000163  -0.328389  -0.275648  0.000108  3.345251  0.0
Cl  Cl268  1  0.33686781  0.98139974  0.28232915  1  -0.660837  0.092032  -0.278744  -0.486913  0.047521  1.294191  0.066
Cl  Cl269  1  0.66260354  0.01906024  0.78220478  1  -0.662064  0.088026  -0.280306  -0.490558  0.045202  1.288924  0.064
Cl  Cl270  1  0.83574693  0.51601353  0.46802370  1  -0.664304  0.088117  -0.279189  -0.489837  0.045293  1.297608  0.064
Cl  Cl271  1  0.16258869  0.48114174  0.96774613  1  -0.661752  0.087631  -0.279935  -0.489893  0.045006  1.290989  0.064
Cl  Cl272  1  0.01884705  0.66256787  0.21775172  1  -0.662293  0.087312  -0.280204  -0.490206  0.044838  1.288703  0.064
Cl  Cl273  1  0.98161421  0.33679244  0.71764786  1  -0.66116  0.091725  -0.278633  -0.486851  0.047361  1.293917  0.066
Cl  Cl274  1  0.48170726  0.16321525  0.03230798  1  -0.660579  0.091904  -0.278442  -0.48659  0.04747  1.296047  0.066
Cl  Cl275  1  0.51582601  0.83556016  0.53201626  1  -0.663775  0.08871  -0.279162  -0.48978  0.045594  1.299354  0.065
