# generated using pymatgen
data_Cu3H18C27N7
_symmetry_space_group_name_H-M   'P 1'
_cell_length_a   28.91870137
_cell_length_b   29.48363968
_cell_length_c   29.71837959
_cell_angle_alpha   89.97078562
_cell_angle_beta   89.97794950
_cell_angle_gamma   89.95978826
_symmetry_Int_Tables_number   1
_chemical_formula_structural   Cu3H18C27N7
_chemical_formula_sum   'Cu12 H72 C108 N28'
_cell_volume   25338.72811658
_cell_formula_units_Z   4
loop_
 _symmetry_equiv_pos_site_id
 _symmetry_equiv_pos_as_xyz
  1  'x, y, z'
loop_
 _atom_site_type_symbol
 _atom_site_label
 _atom_site_symmetry_multiplicity
 _atom_site_fract_x
 _atom_site_fract_y
 _atom_site_fract_z
 _atom_site_occupancy
 _atom_site_pbe_bader_charge
 _atom_site_pbe_bader_spin_density
 _atom_site_pbe_cm5_charge
 _atom_site_pbe_ddec_charge
 _atom_site_pbe_ddec_spin_density
 _atom_site_pbe_ddec_sum_bond_order
 _atom_site_pbe_magmom
Cu  Cu0  1  0.37475006  0.58124133  0.66716611  1  0.538111  0  0.483381  0.201665  0  2.123862  0
Cu  Cu1  1  0.32958118  0.62532749  0.57993440  1  0.538952  0  0.484197  0.200906  0  2.127384  0
Cu  Cu2  1  0.41810307  0.67021222  0.62518497  1  0.542628  0  0.482453  0.201261  0  2.120987  0
Cu  Cu3  1  0.62651650  0.91655607  0.16906799  1  0.540062  0  0.481685  0.201647  0  2.117353  0
Cu  Cu4  1  0.66917390  0.87496554  0.07994844  1  0.539438  0  0.482143  0.201102  0  2.118928  0
Cu  Cu5  1  0.58021828  0.82982131  0.12448186  1  0.541178  0  0.482852  0.200517  0  2.124114  0
Cu  Cu6  1  0.87355836  0.41758753  0.83154753  1  0.540023  0  0.48351  0.200297  0  2.12788  0
Cu  Cu7  1  0.82953520  0.37411783  0.91933672  1  0.537672  0  0.483645  0.200902  0  2.128222  0
Cu  Cu8  1  0.91849580  0.32961807  0.87489305  1  0.542641  0  0.483412  0.200876  0  2.127819  0
Cu  Cu9  1  0.12606986  0.08377153  0.33140252  1  0.539768  0  0.482346  0.200989  0  2.120794  0
Cu  Cu10  1  0.16905894  0.12577173  0.41998258  1  0.538945  0  0.48299  0.200969  0  2.123303  0
Cu  Cu11  1  0.08011297  0.17098040  0.37544286  1  0.542376  0  0.484377  0.200018  0  2.130089  0
H  H12  1  0.30788982  0.49763530  0.68208729  1  0.069688  0  0.118166  0.109228  0  0.994544  0
H  H13  1  0.24687579  0.55691365  0.56263494  1  0.093953  0  0.118472  0.109472  0  0.99534  0
H  H14  1  0.50015406  0.68838418  0.69375833  1  0.127653  0  0.118423  0.109292  0  0.996035  0
H  H15  1  0.44243204  0.56502862  0.74962929  1  0.081119  0  0.118449  0.108921  0  0.995351  0
H  H16  1  0.31303272  0.69295228  0.49852393  1  0.098538  0  0.118628  0.109493  0  0.995235  0
H  H17  1  0.43532012  0.75232827  0.55844884  1  0.06842  0  0.118292  0.109703  0  0.996227  0
H  H18  1  0.69552020  0.99843762  0.18601696  1  0.101374  0  0.118162  0.108318  0  0.996451  0
H  H19  1  0.75191342  0.94340357  0.06246265  1  0.053939  0  0.118257  0.108718  0  0.995319  0
H  H20  1  0.49774144  0.81206288  0.19286425  1  0.0857  0  0.118493  0.110152  0  0.994589  0
H  H21  1  0.55979354  0.93146511  0.25237730  1  0.077501  0  0.118358  0.109533  0  0.995594  0
H  H22  1  0.68505191  0.80861590  0.99743332  1  0.076113  0  0.118266  0.109523  0  0.995816  0
H  H23  1  0.56249840  0.74884350  0.05659599  1  0.089387  0  0.118702  0.110634  0  0.9944  0
H  H24  1  0.80507475  0.50001284  0.81551243  1  0.104615  0  0.118136  0.109249  0  0.994822  0
H  H25  1  0.74725876  0.44296181  0.93751913  1  0.113165  0  0.118148  0.109219  0  0.995815  0
H  H26  1  0.00101261  0.31203692  0.80685897  1  0.103159  0  0.118402  0.10972  0  0.994242  0
H  H27  1  0.94169099  0.43398685  0.74948712  1  0.074015  0  0.118406  0.109737  0  0.994937  0
H  H28  1  0.81270681  0.30665004  0.00073543  1  0.095904  0  0.118362  0.109605  0  0.995693  0
H  H29  1  0.93646760  0.24818642  0.94252361  1  0.07561  0  0.118344  0.10938  0  0.996141  0
H  H30  1  0.19498923  0.00172428  0.31452310  1  0.092047  0  0.118127  0.108751  0  0.996434  0
H  H31  1  0.25175653  0.05721634  0.43763576  1  0.099904  0  0.11831  0.108718  0  0.995638  0
H  H32  1  0.99733685  0.18838985  0.30746307  1  0.120309  0  0.118554  0.110094  0  0.994051  0
H  H33  1  0.05920241  0.06856342  0.24835807  1  0.095736  0  0.118214  0.109189  0  0.995538  0
H  H34  1  0.18494229  0.19221389  0.50227671  1  0.094652  0  0.118197  0.109099  0  0.994943  0
H  H35  1  0.06271797  0.25240667  0.44278390  1  0.094714  0  0.118566  0.109844  0  0.995026  0
H  H36  1  0.78755764  0.01918805  0.05230832  1  0.053095  0  0.099052  0.099517  0  1.000407  0
H  H37  1  0.77130456  0.03443906  0.19575099  1  0.055683  0  0.098964  0.098823  0  1.001823  0
H  H38  1  0.82966500  0.09528723  0.19549608  1  0.063301  0  0.104718  0.113786  0  0.994553  0
H  H39  1  0.84680683  0.07928502  0.05244246  1  0.076632  0  0.104316  0.113822  0  0.994478  0
H  H40  1  0.21699010  0.47525528  0.55034836  1  0.056061  0  0.099121  0.099589  0  1.000048  0
H  H41  1  0.22697372  0.46823102  0.69488134  1  0.028068  0  0.098846  0.098738  0  1.000639  0
H  H42  1  0.16794308  0.40787261  0.69591279  1  0.057103  0  0.10446  0.114661  0  0.996168  0
H  H43  1  0.15681380  0.41594248  0.55157528  1  0.052489  0  0.104253  0.114195  0  0.995786  0
H  H44  1  0.27112477  0.96584247  0.30459999  1  0.06314  0  0.099417  0.100276  0  1.001747  0
H  H45  1  0.28725909  0.98145548  0.44799187  1  0.052129  0  0.099057  0.099252  0  1.00065  0
H  H46  1  0.34672133  0.92146818  0.44798672  1  0.06091  0  0.104712  0.114544  0  0.993585  0
H  H47  1  0.32972013  0.90511032  0.30496269  1  0.035642  0  0.104841  0.11413  0  0.993575  0
H  H48  1  0.72276012  0.52845815  0.80431814  1  0.08193  0  0.098947  0.099136  0  1.000009  0
H  H49  1  0.71893657  0.52591326  0.94924393  1  0.071524  0  0.099051  0.100143  0  0.999672  0
H  H50  1  0.65929063  0.58575095  0.94876240  1  0.08829  0  0.103794  0.113622  0  0.998203  0
H  H51  1  0.66431776  0.58939075  0.80387680  1  0.056343  0  0.103855  0.113923  0  0.998156  0
H  H52  1  0.96959984  0.20139755  0.22456264  1  0.066728  0  0.098992  0.099908  0  0.999581  0
H  H53  1  0.97704401  0.05550560  0.22015046  1  0.037021  0  0.098698  0.099015  0  1.000475  0
H  H54  1  0.91851260  0.05454350  0.15978341  1  0.080195  0  0.104075  0.113965  0  0.997261  0
H  H55  1  0.91002909  0.20034997  0.16518136  1  0.061591  0  0.104027  0.114568  0  0.996269  0
H  H56  1  0.51793974  0.55479416  0.78545137  1  0.038044  0  0.099385  0.099858  0  1.000849  0
H  H57  1  0.53549996  0.69908939  0.76918686  1  0.028423  0  0.099213  0.099641  0  1.00089  0
H  H58  1  0.59493007  0.69875315  0.82871539  1  0.081538  0  0.104793  0.114386  0  0.99378  0
H  H59  1  0.57647527  0.55485778  0.84571931  1  0.076121  0  0.10518  0.11466  0  0.993213  0
H  H60  1  0.03013584  0.29992678  0.72580272  1  0.055134  0  0.099112  0.099642  0  1.000142  0
H  H61  1  0.02344576  0.44582408  0.72014849  1  0.054882  0  0.099148  0.099732  0  1.0003  0
H  H62  1  0.08202145  0.44603419  0.65981013  1  0.060252  0  0.104147  0.113775  0  0.997076  0
H  H63  1  0.08987167  0.30024825  0.66648803  1  0.070616  0  0.103856  0.113335  0  0.996744  0
H  H64  1  0.47018726  0.79889546  0.27638086  1  0.075765  0  0.098832  0.099193  0  1.000087  0
H  H65  1  0.47712275  0.94480920  0.28009514  1  0.061759  0  0.098944  0.099284  0  1.00108  0
H  H66  1  0.41847784  0.94598528  0.34036212  1  0.073805  0  0.103937  0.113351  0  0.997651  0
H  H67  1  0.41050831  0.80013215  0.33567749  1  0.076708  0  0.103694  0.113458  0  0.997167  0
H  H68  1  0.80067111  0.22392267  0.02830795  1  0.069618  0  0.099129  0.099469  0  1.000304  0
H  H69  1  0.94959296  0.22180652  0.02484061  1  0.063444  0  0.098953  0.099608  0  0.999978  0
H  H70  1  0.95018725  0.16261297  0.08357313  1  0.073869  0  0.104176  0.113986  0  0.996275  0
H  H71  1  0.80129966  0.16567071  0.08801440  1  0.100759  0  0.10374  0.113176  0  0.996911  0
H  H72  1  0.30041501  0.77619351  0.47153615  1  0.068722  0  0.09922  0.099867  0  0.999993  0
H  H73  1  0.44928989  0.77875183  0.47599134  1  0.075478  0  0.098911  0.099607  0  1.000657  0
H  H74  1  0.45006593  0.83813506  0.41745046  1  0.084353  0  0.104162  0.113859  0  0.996291  0
H  H75  1  0.30123147  0.83465110  0.41203642  1  0.1025  0  0.103834  0.113626  0  0.997214  0
H  H76  1  0.54919931  0.72204573  0.97410349  1  0.055154  0  0.09876  0.098933  0  1.000238  0
H  H77  1  0.69808036  0.72596104  0.97022604  1  0.054425  0  0.098969  0.099292  0  0.999979  0
H  H78  1  0.69812015  0.66733972  0.91104545  1  0.065817  0  0.10418  0.114406  0  0.996654  0
H  H79  1  0.54931524  0.66245070  0.91576763  1  0.020145  0  0.103848  0.113539  0  0.996857  0
H  H80  1  0.19794937  0.27316049  0.53076637  1  0.05065  0  0.099045  0.099246  0  0.999381  0
H  H81  1  0.04927418  0.28039600  0.52415242  1  0.044127  0  0.09916  0.099352  0  1.000058  0
H  H82  1  0.04946615  0.33959492  0.58291426  1  0.067574  0  0.104449  0.114413  0  0.994499  0
H  H83  1  0.19797858  0.33137754  0.59045356  1  0.07006  0  0.104392  0.113918  0  0.996088  0
C  C84  1  0.29819896  0.51802443  0.65317281  1  0.422646  0  0.001788  -0.061188  0  3.966586  0
C  C85  1  0.26200623  0.51180538  0.62228729  1  -0.048936  0  -0.036951  -0.031751  0  4.097605  0
C  C86  1  0.26756927  0.54773102  0.59171376  1  0.421566  0  0.002113  -0.059891  0  3.967122  0
C  C87  1  0.48037601  0.65829016  0.70218196  1  0.32679  0  0.002588  -0.058746  0  3.963826  0
C  C88  1  0.48673930  0.62685736  0.73721881  1  0.004022  0  -0.03768  -0.034875  0  4.094055  0
C  C89  1  0.45136175  0.59496315  0.73023876  1  0.420372  0  0.002211  -0.058751  0  3.96397  0
C  C90  1  0.34264851  0.70226069  0.51893715  1  0.413055  0  0.001467  -0.060222  0  3.966333  0
C  C91  1  0.37434861  0.73788331  0.51328406  1  -0.017775  0  -0.037101  -0.032682  0  4.095267  0
C  C92  1  0.40560608  0.73200237  0.54898415  1  0.418071  0  0.001838  -0.060982  0  3.969252  0
C  C93  1  0.70404974  0.97926778  0.15596747  1  0.385368  0  0.002732  -0.057448  0  3.967091  0
C  C94  1  0.73929140  0.98646279  0.12415158  1  -0.002838  0  -0.037885  -0.035817  0  4.09553  0
C  C95  1  0.73239151  0.95163792  0.09257241  1  0.418005  0  0.002475  -0.058127  0  3.964132  0
C  C96  1  0.51868164  0.84112805  0.20211925  1  0.416939  0  0.001158  -0.062076  0  3.968309  0
C  C97  1  0.51350252  0.87159511  0.23810407  1  0.011782  0  -0.037039  -0.032323  0  4.094731  0
C  C98  1  0.54982858  0.90259913  0.23192670  1  0.395132  0  0.001308  -0.061341  0  3.970613  0
C  C99  1  0.65536441  0.79916056  0.01772189  1  0.437472  0  0.00189  -0.060217  0  3.968532  0
C  C100  1  0.62368566  0.76358252  0.01173265  1  -0.034995  0  -0.037006  -0.032681  0  4.095491  0
C  C101  1  0.59227024  0.76921468  0.04735905  1  0.409863  0  0.001054  -0.062531  0  3.967798  0
C  C102  1  0.79621100  0.48019286  0.84505839  1  0.396278  0  0.001553  -0.060845  0  3.96665  0
C  C103  1  0.76080218  0.48697542  0.87672471  1  -0.002612  0  -0.037379  -0.032706  0  4.098462  0
C  C104  1  0.76721628  0.45162366  0.90779611  1  0.352595  0  0.001937  -0.060188  0  3.968053  0
C  C105  1  0.98069143  0.34169557  0.79804783  1  0.339952  0  0.001757  -0.061129  0  3.966727  0
C  C106  1  0.98678281  0.37290859  0.76282852  1  -0.001967  0  -0.037222  -0.03205  0  4.097303  0
C  C107  1  0.95093938  0.40442439  0.76931127  1  0.460584  0  0.001285  -0.06233  0  3.967018  0
C  C108  1  0.84268922  0.29752222  0.98070756  1  0.422881  0  0.001717  -0.060987  0  3.96975  0
C  C109  1  0.87473642  0.26226029  0.98690445  1  0.005989  0  -0.037392  -0.032941  0  4.096432  0
C  C110  1  0.90638399  0.26824986  0.95153797  1  0.379491  0  0.001605  -0.060962  0  3.96798  0
C  C111  1  0.20361316  0.02100699  0.34445698  1  0.400916  0  0.002352  -0.058793  0  3.96733  0
C  C112  1  0.23896480  0.01393187  0.37615738  1  0.043323  0  -0.037164  -0.035093  0  4.09368  0
C  C113  1  0.23215301  0.04888012  0.40763232  1  0.387599  0  0.001767  -0.059082  0  3.965567  0
C  C114  1  0.01824900  0.15923748  0.29829134  1  0.375338  0  0.001446  -0.061676  0  3.968356  0
C  C115  1  0.01302360  0.12863078  0.26246371  1  0.003875  0  -0.037038  -0.03216  0  4.098271  0
C  C116  1  0.04929427  0.09754531  0.26870215  1  0.39641  0  0.001559  -0.061071  0  3.969653  0
C  C117  1  0.15534653  0.20176918  0.48192475  1  0.401116  0  0.001906  -0.060451  0  3.966626  0
C  C118  1  0.12371074  0.23745158  0.48781377  1  0.014685  0  -0.036937  -0.032316  0  4.098133  0
C  C119  1  0.09242126  0.23194958  0.45211022  1  0.405277  0  0.001404  -0.061352  0  3.969886  0
C  C120  1  0.79671472  0.03549938  0.08402078  1  0.004527  0  -0.096658  -0.12541  0  4.008112  0
C  C121  1  0.77453454  0.02198297  0.12402062  1  0.033178  0  -0.017507  0.070353  0  4.061378  0
C  C122  1  0.78740644  0.04423988  0.16399690  1  -0.020259  0  -0.096317  -0.123815  0  4.009025  0
C  C123  1  0.82037837  0.07852548  0.16408547  1  -0.073611  0  -0.099829  -0.174761  0  4.018807  0
C  C124  1  0.84228421  0.09168201  0.12394437  1  0.408343  0  0.086604  0.172484  0  4.048166  0
C  C125  1  0.83006613  0.06948008  0.08386055  1  -0.122793  0  -0.099572  -0.175179  0  4.019034  0
C  C126  1  0.20612278  0.46092072  0.58252185  1  -0.07555  0  -0.097159  -0.126016  0  4.014324  0
C  C127  1  0.22670049  0.47640684  0.62255042  1  -0.006895  0  -0.018908  0.0693  0  4.064669  0
C  C128  1  0.21206036  0.45659349  0.66320811  1  0.014929  0  -0.097134  -0.124635  0  4.012378  0
C  C129  1  0.17870949  0.42270983  0.66398507  1  -0.051433  0  -0.101289  -0.178673  0  4.02309  0
C  C130  1  0.15819674  0.40766123  0.62382027  1  0.32092  0  0.087964  0.173808  0  4.048886  0
C  C131  1  0.17233616  0.42737992  0.58300992  1  0.037177  0  -0.100568  -0.177014  0  4.019415  0
C  C132  1  0.28724663  0.95612687  0.33636313  1  -0.042024  0  -0.097343  -0.127859  0  4.011045  0
C  C133  1  0.27428708  0.97843729  0.37631188  1  -0.033052  0  -0.017263  0.072045  0  4.059724  0
C  C134  1  0.29648951  0.96505901  0.41631876  1  -0.040582  0  -0.097085  -0.125307  0  4.007164  0
C  C135  1  0.32995612  0.93113221  0.41654647  1  3.7e-05  0  -0.099828  -0.176172  0  4.015995  0
C  C136  1  0.34226999  0.90886549  0.37650397  1  0.27092  0  0.08689  0.173113  0  4.048447  0
C  C137  1  0.32034302  0.92190496  0.33634598  1  0.04959  0  -0.099344  -0.173474  0  4.01829  0
C  C138  1  0.70935468  0.54123171  0.83621587  1  -0.024177  0  -0.097107  -0.124525  0  4.014729  0
C  C139  1  0.72557573  0.52250303  0.87679393  1  0.024236  0  -0.019532  0.069255  0  4.066405  0
C  C140  1  0.70678627  0.53936775  0.91713749  1  -0.131493  0  -0.097552  -0.127665  0  4.016215  0
C  C141  1  0.67329175  0.57323724  0.91704410  1  0.010912  0  -0.102048  -0.178795  0  4.022624  0
C  C142  1  0.65762909  0.59197205  0.87628928  1  0.325097  0  0.087996  0.17532  0  4.050542  0
C  C143  1  0.67627367  0.57544308  0.83578816  1  -0.063283  0  -0.102989  -0.180507  0  4.023466  0
C  C144  1  0.95825209  0.16894744  0.21081060  1  -0.109284  0  -0.097254  -0.126292  0  4.013906  0
C  C145  1  0.97797709  0.12849630  0.22705306  1  0.048509  0  -0.019171  0.068926  0  4.063864  0
C  C146  1  0.96278289  0.08748913  0.20793929  1  -0.037809  0  -0.097108  -0.124825  0  4.01413  0
C  C147  1  0.92969477  0.08675960  0.17406266  1  -0.059058  0  -0.102266  -0.179524  0  4.022831  0
C  C148  1  0.91001100  0.12734065  0.15823399  1  0.317163  0  0.088775  0.177509  0  4.047818  0
C  C149  1  0.92475511  0.16853875  0.17722719  1  0.036421  0  -0.101981  -0.180271  0  4.019801  0
C  C150  1  0.53432267  0.58669761  0.79497080  1  -0.000889  0  -0.096562  -0.125548  0  4.009028  0
C  C151  1  0.52182723  0.62697826  0.77260475  1  -0.006186  0  -0.017787  0.070731  0  4.062972  0
C  C152  1  0.54436666  0.66717257  0.78565946  1  0.042149  0  -0.09631  -0.124821  0  4.008725  0
C  C153  1  0.57779548  0.66722038  0.81931614  1  -0.065073  0  -0.100113  -0.175539  0  4.019492  0
C  C154  1  0.58970690  0.62682844  0.84155786  1  0.283855  0  0.087148  0.171151  0  4.05248  0
C  C155  1  0.56737800  0.58650324  0.82891358  1  -0.010419  0  -0.099502  -0.17406  0  4.019279  0
C  C156  1  0.04165428  0.33220503  0.71175980  1  -0.036412  0  -0.096448  -0.124523  0  4.012479  0
C  C157  1  0.02204773  0.37286317  0.72760974  1  0.050786  0  -0.019699  0.06823  0  4.065898  0
C  C158  1  0.03751084  0.41365663  0.70821088  1  -0.024724  0  -0.09725  -0.126035  0  4.014139  0
C  C159  1  0.07063963  0.41396998  0.67432022  1  -0.033547  0  -0.101084  -0.176948  0  4.021263  0
C  C160  1  0.09008910  0.37316092  0.65882514  1  0.338058  0  0.087906  0.174013  0  4.050575  0
C  C161  1  0.07520325  0.33220299  0.67821524  1  -0.069077  0  -0.1019  -0.178569  0  4.020791  0
C  C162  1  0.45873061  0.83140366  0.28996407  1  -0.080598  0  -0.097215  -0.125677  0  4.011129  0
C  C163  1  0.47837873  0.87179116  0.27352266  1  0.019398  0  -0.019041  0.069517  0  4.060974  0
C  C164  1  0.46297218  0.91285090  0.29244804  1  -0.051675  0  -0.097452  -0.126133  0  4.015418  0
C  C165  1  0.42979130  0.91369480  0.32629200  1  -0.052604  0  -0.102085  -0.177876  0  4.021196  0
C  C166  1  0.41019879  0.87316924  0.34231788  1  0.319412  0  0.087945  0.175838  0  4.047691  0
C  C167  1  0.42515358  0.83192192  0.32351678  1  -0.031954  0  -0.101568  -0.178629  0  4.017403  0
C  C168  1  0.83367053  0.21089647  0.04057765  1  -0.084406  0  -0.097123  -0.126268  0  4.012997  0
C  C169  1  0.87507674  0.22746541  0.02194535  1  0.019767  0  -0.018961  0.070313  0  4.061026  0
C  C170  1  0.91685088  0.20931872  0.03825136  1  -0.072509  0  -0.097524  -0.126725  0  4.013692  0
C  C171  1  0.91736321  0.17608825  0.07145547  1  0.030188  0  -0.101445  -0.178062  0  4.019821  0
C  C172  1  0.87577508  0.15996293  0.09001330  1  0.293795  0  0.087817  0.175213  0  4.049138  0
C  C173  1  0.83384319  0.17794682  0.07407630  1  -0.0475  0  -0.101643  -0.177021  0  4.01889  0
C  C174  1  0.33345350  0.78936617  0.45953267  1  0.030652  0  -0.097099  -0.125878  0  4.01303  0
C  C175  1  0.37478206  0.77284556  0.47838134  1  -0.089531  0  -0.01947  0.069207  0  4.062447  0
C  C176  1  0.41659641  0.79118343  0.46241075  1  -0.089972  0  -0.096991  -0.126639  0  4.015118  0
C  C177  1  0.41720891  0.82453030  0.42931170  1  0.027546  0  -0.101604  -0.17793  0  4.020859  0
C  C178  1  0.37571060  0.84056487  0.41048800  1  0.297215  0  0.087887  0.176412  0  4.049823  0
C  C179  1  0.33373240  0.82242607  0.42612716  1  -0.062313  0  -0.101573  -0.178241  0  4.019512  0
C  C180  1  0.58208415  0.70995650  0.96063785  1  -0.082686  0  -0.096703  -0.124594  0  4.012315  0
C  C181  1  0.62362120  0.72869739  0.97677063  1  0.029242  0  -0.019221  0.069086  0  4.060143  0
C  C182  1  0.66521245  0.71253190  0.95810911  1  -0.062534  0  -0.097355  -0.125285  0  4.011371  0
C  C183  1  0.66542118  0.67938319  0.92484981  1  0.020763  0  -0.101392  -0.179036  0  4.022968  0
C  C184  1  0.62372420  0.66067997  0.90919934  1  0.296544  0  0.088328  0.174926  0  4.05019  0
C  C185  1  0.58195747  0.67650016  0.92765559  1  0.046214  0  -0.101854  -0.178074  0  4.017252  0
C  C186  1  0.16514828  0.28728264  0.54235959  1  -0.041464  0  -0.096775  -0.124933  0  4.011674  0
C  C187  1  0.12360942  0.27218498  0.52285451  1  -0.0107  0  -0.018396  0.069958  0  4.063579  0
C  C188  1  0.08211831  0.29170642  0.53828411  1  -0.023613  0  -0.096943  -0.125228  0  4.010473  0
C  C189  1  0.08203017  0.32493179  0.57148203  1  -0.075925  0  -0.100582  -0.177071  0  4.018445  0
C  C190  1  0.12374219  0.33960854  0.59082132  1  0.341307  0  0.087882  0.17305  0  4.052068  0
C  C191  1  0.16536276  0.32016445  0.57585896  1  0.002776  0  -0.100398  -0.176033  0  4.021609  0
N  N192  1  0.30418342  0.57336239  0.60371610  1  -0.762477  0  -0.340365  -0.139148  0  3.779859  0
N  N193  1  0.32330553  0.55482539  0.64176039  1  -0.773312  0  -0.34032  -0.139291  0  3.777761  0
N  N194  1  0.42602513  0.60663574  0.69392926  1  -0.76445  0  -0.339321  -0.138544  0  3.776242  0
N  N195  1  0.44412728  0.64587094  0.67641391  1  -0.774179  0  -0.339377  -0.139015  0  3.774693  0
N  N196  1  0.39330969  0.69569691  0.57393291  1  -0.776498  0  -0.339841  -0.139569  0  3.776488  0
N  N197  1  0.35434135  0.67713004  0.55516197  1  -0.766024  0  -0.340166  -0.138719  0  3.778262  0
N  N198  1  0.69596264  0.92583875  0.10479409  1  -0.767634  0  -0.338461  -0.137588  0  3.775363  0
N  N199  1  0.67825998  0.94309184  0.14408305  1  -0.779608  0  -0.339486  -0.140077  0  3.777335  0
N  N200  1  0.57466596  0.89134615  0.19513546  1  -0.774837  0  -0.339458  -0.139537  0  3.777864  0
N  N201  1  0.55520739  0.85329566  0.17651868  1  -0.768206  0  -0.338852  -0.137333  0  3.779197  0
N  N202  1  0.60450247  0.80531009  0.07259288  1  -0.763708  0  -0.339918  -0.138686  0  3.778381  0
N  N203  1  0.64356326  0.82402552  0.05408874  1  -0.773675  0  -0.339377  -0.1395  0  3.77574  0
N  N204  1  0.80359089  0.42579247  0.89537779  1  -0.778467  0  -0.340505  -0.139666  0  3.780442  0
N  N205  1  0.82170407  0.44364535  0.85655306  1  -0.768074  0  -0.340387  -0.138893  0  3.779618  0
N  N206  1  0.92551196  0.39270049  0.80556478  1  -0.783904  0  -0.339353  -0.136653  0  3.777543  0
N  N207  1  0.94409840  0.35388384  0.82351491  1  -0.774521  0  -0.340745  -0.139789  0  3.780574  0
N  N208  1  0.89394283  0.30427378  0.92625247  1  -0.772422  0  -0.340107  -0.138955  0  3.778752  0
N  N209  1  0.85453382  0.32256360  0.94448143  1  -0.76928  0  -0.340583  -0.139009  0  3.780297  0
N  N210  1  0.19567646  0.07465796  0.39543601  1  -0.768432  0  -0.338843  -0.138069  0  3.77852  0
N  N211  1  0.17785107  0.05725605  0.35629639  1  -0.785917  0  -0.338993  -0.137839  0  3.776793  0
N  N212  1  0.07417548  0.10890889  0.30539537  1  -0.766381  0  -0.340092  -0.139546  0  3.776895  0
N  N213  1  0.05478530  0.14709019  0.32386206  1  -0.785908  0  -0.339586  -0.137002  0  3.779613  0
N  N214  1  0.10467463  0.19580974  0.42693590  1  -0.774069  0  -0.340612  -0.138856  0  3.784096  0
N  N215  1  0.14361889  0.17695922  0.44553903  1  -0.770669  0  -0.339526  -0.138415  0  3.779251  0
N  N216  1  0.87605802  0.12645369  0.12404484  1  -1.271582  0  -0.257827  -0.161335  0  3.683226  0
N  N217  1  0.12398300  0.37343292  0.62454190  1  -1.247842  0  -0.258187  -0.157772  0  3.685471  0
N  N218  1  0.37615831  0.87412503  0.37648313  1  -1.245862  0  -0.257269  -0.161419  0  3.681637  0
N  N219  1  0.62377767  0.62655274  0.87579197  1  -1.250964  0  -0.257608  -0.158625  0  3.68504  0
