# generated using pymatgen
data_CdH8C14I3N5O4
_symmetry_space_group_name_H-M   'P 1'
_cell_length_a   7.86834741
_cell_length_b   14.69390281
_cell_length_c   17.03285269
_cell_angle_alpha   90.00026325
_cell_angle_beta   90.00010503
_cell_angle_gamma   89.99967650
_symmetry_Int_Tables_number   1
_chemical_formula_structural   CdH8C14I3N5O4
_chemical_formula_sum   'Cd4 H32 C56 I12 N20 O16'
_cell_volume   1969.28276648
_cell_formula_units_Z   4
loop_
 _symmetry_equiv_pos_site_id
 _symmetry_equiv_pos_as_xyz
  1  'x, y, z'
loop_
 _atom_site_type_symbol
 _atom_site_label
 _atom_site_symmetry_multiplicity
 _atom_site_fract_x
 _atom_site_fract_y
 _atom_site_fract_z
 _atom_site_occupancy
 _atom_site_hle17_bader_spin_density
 _atom_site_hle17_ddec_charge
 _atom_site_hle17_ddec_spin_density
 _atom_site_hle17_ddec_sum_bond_order
 _atom_site_hle17_magmom
 _atom_site_hse06_10hf_bader_spin_density
 _atom_site_hse06_10hf_ddec_charge
 _atom_site_hse06_10hf_ddec_spin_density
 _atom_site_hse06_10hf_ddec_sum_bond_order
 _atom_site_hse06_10hf_magmom
 _atom_site_hse06_bader_spin_density
 _atom_site_hse06_ddec_charge
 _atom_site_hse06_ddec_spin_density
 _atom_site_hse06_ddec_sum_bond_order
 _atom_site_hse06_magmom
 _atom_site_pbe_bader_spin_density
 _atom_site_pbe_cm5_charge
 _atom_site_pbe_ddec_charge
 _atom_site_pbe_ddec_spin_density
 _atom_site_pbe_ddec_sum_bond_order
 _atom_site_pbe_magmom
Cd  Cd0  1  0.88050100  0.21385575  0.40746338  1  0  1.142942  0  1.591053  0  0  0.947056  0  2.027589  0  0  1.008579  0  1.973401  0  0  0.766903  0.903512  0  2.064462  0
Cd  Cd1  1  0.11951562  0.71386139  0.59252996  1  0  1.142914  0  1.591183  0  0  0.947018  0  2.027745  0  0  1.008537  0  1.973556  0  0  0.766904  0.903479  0  2.064624  0
Cd  Cd2  1  0.61953361  0.21385813  0.90747288  1  0  1.142921  0  1.591192  0  0  0.947006  0  2.027814  0  0  1.008523  0  1.973634  0  0  0.766879  0.903466  0  2.064684  0
Cd  Cd3  1  0.38047792  0.71385765  0.09253221  1  0  1.142954  0  1.591167  0  0  0.947068  0  2.027746  0  0  1.008589  0  1.973557  0  0  0.766935  0.903529  0  2.064626  0
H  H4  1  0.63749248  0.65938488  0.57222049  1  0  0.304523  0  0.914825  0  0  0.297107  0  0.967264  0  0  0.303957  0  0.961404  0  0  0.286186  0.292256  0  0.971404  0
H  H5  1  0.36251962  0.15939251  0.42779082  1  0  0.304546  0  0.914853  0  0  0.297187  0  0.967194  0  0  0.304036  0  0.961336  0  0  0.286161  0.292338  0  0.971326  0
H  H6  1  0.86250823  0.65938800  0.07222213  1  0  0.304533  0  0.914798  0  0  0.297124  0  0.96722  0  0  0.303973  0  0.961364  0  0  0.286202  0.292274  0  0.971359  0
H  H7  1  0.13750386  0.15937987  0.92776746  1  0  0.304393  0  0.91477  0  0  0.297072  0  0.967111  0  0  0.303918  0  0.961258  0  0  0.286151  0.29221  0  0.971273  0
H  H8  1  0.50782690  0.73523955  0.52474880  1  0  0.318097  0  0.930897  0  0  0.302823  0  0.99833  0  0  0.310396  0  0.991214  0  0  0.282527  0.297454  0  1.003339  0
H  H9  1  0.49217806  0.23524567  0.47526400  1  0  0.31804  0  0.930958  0  0  0.302789  0  0.998349  0  0  0.310362  0  0.991234  0  0  0.282543  0.297419  0  1.003362  0
H  H10  1  0.99215504  0.73524499  0.02474820  1  0  0.318074  0  0.930882  0  0  0.302807  0  0.998316  0  0  0.31038  0  0.991199  0  0  0.282583  0.297439  0  1.003324  0
H  H11  1  0.00784610  0.23523886  0.97523818  1  0  0.318043  0  0.930846  0  0  0.302802  0  0.998232  0  0  0.310373  0  0.991121  0  0  0.28254  0.297434  0  1.003236  0
H  H12  1  0.90456816  0.11035979  0.69560869  1  0  0.328339  0  0.886245  0  0  0.312759  0  0.940102  0  0  0.322142  0  0.931965  0  0  0.315961  0.306022  0  0.946047  0
H  H13  1  0.09541648  0.61036197  0.30439363  1  0  0.328388  0  0.886392  0  0  0.312803  0  0.940242  0  0  0.32219  0  0.932098  0  0  0.316004  0.306079  0  0.946166  0
H  H14  1  0.59543362  0.11036101  0.19560834  1  0  0.328294  0  0.886264  0  0  0.312709  0  0.940129  0  0  0.322097  0  0.931987  0  0  0.316005  0.305994  0  0.946036  0
H  H15  1  0.40453831  0.61036619  0.80439397  1  0  0.328246  0  0.886286  0  0  0.312682  0  0.940141  0  0  0.322066  0  0.932007  0  0  0.315935  0.305994  0  0.946005  0
H  H16  1  0.84616255  0.95345016  0.60695875  1  0  0.331658  0  0.844544  0  0  0.319575  0  0.892336  0  0  0.327611  0  0.885677  0  0  0.333707  0.313819  0  0.897241  0
H  H17  1  0.15380711  0.45344192  0.39304906  1  0  0.331749  0  0.844406  0  0  0.319636  0  0.892223  0  0  0.327672  0  0.885564  0  0  0.333783  0.31388  0  0.89713  0
H  H18  1  0.65380476  0.95343691  0.10694906  1  0  0.331672  0  0.844495  0  0  0.319585  0  0.892294  0  0  0.327619  0  0.885644  0  0  0.333744  0.313828  0  0.897201  0
H  H19  1  0.34617761  0.45344768  0.89304995  1  0  0.331774  0  0.844339  0  0  0.319686  0  0.892135  0  0  0.327723  0  0.885476  0  0  0.333784  0.313929  0  0.897044  0
H  H20  1  0.13418216  0.23220409  0.71615420  1  0  0.117372  0  0.941089  0  0  0.128633  0  0.995811  0  0  0.132098  0  0.993112  0  0  0.120671  0.126093  0  0.997856  0
H  H21  1  0.86580376  0.73220582  0.28384450  1  0  0.117365  0  0.941039  0  0  0.128623  0  0.99575  0  0  0.132084  0  0.99306  0  0  0.120696  0.126124  0  0.997746  0
H  H22  1  0.36581303  0.23220039  0.21615173  1  0  0.117335  0  0.941128  0  0  0.128593  0  0.995856  0  0  0.132056  0  0.993162  0  0  0.120683  0.12609  0  0.997855  0
H  H23  1  0.63417162  0.73219727  0.78384990  1  0  0.117308  0  0.94092  0  0  0.128573  0  0.99564  0  0  0.132036  0  0.992947  0  0  0.12063  0.126038  0  0.997683  0
H  H24  1  0.15544765  0.31849933  0.57127378  1  0  0.087957  0  0.99664  0  0  0.093332  0  1.069307  0  0  0.095339  0  1.069005  0  0  0.103766  0.09187  0  1.069652  0
H  H25  1  0.84455772  0.81850869  0.42872820  1  0  0.087976  0  0.996497  0  0  0.093425  0  1.069079  0  0  0.095435  0  1.068775  0  0  0.1038  0.091964  0  1.069425  0
H  H26  1  0.34455751  0.31850115  0.07126953  1  0  0.088012  0  0.996512  0  0  0.093433  0  1.069105  0  0  0.095442  0  1.068799  0  0  0.10383  0.09197  0  1.06945  0
H  H27  1  0.65541990  0.81850484  0.92873069  1  0  0.088005  0  0.996554  0  0  0.093528  0  1.068995  0  0  0.095543  0  1.068677  0  0  0.103875  0.092066  0  1.069343  0
H  H28  1  0.64818726  0.87418128  0.50971702  1  0  0.109774  0  0.975676  0  0  0.116873  0  1.041141  0  0  0.120411  0  1.038453  0  0  0.116238  0.114271  0  1.043236  0
H  H29  1  0.35179338  0.37417566  0.49029048  1  0  0.109889  0  0.975372  0  0  0.11692  0  1.040922  0  0  0.120457  0  1.038237  0  0  0.116259  0.114316  0  1.043013  0
H  H30  1  0.85180208  0.87417490  0.00971219  1  0  0.109724  0  0.975704  0  0  0.116826  0  1.041188  0  0  0.120363  0  1.038501  0  0  0.116204  0.114222  0  1.043283  0
H  H31  1  0.14820144  0.37417727  0.99028943  1  0  0.109872  0  0.975395  0  0  0.116884  0  1.040979  0  0  0.120423  0  1.038289  0  0  0.116238  0.114281  0  1.043069  0
H  H32  1  0.62821269  0.99574841  0.38406479  1  0  0.103452  0  0.957929  0  0  0.109214  0  1.02492  0  0  0.112561  0  1.022264  0  0  0.109232  0.106789  0  1.026923  0
H  H33  1  0.37177560  0.49575359  0.61593616  1  0  0.103467  0  0.957922  0  0  0.109204  0  1.024969  0  0  0.112551  0  1.022313  0  0  0.10925  0.106782  0  1.02697  0
H  H34  1  0.87178453  0.99574865  0.88406569  1  0  0.103539  0  0.958058  0  0  0.109318  0  1.024986  0  0  0.112664  0  1.02233  0  0  0.109281  0.106894  0  1.026987  0
H  H35  1  0.12820249  0.49574995  0.11593936  1  0  0.103428  0  0.957784  0  0  0.109225  0  1.024724  0  0  0.112572  0  1.022069  0  0  0.109232  0.106803  0  1.026726  0
C  C36  1  0.75778307  0.39057615  0.39851568  1  0  0.647532  0  3.945782  0  0  0.597343  0  4.244061  0  0  0.631229  0  4.237328  0  0  0.181864  0.574387  0  4.24772  0
C  C37  1  0.24223045  0.89057874  0.60148190  1  0  0.647764  0  3.945754  0  0  0.597666  0  4.243835  0  0  0.631552  0  4.237119  0  0  0.181974  0.57469  0  4.247495  0
C  C38  1  0.74221282  0.39058019  0.89851824  1  0  0.647591  0  3.945759  0  0  0.597394  0  4.244028  0  0  0.631292  0  4.237291  0  0  0.181844  0.57443  0  4.24769  0
C  C39  1  0.25779307  0.89057946  0.10147171  1  0  0.648017  0  3.945194  0  0  0.597861  0  4.243396  0  0  0.631739  0  4.236678  0  0  0.182022  0.57487  0  4.247058  0
C  C40  1  0.67227924  0.48299488  0.39502904  1  0  -0.06286  0  3.761619  0  0  -0.060838  0  4.016732  0  0  -0.059993  0  4.033492  0  0  -0.032293  -0.061481  0  4.005696  0
C  C41  1  0.32772824  0.98299722  0.60497713  1  0  -0.063082  0  3.761717  0  0  -0.060998  0  4.016656  0  0  -0.060205  0  4.033486  0  0  -0.032266  -0.061577  0  4.005547  0
C  C42  1  0.82770805  0.48300614  0.89502404  1  0  -0.062933  0  3.761836  0  0  -0.060808  0  4.016731  0  0  -0.06001  0  4.03355  0  0  -0.032313  -0.061431  0  4.005676  0
C  C43  1  0.17230070  0.98300229  0.10496335  1  0  -0.063072  0  3.761614  0  0  -0.060955  0  4.016649  0  0  -0.060145  0  4.033466  0  0  -0.03232  -0.06148  0  4.005467  0
C  C44  1  0.58256890  0.50931732  0.32754418  1  0  -0.041771  0  3.641982  0  0  -0.034991  0  3.914106  0  0  -0.035366  0  3.935478  0  0  -0.070054  -0.035088  0  3.900036  0
C  C45  1  0.41742822  0.00931857  0.67246066  1  0  -0.041556  0  3.642078  0  0  -0.034816  0  3.914205  0  0  -0.035171  0  3.935588  0  0  -0.070045  -0.034937  0  3.90012  0
C  C46  1  0.91741531  0.50932831  0.82754277  1  0  -0.04194  0  3.642623  0  0  -0.035222  0  3.91462  0  0  -0.035583  0  3.936007  0  0  -0.070121  -0.035327  0  3.900551  0
C  C47  1  0.08260214  0.00932664  0.17244856  1  0  -0.041935  0  3.642447  0  0  -0.035296  0  3.914434  0  0  -0.03566  0  3.93582  0  0  -0.070176  -0.035432  0  3.900335  0
C  C48  1  0.51181533  0.59651821  0.32079972  1  0  -0.069449  0  3.779453  0  0  -0.071017  0  4.039965  0  0  -0.070205  0  4.056683  0  0  -0.034945  -0.071457  0  4.028661  0
C  C49  1  0.48819487  0.09650907  0.67920841  1  0  -0.069504  0  3.779744  0  0  -0.07121  0  4.040246  0  0  -0.070395  0  4.056978  0  0  -0.03504  -0.071654  0  4.028944  0
C  C50  1  0.98815016  0.59653375  0.82079426  1  0  -0.069527  0  3.77977  0  0  -0.070933  0  4.039974  0  0  -0.070124  0  4.056697  0  0  -0.034898  -0.071377  0  4.028678  0
C  C51  1  0.01185750  0.09652892  0.17919449  1  0  -0.069651  0  3.779995  0  0  -0.070833  0  4.039948  0  0  -0.070014  0  4.056656  0  0  -0.034916  -0.071279  0  4.028658  0
C  C52  1  0.52357747  0.65583548  0.38458657  1  0  -0.112209  0  3.599651  0  0  -0.095029  0  3.864591  0  0  -0.097901  0  3.886704  0  0  -0.065269  -0.093463  0  3.849964  0
C  C53  1  0.47642830  0.15583080  0.61542062  1  0  -0.112154  0  3.599553  0  0  -0.094932  0  3.864406  0  0  -0.097801  0  3.886514  0  0  -0.06514  -0.093371  0  3.849775  0
C  C54  1  0.97640927  0.65584288  0.88458639  1  0  -0.11197  0  3.599833  0  0  -0.094764  0  3.86468  0  0  -0.097634  0  3.886795  0  0  -0.065183  -0.093206  0  3.850053  0
C  C55  1  0.02360159  0.15583565  0.11540848  1  0  -0.111949  0  3.600012  0  0  -0.094787  0  3.864695  0  0  -0.097668  0  3.886825  0  0  -0.065228  -0.093225  0  3.850062  0
C  C56  1  0.59915779  0.62992480  0.45682460  1  0  0.281976  0  3.859752  0  0  0.263412  0  4.119956  0  0  0.2747  0  4.141402  0  0  0.087163  0.255904  0  4.105248  0
C  C57  1  0.40085588  0.12992679  0.54318543  1  0  0.281883  0  3.859809  0  0  0.263379  0  4.119836  0  0  0.274671  0  4.141272  0  0  0.086988  0.25589  0  4.1051  0
C  C58  1  0.90083205  0.62993040  0.95682318  1  0  0.281769  0  3.859922  0  0  0.263052  0  4.120337  0  0  0.274342  0  4.141777  0  0  0.087072  0.255564  0  4.105596  0
C  C59  1  0.09917018  0.12992460  0.04316395  1  0  0.281821  0  3.859522  0  0  0.263238  0  4.119807  0  0  0.274529  0  4.141253  0  0  0.087204  0.255746  0  4.105072  0
C  C60  1  0.67827651  0.54313767  0.45862392  1  0  -0.10958  0  3.565702  0  0  -0.094901  0  3.830802  0  0  -0.097423  0  3.852798  0  0  -0.06795  -0.093568  0  3.81634  0
C  C61  1  0.32172280  0.04314057  0.54138341  1  0  -0.109564  0  3.565528  0  0  -0.094886  0  3.830507  0  0  -0.09739  0  3.852513  0  0  -0.06798  -0.09358  0  3.816023  0
C  C62  1  0.82171932  0.54314283  0.95862067  1  0  -0.109451  0  3.56576  0  0  -0.094741  0  3.830831  0  0  -0.097247  0  3.852838  0  0  -0.0679  -0.093422  0  3.816361  0
C  C63  1  0.17829778  0.04314358  0.04136787  1  0  -0.10936  0  3.565585  0  0  -0.094802  0  3.83081  0  0  -0.097312  0  3.852816  0  0  -0.067878  -0.093512  0  3.816312  0
C  C64  1  0.42589863  0.62734046  0.24555398  1  0  0.649347  0  3.957643  0  0  0.597953  0  4.261462  0  0  0.632188  0  4.253759  0  0  0.184426  0.574694  0  4.265796  0
C  C65  1  0.57412904  0.12732871  0.75445075  1  0  0.6487  0  3.958853  0  0  0.597599  0  4.262229  0  0  0.631809  0  4.254574  0  0  0.184245  0.574353  0  4.266535  0
C  C66  1  0.07408370  0.62735659  0.74554700  1  0  0.649465  0  3.958198  0  0  0.598052  0  4.261938  0  0  0.63229  0  4.254239  0  0  0.184462  0.574795  0  4.26627  0
C  C67  1  0.92593635  0.12735818  0.25444657  1  0  0.649507  0  3.957586  0  0  0.597917  0  4.261545  0  0  0.632154  0  4.253857  0  0  0.184537  0.57466  0  4.265871  0
C  C68  1  0.07427883  0.21675953  0.66049289  1  0  0.013062  0  3.653372  0  0  -0.024855  0  3.920176  0  0  -0.022678  0  3.936946  0  0  0.003399  -0.026184  0  3.908841  0
C  C69  1  0.92570980  0.71676546  0.33951279  1  0  0.013231  0  3.653397  0  0  -0.024693  0  3.920235  0  0  -0.022511  0  3.937006  0  0  0.003508  -0.026057  0  3.908889  0
C  C70  1  0.42571884  0.21675905  0.16048753  1  0  0.013088  0  3.653319  0  0  -0.024832  0  3.920145  0  0  -0.022655  0  3.936921  0  0  0.00336  -0.026188  0  3.908794  0
C  C71  1  0.57425453  0.71676049  0.83951756  1  0  0.013039  0  3.653515  0  0  -0.024891  0  3.920361  0  0  -0.022718  0  3.937145  0  0  0.003341  -0.026212  0  3.909014  0
C  C72  1  0.08538372  0.25812138  0.58788623  1  0  0.024321  0  3.746556  0  0  -0.012914  0  4.022482  0  0  -0.010675  0  4.042299  0  0  -0.005731  -0.014475  0  4.009074  0
C  C73  1  0.91461972  0.75811819  0.41211023  1  0  0.024104  0  3.747286  0  0  -0.013206  0  4.023191  0  0  -0.010971  0  4.043013  0  0  -0.005879  -0.014759  0  4.009764  0
C  C74  1  0.41462467  0.25811617  0.08788733  1  0  0.024226  0  3.74698  0  0  -0.013045  0  4.022917  0  0  -0.010804  0  4.042733  0  0  -0.005832  -0.014605  0  4.00951  0
C  C75  1  0.58534955  0.75811999  0.91211382  1  0  0.024044  0  3.747261  0  0  -0.013269  0  4.023106  0  0  -0.011031  0  4.042922  0  0  -0.00586  -0.014814  0  4.009662  0
C  C76  1  0.92694858  0.13812878  0.57399143  1  0  0.248931  0  3.848512  0  0  0.216105  0  4.123175  0  0  0.227824  0  4.139255  0  0  0.205727  0.208346  0  4.112038  0
C  C77  1  0.07305611  0.63812417  0.42601159  1  0  0.248992  0  3.848499  0  0  0.216153  0  4.123149  0  0  0.22789  0  4.139207  0  0  0.205608  0.20839  0  4.112016  0
C  C78  1  0.57306132  0.13812326  0.07398989  1  0  0.249257  0  3.848403  0  0  0.2163  0  4.123134  0  0  0.228037  0  4.139193  0  0  0.205766  0.208535  0  4.112007  0
C  C79  1  0.42692049  0.63813309  0.92600960  1  0  0.249043  0  3.848538  0  0  0.216239  0  4.1231  0  0  0.227965  0  4.139175  0  0  0.205818  0.208507  0  4.111926  0
C  C80  1  0.82660249  0.07018501  0.53529485  1  0  0.248369  0  3.847607  0  0  0.21733  0  4.118729  0  0  0.229188  0  4.134594  0  0  0.206216  0.209523  0  4.107713  0
C  C81  1  0.17339781  0.57018437  0.46469967  1  0  0.248376  0  3.847554  0  0  0.217338  0  4.11861  0  0  0.22919  0  4.134466  0  0  0.206161  0.209533  0  4.107595  0
C  C82  1  0.67340922  0.07018054  0.03529692  1  0  0.248249  0  3.847575  0  0  0.217377  0  4.118545  0  0  0.229231  0  4.134404  0  0  0.206166  0.209572  0  4.107525  0
C  C83  1  0.32656693  0.57019088  0.96470523  1  0  0.24827  0  3.847823  0  0  0.217274  0  4.118886  0  0  0.229121  0  4.134761  0  0  0.20609  0.209466  0  4.107852  0
C  C84  1  0.69913788  0.94205491  0.50209485  1  0  0.007851  0  3.655834  0  0  -0.031008  0  3.92597  0  0  -0.029308  0  3.943349  0  0  0.006121  -0.032044  0  3.914297  0
C  C85  1  0.30083953  0.44205697  0.49790881  1  0  0.007843  0  3.65589  0  0  -0.030999  0  3.926038  0  0  -0.029292  0  3.9434  0  0  0.00615  -0.032032  0  3.914363  0
C  C86  1  0.80085201  0.94204869  0.00209468  1  0  0.007856  0  3.655919  0  0  -0.031031  0  3.926116  0  0  -0.029324  0  3.943478  0  0  0.006115  -0.032074  0  3.914459  0
C  C87  1  0.19914573  0.44205979  0.99790840  1  0  0.007617  0  3.656423  0  0  -0.031189  0  3.92657  0  0  -0.029484  0  3.943938  0  0  0.006097  -0.03222  0  3.914894  0
C  C88  1  0.68781620  0.00343076  0.44098456  1  0  0.013066  0  3.754079  0  0  -0.028217  0  4.036776  0  0  -0.026274  0  4.056864  0  0  -0.003766  -0.029488  0  4.022976  0
C  C89  1  0.31218352  0.50343495  0.55901380  1  0  0.013123  0  3.753938  0  0  -0.028146  0  4.036577  0  0  -0.0262  0  4.056658  0  0  -0.003753  -0.029425  0  4.022788  0
C  C90  1  0.81219402  0.00342778  0.94098365  1  0  0.013152  0  3.753682  0  0  -0.028103  0  4.036329  0  0  -0.026158  0  4.056415  0  0  -0.00375  -0.029369  0  4.022515  0
C  C91  1  0.18779553  0.50342636  0.05901059  1  0  0.013356  0  3.753827  0  0  -0.027925  0  4.036516  0  0  -0.02598  0  4.056601  0  0  -0.003599  -0.029205  0  4.022724  0
I  I92  1  0.79486305  0.50118839  0.56509577  1  0  0.019057  0  1.638903  0  0  0.013015  0  1.991495  0  0  0.010831  0  1.980728  0  0  0.115537  0.014477  0  1.999285  0
I  I93  1  0.20514814  0.00119314  0.43491138  1  0  0.019153  0  1.638958  0  0  0.013064  0  1.991529  0  0  0.010884  0  1.980757  0  0  0.115621  0.014523  0  1.999326  0
I  I94  1  0.70512782  0.50118995  0.06509376  1  0  0.019072  0  1.638786  0  0  0.012989  0  1.991375  0  0  0.010811  0  1.980607  0  0  0.115568  0.014452  0  1.999172  0
I  I95  1  0.29487827  0.00118682  0.93489813  1  0  0.019038  0  1.638953  0  0  0.013011  0  1.991601  0  0  0.010832  0  1.980832  0  0  0.115559  0.014477  0  1.999403  0
I  I96  1  0.42083093  0.78825993  0.37482097  1  0  0.020692  0  1.54514  0  0  0.010199  0  1.877623  0  0  0.008677  0  1.86916  0  0  0.111783  0.010961  0  1.88392  0
I  I97  1  0.57916077  0.28826383  0.62520321  1  0  0.020716  0  1.544887  0  0  0.010201  0  1.87735  0  0  0.008679  0  1.868881  0  0  0.111783  0.010965  0  1.883641  0
I  I98  1  0.07913756  0.78826583  0.87482045  1  0  0.020688  0  1.545147  0  0  0.010192  0  1.877586  0  0  0.008665  0  1.869117  0  0  0.111803  0.010953  0  1.883884  0
I  I99  1  0.92087066  0.28826745  0.12517026  1  0  0.020662  0  1.54493  0  0  0.010147  0  1.877375  0  0  0.00862  0  1.868913  0  0  0.111797  0.01091  0  1.88367  0
I  I100  1  0.54086288  0.41225445  0.23817550  1  0  0.034439  0  1.561793  0  0  0.026967  0  1.892718  0  0  0.024037  0  1.880905  0  0  0.114637  0.029099  0  1.90114  0
I  I101  1  0.45914788  0.91224699  0.76182452  1  0  0.034378  0  1.561688  0  0  0.026901  0  1.89263  0  0  0.023973  0  1.880808  0  0  0.114601  0.029028  0  1.901052  0
I  I102  1  0.95912833  0.41226463  0.73817412  1  0  0.034449  0  1.561895  0  0  0.026967  0  1.892847  0  0  0.024036  0  1.88103  0  0  0.114594  0.029102  0  1.901265  0
I  I103  1  0.04090149  0.91227016  0.26182237  1  0  0.034439  0  1.561679  0  0  0.026965  0  1.89264  0  0  0.024034  0  1.880825  0  0  0.11456  0.029094  0  1.901072  0
N  N104  1  0.60115677  0.68730046  0.52021046  1  0  -0.647906  0  3.148711  0  0  -0.610405  0  3.37162  0  0  -0.629793  0  3.371246  0  0  -0.598104  -0.596675  0  3.371467  0
N  N105  1  0.39885376  0.18730349  0.47980391  1  0  -0.647821  0  3.148732  0  0  -0.610392  0  3.371549  0  0  -0.62978  0  3.371167  0  0  -0.598031  -0.59667  0  3.371389  0
N  N106  1  0.89883200  0.68730279  0.02020978  1  0  -0.64785  0  3.148645  0  0  -0.610322  0  3.371609  0  0  -0.62971  0  3.371236  0  0  -0.59817  -0.596599  0  3.371445  0
N  N107  1  0.10116455  0.18729708  0.97977465  1  0  -0.647637  0  3.148289  0  0  -0.610261  0  3.371084  0  0  -0.629637  0  3.370698  0  0  -0.598078  -0.596533  0  3.37092  0
N  N108  1  0.99418970  0.20827876  0.53417560  1  0  -0.437981  0  3.215912  0  0  -0.368437  0  3.499245  0  0  -0.389721  0  3.515947  0  0  -0.355747  -0.353693  0  3.48742  0
N  N109  1  0.00581045  0.70828069  0.46582359  1  0  -0.437857  0  3.215807  0  0  -0.368295  0  3.499117  0  0  -0.389584  0  3.51582  0  0  -0.35568  -0.353549  0  3.487291  0
N  N110  1  0.50581931  0.20827821  0.03417401  1  0  -0.438129  0  3.215981  0  0  -0.36854  0  3.499339  0  0  -0.389834  0  3.516042  0  0  -0.355742  -0.353794  0  3.487517  0
N  N111  1  0.49416050  0.70828464  0.96582577  1  0  -0.437923  0  3.215978  0  0  -0.368403  0  3.499312  0  0  -0.389691  0  3.516017  0  0  -0.35581  -0.353669  0  3.487486  0
N  N112  1  0.97267624  0.14126899  0.65079421  1  0  -0.300323  0  3.384841  0  0  -0.239464  0  3.618347  0  0  -0.255156  0  3.631786  0  0  -0.371812  -0.228914  0  3.609359  0
N  N113  1  0.02731190  0.64126480  0.34920471  1  0  -0.300519  0  3.38448  0  0  -0.239638  0  3.617992  0  0  -0.255345  0  3.631427  0  0  -0.371877  -0.229097  0  3.60901  0
N  N114  1  0.52732886  0.14126429  0.15079028  1  0  -0.300302  0  3.384634  0  0  -0.239394  0  3.618153  0  0  -0.255097  0  3.631593  0  0  -0.371792  -0.228858  0  3.609159  0
N  N115  1  0.47265292  0.64127086  0.84920981  1  0  -0.300097  0  3.384832  0  0  -0.239275  0  3.618314  0  0  -0.254971  0  3.631758  0  0  -0.371676  -0.228766  0  3.609277  0
N  N116  1  0.78763539  0.98530007  0.56100936  1  0  -0.286376  0  3.393945  0  0  -0.227138  0  3.628753  0  0  -0.241805  0  3.641822  0  0  -0.368674  -0.217345  0  3.61997  0
N  N117  1  0.21235682  0.48529598  0.43899624  1  0  -0.286562  0  3.39413  0  0  -0.227246  0  3.628851  0  0  -0.24191  0  3.64192  0  0  -0.368755  -0.217455  0  3.620064  0
N  N118  1  0.71236318  0.98529481  0.06100735  1  0  -0.28641  0  3.394138  0  0  -0.227215  0  3.628938  0  0  -0.241882  0  3.642006  0  0  -0.368737  -0.217421  0  3.62015  0
N  N119  1  0.28762776  0.48530737  0.93899766  1  0  -0.286413  0  3.394389  0  0  -0.227146  0  3.629099  0  0  -0.241811  0  3.642175  0  0  -0.368775  -0.217357  0  3.620309  0
N  N120  1  0.76635329  0.08306644  0.46258243  1  0  -0.432232  0  3.235044  0  0  -0.361023  0  3.514038  0  0  -0.382373  0  3.53152  0  0  -0.358485  -0.346285  0  3.501749  0
N  N121  1  0.23364942  0.58307349  0.53741860  1  0  -0.43232  0  3.234644  0  0  -0.361102  0  3.513646  0  0  -0.382448  0  3.531122  0  0  -0.358463  -0.346366  0  3.501367  0
N  N122  1  0.73366128  0.08306779  0.96258087  1  0  -0.432293  0  3.234574  0  0  -0.361171  0  3.513629  0  0  -0.382519  0  3.5311  0  0  -0.35849  -0.346433  0  3.501348  0
N  N123  1  0.26631602  0.58306738  0.03742251  1  0  -0.432325  0  3.234604  0  0  -0.361193  0  3.513677  0  0  -0.382532  0  3.53114  0  0  -0.358534  -0.346461  0  3.501405  0
O  O124  1  0.66499523  0.32156064  0.41522087  1  0  -0.655476  0  2.00723  0  0  -0.586864  0  2.254272  0  0  -0.617412  0  2.243904  0  0  -0.33174  -0.565437  0  2.260566  0
O  O125  1  0.33501773  0.82156898  0.58478230  1  0  -0.655565  0  2.007392  0  0  -0.586997  0  2.254413  0  0  -0.617536  0  2.244042  0  0  -0.331795  -0.565575  0  2.260718  0
O  O126  1  0.83502177  0.32156439  0.91520237  1  0  -0.65545  0  2.007155  0  0  -0.586843  0  2.254213  0  0  -0.617392  0  2.243843  0  0  -0.331709  -0.565415  0  2.260506  0
O  O127  1  0.16499754  0.82156862  0.08477849  1  0  -0.655568  0  2.007231  0  0  -0.586974  0  2.254288  0  0  -0.617512  0  2.243918  0  0  -0.331745  -0.565551  0  2.260602  0
O  O128  1  0.91496982  0.38455909  0.38353058  1  0  -0.628807  0  1.90464  0  0  -0.574313  0  2.129139  0  0  -0.601218  0  2.118752  0  0  -0.326917  -0.55528  0  2.135533  0
O  O129  1  0.08503613  0.88455339  0.61646933  1  0  -0.628876  0  1.904475  0  0  -0.574427  0  2.128933  0  0  -0.601328  0  2.118544  0  0  -0.326989  -0.555393  0  2.135336  0
O  O130  1  0.58503115  0.38455613  0.88353711  1  0  -0.628823  0  1.904743  0  0  -0.574347  0  2.129263  0  0  -0.601245  0  2.118865  0  0  -0.326906  -0.555314  0  2.135664  0
O  O131  1  0.41499133  0.88456043  0.11645575  1  0  -0.629089  0  1.904281  0  0  -0.574632  0  2.128798  0  0  -0.601529  0  2.118412  0  0  -0.327025  -0.555596  0  2.13521  0
O  O132  1  0.52414385  0.66988844  0.19778524  1  0  -0.64466  0  2.004759  0  0  -0.573698  0  2.253878  0  0  -0.605072  0  2.241809  0  0  -0.33777  -0.551704  0  2.26136  0
O  O133  1  0.47587448  0.16988950  0.80221731  1  0  -0.644566  0  2.004767  0  0  -0.573699  0  2.253742  0  0  -0.605069  0  2.241691  0  0  -0.337764  -0.551707  0  2.26121  0
O  O134  1  0.97580387  0.66990197  0.69777684  1  0  -0.64474  0  2.004281  0  0  -0.573854  0  2.253489  0  0  -0.605205  0  2.241358  0  0  -0.337845  -0.551855  0  2.260957  0
O  O135  1  0.02421447  0.16990319  0.30221397  1  0  -0.64472  0  2.004371  0  0  -0.573805  0  2.253671  0  0  -0.605152  0  2.241534  0  0  -0.33786  -0.55181  0  2.261149  0
O  O136  1  0.27092461  0.61066436  0.23417939  1  0  -0.623157  0  1.923915  0  0  -0.574612  0  2.142813  0  0  -0.599445  0  2.132911  0  0  -0.322822  -0.556936  0  2.148894  0
O  O137  1  0.72908036  0.11064880  0.76583056  1  0  -0.622665  0  1.924926  0  0  -0.574209  0  2.143658  0  0  -0.599026  0  2.133772  0  0  -0.322586  -0.556539  0  2.14973  0
O  O138  1  0.22902863  0.61069567  0.73416961  1  0  -0.62309  0  1.924779  0  0  -0.574532  0  2.143642  0  0  -0.59936  0  2.133737  0  0  -0.32276  -0.556873  0  2.149722  0
O  O139  1  0.77097634  0.11069848  0.26582625  1  0  -0.623158  0  1.924243  0  0  -0.574549  0  2.143194  0  0  -0.599381  0  2.133294  0  0  -0.322851  -0.556879  0  2.14927  0
