# generated using pymatgen
data_Zn2H28C31(NO5)2
_symmetry_space_group_name_H-M   'P 1'
_cell_length_a   9.73551666
_cell_length_b   11.04042681
_cell_length_c   13.80530604
_cell_angle_alpha   86.01473371
_cell_angle_beta   78.82576358
_cell_angle_gamma   88.50916058
_symmetry_Int_Tables_number   1
_chemical_formula_structural   Zn2H28C31(NO5)2
_chemical_formula_sum   'Zn2 H28 C31 N2 O10'
_cell_volume   1452.08341102
_cell_formula_units_Z   1
loop_
 _symmetry_equiv_pos_site_id
 _symmetry_equiv_pos_as_xyz
  1  'x, y, z'
loop_
 _atom_site_type_symbol
 _atom_site_label
 _atom_site_symmetry_multiplicity
 _atom_site_fract_x
 _atom_site_fract_y
 _atom_site_fract_z
 _atom_site_occupancy
 _atom_site_pbe_bader_charge
 _atom_site_pbe_bader_spin_density
 _atom_site_pbe_cm5_charge
 _atom_site_pbe_ddec_charge
 _atom_site_pbe_ddec_spin_density
 _atom_site_pbe_ddec_sum_bond_order
 _atom_site_pbe_magmom
Zn  Zn0  1  0.36061559  0.49334857  0.50198978  1  1.278457  0  0.667511  0.811368  0  2.436748  0
Zn  Zn1  1  0.64653023  0.49106346  0.49438097  1  1.28866  0  0.672769  0.814152  0  2.440803  0
H  H2  1  0.17451065  0.51671448  0.34627023  1  0.154733  0  0.135686  0.118701  0  0.980891  0
H  H3  1  0.17274768  0.90202950  0.47233393  1  0.042704  0  0.092897  0.101229  0  0.990553  0
H  H4  1  0.91396898  0.52047979  0.34692126  1  0.16395  0  0.134579  0.119659  0  0.994877  0
H  H5  1  0.02700017  0.43633248  0.13938152  1  0.020194  0  0.082345  0.104434  0  1.0131  0
H  H6  1  0.04841550  0.59377670  0.15084704  1  0.004536  0  0.082427  0.105356  0  1.0081  0
H  H7  1  0.94681369  0.54574604  0.06738815  1  0.052684  0  0.087238  0.117391  0  1.006493  0
H  H8  1  0.18662342  0.61502382  0.97646079  1  0.010968  0  0.08884  0.07899  0  0.971003  0
H  H9  1  0.16131318  0.46101098  0.96110302  1  0.011118  0  0.087013  0.076264  0  0.984312  0
H  H10  1  0.29418918  0.39801601  0.09365525  1  0.050432  0  0.100832  0.10376  0  0.957381  0
H  H11  1  0.31352659  0.54966295  0.11835645  1  0.039018  0  0.096675  0.100382  0  0.985053  0
H  H12  1  0.77282049  0.68905507  0.65095484  1  0.055511  0  0.095863  0.063775  0  0.992758  0
H  H13  1  0.08125166  0.37413683  0.71867116  1  0.101343  0  0.115125  0.149446  0  0.95877  0
H  H14  1  0.92714664  0.69299665  0.70370327  1  0.007764  0  0.091702  0.043333  0  0.988522  0
H  H15  1  0.77968862  0.73581851  0.86776911  1  0.00612  0  0.089809  0.119617  0  1.001244  0
H  H16  1  0.74627101  0.84635811  0.77452843  1  0.010905  0  0.096162  0.129463  0  0.990791  0
H  H17  1  0.62510549  0.72716176  0.81735699  1  0.063728  0  0.094085  0.13126  0  0.996783  0
H  H18  1  0.75182846  0.20566023  0.33182240  1  0.07264  0  0.095331  0.062349  0  0.996303  0
H  H19  1  0.81131950  0.05344703  0.30799247  1  0.03334  0  0.091189  0.045171  0  0.972624  0
H  H20  1  0.03593782  0.09537976  0.36221095  1  0.050211  0  0.089568  0.120389  0  1.01093  0
H  H21  1  0.00957175  0.20197438  0.26425936  1  0.056166  0  0.090183  0.118702  0  1.003958  0
H  H22  1  0.97572304  0.24549105  0.38877251  1  0.040521  0  0.083962  0.113432  0  1.024424  0
H  H23  1  0.07739308  0.53418968  0.72764929  1  0.113797  0  0.115724  0.152706  0  0.97092  0
H  H24  1  0.82345873  0.37377489  0.71955993  1  0.085723  0  0.125528  0.093941  0  0.936803  0
H  H25  1  0.66203644  0.51816773  0.95325678  1  0.118045  0  0.113635  0.125949  0  0.999908  0
H  H26  1  0.72162821  0.86742562  0.47747161  1  0.108877  0  0.1055  0.125431  0  1.002397  0
H  H27  1  0.18574256  0.12507988  0.59353415  1  0.061139  0  0.093404  0.10315  0  0.986447  0
H  H28  1  0.18977825  0.12994049  0.46384644  1  0.039664  0  0.092382  0.101652  0  1.009782  0
H  H29  1  0.16523199  0.89736069  0.60270873  1  0.041952  0  0.091805  0.098011  0  0.99109  0
C  C30  1  0.49087136  0.72608349  0.50879515  1  1.56424  0  0.216716  0.602705  0  4.165443  0
C  C31  1  0.21833518  0.93863462  0.53089363  1  0.013407  0  -0.154457  -0.195853  0  3.894266  0
C  C32  1  0.90920515  0.48342472  0.58261415  1  0.523289  0  0.141576  0.108905  0  3.817124  0
C  C33  1  0.45702720  0.46755431  0.69033915  1  1.642992  0  0.217773  0.654212  0  4.256808  0
C  C34  1  0.95407605  0.50865577  0.41551163  1  0.470004  0  0.066524  0.037431  0  3.861845  0
C  C35  1  0.09767041  0.50615432  0.41510290  1  0.457328  0  0.072092  0.054597  0  3.855766  0
C  C36  1  0.05272393  0.47917016  0.58179645  1  0.542708  0  0.147661  0.216218  0  3.892148  0
C  C37  1  0.03772735  0.46009218  0.69218908  1  -0.042215  0  -0.149141  -0.322346  0  3.836417  0
C  C38  1  0.87216985  0.46247463  0.69671176  1  0.571273  0  0.026699  0.113423  0  3.8654  0
C  C39  1  0.51345169  0.25947414  0.48624123  1  1.602136  0  0.215006  0.610095  0  4.163806  0
C  C40  1  0.55810167  0.52381923  0.30424248  1  1.641009  0  0.215187  0.662575  0  4.250475  0
C  C41  1  0.44253195  0.47184395  0.79590663  1  -0.360437  0  -0.038359  -0.17423  0  3.949243  0
C  C42  1  0.57619366  0.52963845  0.19792097  1  0.175121  0  -0.046329  -0.202876  0  3.94971  0
C  C43  1  0.56733659  0.51472719  0.01067278  1  0.044888  0  -0.074256  -0.135797  0  4.018144  0
C  C44  1  0.44082133  0.49719807  0.98394128  1  0.124621  0  0.020259  0.156415  0  3.999894  0
C  C45  1  0.43984800  0.48340705  0.88348659  1  0.099404  0  -0.025977  -0.051313  0  4.120234  0
C  C46  1  0.57735663  0.52533898  0.10953940  1  -0.450872  0  -0.035506  0.005968  0  4.185566  0
C  C47  1  0.30451282  0.49119576  0.05845941  1  -0.028239  0  -0.152565  -0.195268  0  3.935156  0
C  C48  1  0.17307130  0.52502189  0.01656789  1  0.035327  0  -0.16644  -0.089566  0  3.977196  0
C  C49  1  0.04173709  0.52526285  0.09773755  1  -0.082387  0  -0.243681  -0.351729  0  3.983242  0
C  C50  1  0.81403796  0.67256786  0.71984983  1  0.41913  0  -0.071611  0.080613  0  3.927067  0
C  C51  1  0.73669703  0.74988009  0.79983727  1  -0.011524  0  -0.242347  -0.391877  0  3.97411  0
C  C52  1  0.37713508  0.93597745  0.51301420  1  -0.033799  0  -0.011982  0.043822  0  3.895138  0
C  C53  1  0.81889191  0.13073266  0.35338356  1  0.378231  0  -0.071373  0.090879  0  3.922051  0
C  C54  1  0.96896762  0.17059747  0.34160346  1  -0.098818  0  -0.244193  -0.386417  0  3.986016  0
C  C55  1  0.49575809  0.86114312  0.50417788  1  0.021313  0  -0.013492  -0.048338  0  3.995323  0
C  C56  1  0.62486000  0.92092451  0.48605052  1  -0.005805  0  -0.097029  -0.223017  0  3.977275  0
C  C57  1  0.63564708  0.04759780  0.47605989  1  0.496057  0  0.086643  0.234471  0  4.04005  0
C  C58  1  0.51417831  0.12415921  0.48806157  1  -0.089834  0  -0.019443  -0.176744  0  3.928532  0
C  C59  1  0.38735581  0.06217582  0.50674591  1  -0.013177  0  -0.006997  0.07462  0  3.903411  0
C  C60  1  0.22994077  0.08156835  0.52497752  1  -0.048559  0  -0.155101  -0.195001  0  3.886386  0
N  N61  1  0.85641947  0.49657911  0.50037347  1  -1.195572  0  -0.282853  -0.158956  0  3.46184  0
N  N62  1  0.14977945  0.48986001  0.49947597  1  -1.208987  0  -0.285135  -0.174109  0  3.447462  0
O  O63  1  0.37772263  0.67896710  0.49695698  1  -1.151411  0  -0.31654  -0.537044  0  2.290448  0
O  O64  1  0.76996195  0.09230094  0.45627070  1  -1.066627  0  -0.214798  -0.247631  0  2.490907  0
O  O65  1  0.60114047  0.66781123  0.52292412  1  -1.171967  0  -0.320537  -0.557865  0  2.342771  0
O  O66  1  0.34838026  0.49314711  0.65370555  1  -1.14162  0  -0.308536  -0.53894  0  2.284872  0
O  O67  1  0.57840891  0.44049287  0.64305395  1  -1.148942  0  -0.30611  -0.533618  0  2.286801  0
O  O68  1  0.39291643  0.30993359  0.50889085  1  -1.156234  0  -0.316779  -0.544912  0  2.323402  0
O  O69  1  0.62916041  0.31566681  0.46375159  1  -1.154597  0  -0.311155  -0.537832  0  2.365493  0
O  O70  1  0.43320430  0.50204251  0.35022783  1  -1.150929  0  -0.313781  -0.550491  0  2.274625  0
O  O71  1  0.66457476  0.53882992  0.34302308  1  -1.1478  0  -0.314809  -0.544612  0  2.245064  0
O  O72  1  0.79225656  0.54712549  0.75495092  1  -1.047027  0  -0.214592  -0.230027  0  2.495754  0
