# generated using pymatgen
data_CuH12C20(NO2)2
_symmetry_space_group_name_H-M   'P 1'
_cell_length_a   12.88964135
_cell_length_b   13.22436713
_cell_length_c   17.08518144
_cell_angle_alpha   89.99986783
_cell_angle_beta   89.99743411
_cell_angle_gamma   116.52603359
_symmetry_Int_Tables_number   1
_chemical_formula_structural   CuH12C20(NO2)2
_chemical_formula_sum   'Cu4 H48 C80 N8 O16'
_cell_volume   2605.72192597
_cell_formula_units_Z   4
loop_
 _symmetry_equiv_pos_site_id
 _symmetry_equiv_pos_as_xyz
  1  'x, y, z'
loop_
 _atom_site_type_symbol
 _atom_site_label
 _atom_site_symmetry_multiplicity
 _atom_site_fract_x
 _atom_site_fract_y
 _atom_site_fract_z
 _atom_site_occupancy
 _atom_site_pbe_bader_charge
 _atom_site_pbe_bader_spin_density
 _atom_site_pbe_cm5_charge
 _atom_site_pbe_ddec_charge
 _atom_site_pbe_ddec_spin_density
 _atom_site_pbe_ddec_sum_bond_order
 _atom_site_pbe_magmom
Cu  Cu0  1  0.02419274  0.10195023  0.02817304  1  1.044553  0  0.667143  0.749782  0  2.364747  0
Cu  Cu1  1  0.97578515  0.39799094  0.52818414  1  1.044776  0  0.667308  0.750218  0  2.3644  0
Cu  Cu2  1  0.97579646  0.89800069  0.97183014  1  1.044865  0  0.667174  0.749866  0  2.363813  0
Cu  Cu3  1  0.02418329  0.60193620  0.47183543  1  1.044857  0  0.667071  0.74962  0  2.364128  0
H  H4  1  0.11515942  0.56633775  0.23257863  1  0.085633  0  0.110429  0.121033  0  0.994588  0
H  H5  1  0.88486980  0.93368966  0.73260328  1  0.085979  0  0.11045  0.121094  0  0.994549  0
H  H6  1  0.88485112  0.43368489  0.76741225  1  0.085961  0  0.110443  0.121072  0  0.994573  0
H  H7  1  0.11516234  0.06632058  0.26742038  1  0.085869  0  0.110449  0.121093  0  0.994512  0
H  H8  1  0.17560637  0.60620262  0.08993583  1  0.11541  0  0.103806  0.102725  0  1.057178  0
H  H9  1  0.82441549  0.89381711  0.58995733  1  0.115939  0  0.1038  0.102633  0  1.056996  0
H  H10  1  0.82439774  0.39380396  0.91006500  1  0.115498  0  0.103795  0.102685  0  1.057139  0
H  H11  1  0.17560196  0.10618289  0.41005521  1  0.115751  0  0.103756  0.102603  0  1.057071  0
H  H12  1  0.18861592  0.52825521  0.96009735  1  0.06782  0  0.108895  0.112375  0  0.99155  0
H  H13  1  0.81142231  0.97175505  0.46012275  1  0.067446  0  0.108805  0.112222  0  0.992036  0
H  H14  1  0.81139445  0.47174976  0.03990114  1  0.067543  0  0.108953  0.112424  0  0.991597  0
H  H15  1  0.18858993  0.02822471  0.53989447  1  0.067841  0  0.108928  0.112422  0  0.991841  0
H  H16  1  0.12389574  0.31975582  0.94623516  1  0.12918  0  0.115237  0.08587  0  1.008669  0
H  H17  1  0.87613301  0.18024521  0.44624483  1  0.129391  0  0.115238  0.085859  0  1.00876  0
H  H18  1  0.87612007  0.68025089  0.05376977  1  0.129089  0  0.115294  0.08598  0  1.008395  0
H  H19  1  0.12386530  0.81972599  0.55376127  1  0.12916  0  0.115285  0.086047  0  1.008326  0
H  H20  1  0.98587263  0.15484660  0.18430841  1  0.121997  0  0.108716  0.130193  0  1.031985  0
H  H21  1  0.01412675  0.34517005  0.68429947  1  0.122205  0  0.10865  0.130153  0  1.031997  0
H  H22  1  0.01413372  0.84516841  0.81570062  1  0.121854  0  0.108662  0.130194  0  1.032131  0
H  H23  1  0.98585218  0.65482365  0.31569843  1  0.121685  0  0.10868  0.130092  0  1.032014  0
H  H24  1  0.97086147  0.22442194  0.31731977  1  0.061953  0  0.105425  0.108061  0  1.008227  0
H  H25  1  0.02915378  0.27560450  0.81731748  1  0.061663  0  0.105396  0.107966  0  1.00833  0
H  H26  1  0.02914640  0.77559646  0.68267989  1  0.062071  0  0.105469  0.108062  0  1.008191  0
H  H27  1  0.97084975  0.72441805  0.18268511  1  0.062293  0  0.105465  0.108132  0  1.008275  0
H  H28  1  0.68360827  0.05198084  0.09965545  1  0.138449  0  0.109791  0.120162  0  0.99262  0
H  H29  1  0.31637779  0.44802603  0.59964723  1  0.108371  0  0.109826  0.120185  0  0.992722  0
H  H30  1  0.31637905  0.94802808  0.90034070  1  0.108097  0  0.109836  0.120236  0  0.99264  0
H  H31  1  0.68360873  0.55198457  0.40034190  1  0.138437  0  0.109787  0.120193  0  0.992613  0
H  H32  1  0.51532558  0.08861406  0.14318195  1  0.045019  0  0.110506  0.109649  0  0.97769  0
H  H33  1  0.48467417  0.41140489  0.64319209  1  0.045134  0  0.110584  0.109831  0  0.977679  0
H  H34  1  0.48467355  0.91138491  0.85680483  1  0.04497  0  0.1105  0.109694  0  0.977724  0
H  H35  1  0.51533302  0.58860510  0.35680757  1  0.045077  0  0.110576  0.109814  0  0.977655  0
H  H36  1  0.29928807  0.01916904  0.14873785  1  0.044402  0  0.10617  0.114073  0  0.995421  0
H  H37  1  0.70070257  0.48085970  0.64873763  1  0.04437  0  0.106125  0.113899  0  0.995352  0
H  H38  1  0.70070873  0.98082990  0.85125479  1  0.044435  0  0.106143  0.114011  0  0.995351  0
H  H39  1  0.29929594  0.51915859  0.35124857  1  0.044406  0  0.106141  0.114016  0  0.995232  0
H  H40  1  0.17041409  0.82803385  0.09535914  1  0.049091  0  0.108428  0.080757  0  1.018637  0
H  H41  1  0.82957546  0.67198030  0.59533403  1  0.049304  0  0.108506  0.081032  0  1.018616  0
H  H42  1  0.82958435  0.17195837  0.90464228  1  0.049111  0  0.108451  0.080771  0  1.018698  0
H  H43  1  0.17042122  0.32802873  0.40464456  1  0.04928  0  0.108476  0.080919  0  1.018598  0
H  H44  1  0.39913078  0.66855102  0.00889627  1  0.091605  0  0.103615  0.109665  0  1.013008  0
H  H45  1  0.60086849  0.83146123  0.50887277  1  0.091312  0  0.103555  0.109506  0  1.012999  0
H  H46  1  0.60088247  0.33144137  0.99111334  1  0.091611  0  0.103621  0.109727  0  1.013054  0
H  H47  1  0.39912940  0.16854361  0.49111460  1  0.091405  0  0.103594  0.109662  0  1.012951  0
H  H48  1  0.61305747  0.73212506  0.99580866  1  0.090265  0  0.107305  0.117275  0  0.992531  0
H  H49  1  0.38693969  0.76789696  0.49579201  1  0.090535  0  0.107379  0.117386  0  0.99235  0
H  H50  1  0.38695667  0.26789004  0.00419276  1  0.090939  0  0.107302  0.117248  0  0.992434  0
H  H51  1  0.61305739  0.23211123  0.50418892  1  0.100105  0  0.107336  0.117312  0  0.992298  0
C  C52  1  0.04235566  0.40000921  0.28269478  1  -0.092777  0  -0.016707  -0.033306  0  3.99666  0
C  C53  1  0.95765374  0.10000997  0.78270644  1  -0.092046  0  -0.016741  -0.033133  0  3.996562  0
C  C54  1  0.95764582  0.59998977  0.71730488  1  -0.092572  0  -0.016686  -0.033114  0  3.99635  0
C  C55  1  0.04235601  0.90001433  0.21730902  1  -0.092276  0  -0.01662  -0.03313  0  3.996734  0
C  C56  1  0.08726397  0.47660307  0.22194131  1  -0.001059  0  -0.074129  -0.127406  0  3.924037  0
C  C57  1  0.91274965  0.02341746  0.72195170  1  -0.00107  0  -0.074272  -0.127868  0  3.9244  0
C  C58  1  0.91273772  0.52341022  0.77806421  1  -0.001143  0  -0.074124  -0.127443  0  3.924312  0
C  C59  1  0.08727004  0.97659098  0.27806436  1  -0.001411  0  -0.074121  -0.12749  0  3.924414  0
C  C60  1  0.14465310  0.51516177  0.08236906  1  -0.045014  0  -0.064775  -0.068315  0  3.939338  0
C  C61  1  0.85536044  0.98485225  0.58238994  1  -0.045473  0  -0.064722  -0.068357  0  3.939158  0
C  C62  1  0.85534990  0.48484060  0.91762884  1  -0.045181  0  -0.064723  -0.06815  0  3.939256  0
C  C63  1  0.14465627  0.01514437  0.41762319  1  -0.045079  0  -0.064674  -0.068116  0  3.939058  0
C  C64  1  0.15348139  0.47265674  0.01044580  1  -0.013023  0  -0.090788  -0.145836  0  4.015151  0
C  C65  1  0.84654148  0.02735113  0.51046603  1  -0.012242  0  -0.090647  -0.145433  0  4.015668  0
C  C66  1  0.84652742  0.52734821  0.98955269  1  -0.01258  0  -0.090871  -0.145914  0  4.015083  0
C  C67  1  0.15347068  0.97263535  0.48954651  1  -0.012649  0  -0.090798  -0.145796  0  4.015386  0
C  C68  1  0.11672086  0.35545293  0.00236701  1  0.49578  0  0.055131  0.116511  0  3.954073  0
C  C69  1  0.88329099  0.14455007  0.50237877  1  0.495998  0  0.05513  0.116321  0  3.954322  0
C  C70  1  0.88328911  0.64455288  0.99763265  1  0.495939  0  0.055095  0.116374  0  3.953637  0
C  C71  1  0.11670484  0.85543288  0.49762792  1  0.495757  0  0.054995  0.116124  0  3.954007  0
C  C72  1  0.01375082  0.24429746  0.19529686  1  0.052382  0  -0.085707  -0.156749  0  3.944593  0
C  C73  1  0.98625281  0.25571801  0.69529791  1  0.051968  0  -0.085704  -0.15674  0  3.944606  0
C  C74  1  0.98626025  0.75571425  0.80470104  1  0.052609  0  -0.085761  -0.156924  0  3.944713  0
C  C75  1  0.01373932  0.74428088  0.30470292  1  0.052447  0  -0.085732  -0.15662  0  3.944639  0
C  C76  1  0.00578020  0.28315315  0.26864591  1  -0.056053  0  -0.084219  -0.09015  0  3.997225  0
C  C77  1  0.99422477  0.21686984  0.76865026  1  -0.056247  0  -0.084058  -0.090068  0  3.997291  0
C  C78  1  0.99421570  0.71685587  0.73134849  1  -0.056501  0  -0.084268  -0.090171  0  3.997012  0
C  C79  1  0.00577646  0.78314932  0.23135584  1  -0.056359  0  -0.084308  -0.090396  0  3.997479  0
C  C80  1  0.09814529  0.43951201  0.14600986  1  0.012593  0  -0.00533  0.031453  0  4.003832  0
C  C81  1  0.90185084  0.06049922  0.64602816  1  0.012529  0  -0.005237  0.031941  0  4.003353  0
C  C82  1  0.90185415  0.56049452  0.85399039  1  0.012691  0  -0.005402  0.031314  0  4.003885  0
C  C83  1  0.09815266  0.93949390  0.35398497  1  0.01278  0  -0.00536  0.031483  0  4.003903  0
C  C84  1  0.06113605  0.32126863  0.13235841  1  0.442873  0  0.116258  0.213242  0  3.963892  0
C  C85  1  0.93885802  0.17874138  0.63236939  1  0.442836  0  0.116201  0.212964  0  3.963771  0
C  C86  1  0.93887540  0.67874392  0.86764301  1  0.445119  0  0.116461  0.21342  0  3.96352  0
C  C87  1  0.06113299  0.82125329  0.36763729  1  0.442244  0  0.11632  0.21318  0  3.963772  0
C  C88  1  0.03096572  0.43931423  0.36303825  1  1.538391  0  0.214529  0.568427  0  4.176142  0
C  C89  1  0.96903327  0.06067342  0.86303671  1  1.537174  0  0.214727  0.568536  0  4.175742  0
C  C90  1  0.96902509  0.56066445  0.63696375  1  1.537403  0  0.214786  0.568574  0  4.17658  0
C  C91  1  0.03097074  0.93934157  0.13697056  1  1.537056  0  0.214786  0.568647  0  4.176712  0
C  C92  1  0.65997734  0.89596726  0.04723424  1  -0.042654  0  -0.017005  -0.027317  0  3.983064  0
C  C93  1  0.34001941  0.60404445  0.54721939  1  -0.042919  0  -0.016916  -0.027131  0  3.98255  0
C  C94  1  0.34002621  0.10405361  0.95277186  1  -0.042872  0  -0.017104  -0.027299  0  3.982785  0
C  C95  1  0.65997038  0.39595441  0.45277208  1  -0.042578  0  -0.017009  -0.02717  0  3.982803  0
C  C96  1  0.62101785  0.96779380  0.08107527  1  -0.021188  0  -0.074743  -0.127372  0  3.928253  0
C  C97  1  0.37897708  0.53222007  0.58107093  1  0.008956  0  -0.074827  -0.127548  0  3.928346  0
C  C98  1  0.37896945  0.03221681  0.91891678  1  0.009066  0  -0.074798  -0.127496  0  3.927918  0
C  C99  1  0.62102428  0.46778901  0.41891761  1  -0.021154  0  -0.074809  -0.127646  0  3.927909  0
C  C100  1  0.45566798  0.00478279  0.12191080  1  0.055952  0  -0.066617  -0.079134  0  3.963469  0
C  C101  1  0.54432291  0.49523260  0.62191234  1  0.056164  0  -0.066716  -0.079677  0  3.964023  0
C  C102  1  0.54432379  0.99521357  0.87807716  1  0.05529  0  -0.066666  -0.079361  0  3.96375  0
C  C103  1  0.45567264  0.50477221  0.37807621  1  0.056353  0  -0.066712  -0.079412  0  3.96401  0
C  C104  1  0.33745169  0.96697317  0.12487943  1  -0.028494  0  -0.090762  -0.13924  0  4.004162  0
C  C105  1  0.66255099  0.53305858  0.62487603  1  -0.028407  0  -0.09073  -0.138814  0  4.003942  0
C  C106  1  0.66254659  0.03303251  0.87510911  1  -0.028215  0  -0.090705  -0.139036  0  4.003978  0
C  C107  1  0.33745421  0.46695558  0.37511310  1  -0.029208  0  -0.090761  -0.139123  0  4.004002  0
C  C108  1  0.26433097  0.85820899  0.09499580  1  0.558983  0  0.050109  0.108963  0  3.983247  0
C  C109  1  0.73566316  0.64181531  0.59498388  1  0.559494  0  0.049959  0.108502  0  3.983549  0
C  C110  1  0.73566817  0.14178997  0.90500269  1  0.559008  0  0.05005  0.108874  0  3.983388  0
C  C111  1  0.26433429  0.35819373  0.40500583  1  0.559749  0  0.050041  0.108764  0  3.983354  0
C  C112  1  0.46200219  0.75188861  0.02874977  1  -0.001139  0  -0.090205  -0.166297  0  3.987849  0
C  C113  1  0.53799014  0.74812118  0.52872913  1  -0.001782  0  -0.090301  -0.16629  0  3.98807  0
C  C114  1  0.53800552  0.24811045  0.97125165  1  -0.001542  0  -0.090305  -0.166461  0  3.988171  0
C  C115  1  0.46199576  0.25187595  0.47124888  1  -0.001731  0  -0.090308  -0.16643  0  3.98811  0
C  C116  1  0.57935348  0.78661119  0.02183299  1  -0.049099  0  -0.084876  -0.08854  0  3.99184  0
C  C117  1  0.42064320  0.71340562  0.52181170  1  -0.049167  0  -0.084768  -0.088519  0  3.991627  0
C  C118  1  0.42065879  0.21339800  0.97817311  1  -0.049775  0  -0.084629  -0.088284  0  3.991666  0
C  C119  1  0.57934455  0.28660079  0.47817509  1  -0.058901  0  -0.08471  -0.088448  0  3.991517  0
C  C120  1  0.50082160  0.93404236  0.08923997  1  -0.074188  0  -0.008272  0.02992  0  4.010367  0
C  C121  1  0.49917081  0.56596699  0.58924086  1  -0.074436  0  -0.008395  0.030161  0  4.010346  0
C  C122  1  0.49916633  0.06594892  0.91074975  1  -0.073387  0  -0.008235  0.030096  0  4.010243  0
C  C123  1  0.50082315  0.43404117  0.41076055  1  -0.074351  0  -0.008271  0.030065  0  4.010301  0
C  C124  1  0.41944676  0.82467070  0.06159292  1  0.465629  0  0.108976  0.197076  0  4.017532  0
C  C125  1  0.58054929  0.67534134  0.56157565  1  0.466229  0  0.109093  0.19713  0  4.017361  0
C  C126  1  0.58054935  0.17532150  0.93840323  1  0.465716  0  0.108848  0.196845  0  4.017837  0
C  C127  1  0.41944281  0.32465923  0.43841055  1  0.46624  0  0.109015  0.197178  0  4.01759  0
C  C128  1  0.78681420  0.93471092  0.03310403  1  1.539142  0  0.21204  0.570187  0  4.172107  0
C  C129  1  0.21318978  0.56530809  0.53308476  1  1.538764  0  0.212172  0.570374  0  4.172149  0
C  C130  1  0.21319816  0.06532266  0.96691436  1  1.538595  0  0.212159  0.570432  0  4.172471  0
C  C131  1  0.78679821  0.43467813  0.46690847  1  1.538231  0  0.212028  0.570226  0  4.172482  0
N  N132  1  0.07158011  0.28149748  0.06022910  1  -1.206601  0  -0.323456  -0.283743  0  3.430011  0
N  N133  1  0.92843043  0.21850683  0.56023626  1  -1.207138  0  -0.323445  -0.283466  0  3.430383  0
N  N134  1  0.92843408  0.71851426  0.93977349  1  -1.20939  0  -0.323496  -0.283662  0  3.430278  0
N  N135  1  0.07156535  0.78147948  0.43976750  1  -1.206855  0  -0.323394  -0.28358  0  3.430249  0
N  N136  1  0.30236373  0.78870885  0.06482814  1  -1.20371  0  -0.317871  -0.311169  0  3.312861  0
N  N137  1  0.69763047  0.71130642  0.56480100  1  -1.204338  0  -0.317779  -0.311079  0  3.31281  0
N  N138  1  0.69763119  0.21128418  0.93517093  1  -1.203738  0  -0.317784  -0.311048  0  3.313102  0
N  N139  1  0.30236324  0.28869080  0.43517350  1  -1.204112  0  -0.317784  -0.311135  0  3.312976  0
O  O140  1  0.04847199  0.54152702  0.36980221  1  -1.106607  0  -0.303503  -0.507357  0  2.397093  0
O  O141  1  0.95156798  0.95845615  0.86978241  1  -1.106023  0  -0.303671  -0.50761  0  2.396748  0
O  O142  1  0.95151605  0.45842304  0.63020331  1  -1.105712  0  -0.303774  -0.507804  0  2.396729  0
O  O143  1  0.04850363  0.04157807  0.13018506  1  -1.105797  0  -0.303743  -0.507665  0  2.396957  0
O  O144  1  0.00460097  0.36631629  0.41762291  1  -1.105146  0  -0.302379  -0.518589  0  2.421267  0
O  O145  1  0.99535270  0.13362607  0.91764142  1  -1.105199  0  -0.302507  -0.518443  0  2.421287  0
O  O146  1  0.99538511  0.63363459  0.58238729  1  -1.105074  0  -0.302406  -0.518374  0  2.422361  0
O  O147  1  0.00456897  0.86633169  0.08240682  1  -1.104829  0  -0.302456  -0.518498  0  2.422057  0
O  O148  1  0.85492369  0.03646752  0.05145993  1  -1.105136  0  -0.309597  -0.512594  0  2.361207  0
O  O149  1  0.14508023  0.46352778  0.55142177  1  -1.105013  0  -0.309826  -0.513108  0  2.360972  0
O  O150  1  0.14511787  0.96353779  0.94859592  1  -1.104828  0  -0.309884  -0.513101  0  2.361101  0
O  O151  1  0.85488540  0.53643802  0.44857204  1  -1.104766  0  -0.309706  -0.512659  0  2.361335  0
O  O152  1  0.81399925  0.86207767  0.00210659  1  -1.0954  0  -0.311577  -0.514371  0  2.370521  0
O  O153  1  0.18598617  0.63793046  0.50211387  1  -1.094962  0  -0.311595  -0.514323  0  2.371095  0
O  O154  1  0.18597298  0.13795465  0.99786263  1  -1.094858  0  -0.311395  -0.514286  0  2.371062  0
O  O155  1  0.81401869  0.36204669  0.49788638  1  -1.094967  0  -0.311512  -0.514466  0  2.370728  0
