# generated using pymatgen
data_MnH16C24N2O5
_symmetry_space_group_name_H-M   'P 1'
_cell_length_a   10.66826729
_cell_length_b   10.82468219
_cell_length_c   11.00915109
_cell_angle_alpha   116.26992870
_cell_angle_beta   114.13921530
_cell_angle_gamma   95.03722780
_symmetry_Int_Tables_number   1
_chemical_formula_structural   MnH16C24N2O5
_chemical_formula_sum   'Mn2 H32 C48 N4 O10'
_cell_volume   982.61412864
_cell_formula_units_Z   2
loop_
 _symmetry_equiv_pos_site_id
 _symmetry_equiv_pos_as_xyz
  1  'x, y, z'
loop_
 _atom_site_type_symbol
 _atom_site_label
 _atom_site_symmetry_multiplicity
 _atom_site_fract_x
 _atom_site_fract_y
 _atom_site_fract_z
 _atom_site_occupancy
 _atom_site_hle17_ddec_charge
 _atom_site_hle17_ddec_spin_density
 _atom_site_hle17_ddec_sum_bond_order
 _atom_site_hle17_magmom
 _atom_site_hse06_10hf_ddec_charge
 _atom_site_hse06_10hf_ddec_spin_density
 _atom_site_hse06_10hf_ddec_sum_bond_order
 _atom_site_hse06_10hf_magmom
 _atom_site_hse06_ddec_charge
 _atom_site_hse06_ddec_spin_density
 _atom_site_hse06_ddec_sum_bond_order
 _atom_site_hse06_magmom
 _atom_site_pbe_cm5_charge
 _atom_site_pbe_ddec_charge
 _atom_site_pbe_ddec_spin_density
 _atom_site_pbe_ddec_sum_bond_order
 _atom_site_pbe_magmom
Mn  Mn0  1  0.78945190  0.38405213  0.93028813  1  1.106473  -4.794634  1.811373  -4.659  0.934674  -4.714629  2.321944  -4.505  0.999778  -4.764635  2.245905  -4.578  0.606811  0.885552  -4.659695  2.377778  -4.428
Mn  Mn1  1  0.21054830  0.61594712  0.06970977  1  1.106371  -4.794627  1.811495  -4.659  0.934576  -4.714613  2.322107  -4.505  0.999681  -4.764621  2.246069  -4.578  0.606802  0.885455  -4.659674  2.377942  -4.428
H  H2  1  0.04531659  0.42041340  0.55501383  1  0.0946  0.000184  0.974892  0.0  0.104137  6e-05  1.039965  0.0  0.107129  0.000115  1.038525  0.0  0.101515  0.101977  -1.1e-05  1.041139  0.0
H  H3  1  0.95468464  0.57958584  0.44498538  1  0.094617  0.000176  0.974915  0.0  0.104184  6e-05  1.039954  0.0  0.107177  0.000115  1.038514  0.0  0.101528  0.102024  -1.1e-05  1.041123  0.0
H  H4  1  0.89907676  0.28356770  0.26129695  1  0.098364  0.000247  0.975007  0.0  0.105856  0.000319  1.038638  0.0  0.108872  0.000329  1.037492  0.0  0.102376  0.104229  0.000329  1.038229  0.0
H  H5  1  0.10092345  0.71643152  0.73870276  1  0.098388  0.00024  0.975025  0.0  0.105883  0.000319  1.038649  0.0  0.108902  0.000329  1.037498  0.0  0.10238  0.104255  0.000329  1.038241  0.0
H  H6  1  0.64452804  0.13001375  0.12281261  1  0.126706  0.000164  0.945935  0.0  0.134441  2.2e-05  1.010123  0.0  0.138765  7.6e-05  1.006582  0.0  0.111081  0.131231  -3.2e-05  1.012795  0.0
H  H7  1  0.35547115  0.86998547  0.87718760  1  0.126732  0.000162  0.945908  0.0  0.134486  2.2e-05  1.010082  0.0  0.138808  7.6e-05  1.006538  0.0  0.111095  0.131275  -3.2e-05  1.012755  0.0
H  H8  1  0.66971808  0.25820330  0.56578058  1  0.119315  0.00025  0.955926  0.0  0.12482  4.6e-05  1.026412  0.0  0.128528  0.000144  1.023909  0.0  0.110692  0.122023  -8.6e-05  1.02848  0.0
H  H9  1  0.33028285  0.74179810  0.43422128  1  0.119314  0.00025  0.955944  0.0  0.124797  4.6e-05  1.026445  0.0  0.128506  0.000144  1.023941  0.0  0.110682  0.122  -8.6e-05  1.028513  0.0
H  H10  1  0.51420712  0.36760574  0.35636492  1  0.103678  -1.2e-05  0.96891  0.0  0.114924  2.9e-05  1.028838  0.0  0.117544  3.8e-05  1.029018  0.0  0.100229  0.113071  6e-06  1.02869  0.0
H  H11  1  0.48579381  0.63239562  0.64363965  1  0.103637  6e-06  0.968948  0.0  0.114902  2.9e-05  1.028852  0.0  0.117523  3.7e-05  1.029034  0.0  0.100227  0.11305  6e-06  1.028704  0.0
H  H12  1  0.30208346  0.45413934  0.33070600  1  0.091662  0.000397  0.959733  0.0  0.100922  0.00038  1.023206  0.0  0.103477  0.000398  1.021837  0.0  0.099181  0.099257  0.000363  1.023835  0.0
H  H13  1  0.69792024  0.54586421  0.66930063  1  0.091619  0.00039  0.959772  0.0  0.100894  0.00038  1.023238  0.0  0.103448  0.000398  1.021869  0.0  0.099187  0.09923  0.000363  1.023862  0.0
H  H14  1  0.05990614  0.28009337  0.21617555  1  0.090917  0.00019  0.972878  0.0  0.102687  0.000206  1.032349  0.0  0.105317  0.000222  1.031788  0.0  0.098428  0.101178  0.000189  1.031799  0.0
H  H15  1  0.94009623  0.71991240  0.78382792  1  0.090834  0.000175  0.972973  0.0  0.102647  0.000206  1.032392  0.0  0.105277  0.000221  1.031832  0.0  0.098421  0.101137  0.000189  1.031843  0.0
H  H16  1  0.03364382  0.02006102  0.13570585  1  0.092858  0.000138  0.953399  0.0  0.104213  3.2e-05  1.013753  0.0  0.106774  6e-05  1.012853  0.0  0.101768  0.102175  3e-06  1.014558  0.0
H  H17  1  0.96635408  0.97994371  0.86429176  1  0.092811  0.000141  0.953469  0.0  0.104168  3.2e-05  1.013822  0.0  0.106727  5.9e-05  1.012926  0.0  0.10176  0.10213  3e-06  1.014629  0.0
H  H18  1  0.53526875  0.08741776  0.63466335  1  0.073596  -0.000105  0.953189  0.0  0.079743  -0.000553  1.023148  -0.001  0.08194  -0.00035  1.021173  0.0  0.116388  0.078127  -0.000769  1.024663  -0.001
H  H19  1  0.46472899  0.91257712  0.36533164  1  0.073585  -0.000107  0.953194  0.0  0.079671  -0.000553  1.023215  -0.001  0.081869  -0.000351  1.021239  0.0  0.1164  0.078054  -0.000769  1.024731  -0.001
H  H20  1  0.26610190  0.99808634  0.45168206  1  0.115466  5e-06  0.964076  0.0  0.122299  1.2e-05  1.026784  0.0  0.126147  9.4e-05  1.025285  0.0  0.106448  0.119315  -0.000122  1.02834  0.0
H  H21  1  0.73389620  0.00190966  0.54831085  1  0.115414  1e-05  0.964144  0.0  0.12225  1.2e-05  1.026847  0.0  0.126095  9.3e-05  1.025353  0.0  0.106448  0.119271  -0.000122  1.028406  0.0
H  H22  1  0.13120875  0.17875680  0.49555974  1  0.091133  0.000132  0.937  0.0  0.104892  -1.8e-05  0.991209  0.0  0.107107  9e-06  0.990127  0.0  0.108402  0.103367  -5.1e-05  0.992035  0.0
H  H23  1  0.86879181  0.82124358  0.50443517  1  0.091155  0.000124  0.936987  0.0  0.104914  -1.8e-05  0.991197  0.0  0.107128  1e-05  0.990114  0.0  0.108402  0.103389  -5.1e-05  0.992023  0.0
H  H24  1  0.26994498  0.43749578  0.70995192  1  0.1127  7e-06  0.962252  0.0  0.121687  2.7e-05  1.02507  0.0  0.125143  9.7e-05  1.023286  0.0  0.110427  0.118986  -0.00014  1.026996  0.0
H  H25  1  0.73005692  0.56250236  0.29004706  1  0.112702  1.2e-05  0.962322  0.0  0.121684  2.7e-05  1.025145  0.0  0.125139  9.7e-05  1.02336  0.0  0.110409  0.118981  -0.00014  1.027068  0.0
H  H26  1  0.39341677  0.64352586  0.90275215  1  0.119053  -0.000705  0.950367  0.0  0.130116  -0.001307  1.010493  0.0  0.133369  -0.001012  1.008871  0.0  0.114836  0.12752  -0.001591  1.012276  -0.001
H  H27  1  0.60658374  0.35647119  0.09724581  1  0.119056  -0.000697  0.95031  0.0  0.1301  -0.001307  1.010472  0.0  0.133352  -0.001013  1.008852  0.0  0.114843  0.127504  -0.001591  1.012251  -0.001
H  H28  1  0.55944380  0.89407314  0.10415957  1  0.103866  0.000266  0.967907  0.0  0.10866  0.000139  1.038316  0.0  0.112116  0.000165  1.035088  0.0  0.108486  0.10612  9.9e-05  1.040669  0.0
H  H29  1  0.44055261  0.10592390  0.89583858  1  0.103842  0.000253  0.967909  0.0  0.108649  0.000139  1.03829  0.0  0.112103  0.000166  1.035077  0.0  0.108503  0.10611  9.9e-05  1.040641  0.0
H  H30  1  0.83085603  0.94478443  0.21488251  1  0.099391  -0.000276  0.94809  0.0  0.112236  -0.000302  1.002166  0.0  0.114753  -0.000234  1.002517  0.0  0.106162  0.110153  -0.000382  1.00274  0.0
H  H31  1  0.16914320  0.05521804  0.78512099  1  0.099354  -0.000278  0.948184  0.0  0.112221  -0.000302  1.002235  0.0  0.114737  -0.000234  1.002586  0.0  0.106132  0.11014  -0.000382  1.002809  0.0
H  H32  1  0.92017622  0.73259965  0.12620112  1  0.090752  9.2e-05  0.939492  0.0  0.097865  -0.000424  1.003356  -0.001  0.100642  -0.000179  1.000688  -0.001  0.121741  0.095587  -0.000677  1.00576  -0.001
H  H33  1  0.07982542  0.26740394  0.87380109  1  0.090743  8.7e-05  0.939474  0.0  0.097852  -0.000424  1.003349  -0.001  0.100629  -0.000179  1.000681  -0.001  0.121733  0.095575  -0.000677  1.005754  -0.001
C  C34  1  0.95060952  0.43822992  0.75394016  1  0.664956  -0.011962  3.882195  -0.012  0.614886  -0.019257  4.168355  -0.017  0.651264  -0.014995  4.161154  -0.014  0.225581  0.589461  -0.023715  4.17237  -0.021
C  C35  1  0.04939833  0.56177697  0.24606232  1  0.66464  -0.011972  3.882175  -0.012  0.614591  -0.019255  4.168357  -0.017  0.650965  -0.015002  4.161163  -0.014  0.225435  0.589167  -0.023716  4.172366  -0.021
C  C36  1  0.86715954  0.34810047  0.57857746  1  -0.058157  0.000858  3.777885  0.0  -0.030282  0.000346  4.002403  0.0  -0.038041  0.00107  4.025871  0.0  -0.018367  -0.025466  -0.000251  3.987578  0.0
C  C37  1  0.13284442  0.65189763  0.42142504  1  -0.058021  0.000743  3.777763  0.0  -0.030181  0.000357  4.00231  0.0  -0.037937  0.001057  4.025776  0.0  -0.018368  -0.025371  -0.000251  3.987492  0.0
C  C38  1  0.93243755  0.35249781  0.49233328  1  -0.090499  -0.002296  3.755639  -0.002  -0.116375  -0.002889  4.001124  -0.002  -0.116926  -0.002388  4.022317  -0.002  -0.091072  -0.116561  -0.003561  3.987104  -0.003
C  C39  1  0.06756507  0.64750252  0.50766695  1  -0.090596  -0.002227  3.755683  -0.002  -0.116493  -0.002896  4.001178  -0.002  -0.117044  -0.002376  4.02237  -0.002  -0.091099  -0.116674  -0.003561  3.987159  -0.003
C  C40  1  0.85189207  0.27557489  0.32941971  1  -0.056324  0.001846  3.768272  0.001  -0.067135  0.001221  4.021593  0.001  -0.069337  0.00147  4.041842  0.001  -0.089067  -0.065382  0.00105  4.006546  0.001
C  C41  1  0.14811019  0.72442431  0.67058261  1  -0.056298  0.001824  3.768248  0.001  -0.067113  0.001217  4.02157  0.001  -0.069314  0.001468  4.041817  0.001  -0.089029  -0.065359  0.00105  4.006524  0.001
C  C42  1  0.70668789  0.19001376  0.25024759  1  -0.15629  -0.002333  3.72117  -0.002  -0.182736  -0.002841  3.976063  -0.002  -0.184394  -0.002311  3.993128  -0.002  -0.091492  -0.181115  -0.00341  3.964013  -0.003
C  C43  1  0.29331268  0.80998654  0.74975455  1  -0.15632  -0.002294  3.721122  -0.002  -0.182785  -0.002831  3.976029  -0.002  -0.184441  -0.002318  3.993092  -0.002  -0.091521  -0.181166  -0.003409  3.963986  -0.003
C  C44  1  0.64347513  0.18362089  0.33682313  1  0.251703  0.00147  3.810786  0.001  0.245478  0.00084  4.072316  0.001  0.252958  0.001098  4.089362  0.001  0.078499  0.240949  0.000617  4.05941  0.001
C  C45  1  0.35652405  0.81637833  0.66317708  1  0.251637  0.001372  3.810816  0.001  0.245402  0.000829  4.072363  0.001  0.25287  0.001107  4.089411  0.001  0.078476  0.240879  0.000617  4.059455  0.001
C  C46  1  0.72134818  0.26253329  0.49982723  1  -0.174536  -0.001874  3.718624  -0.002  -0.20544  -0.002173  3.96648  -0.002  -0.206962  -0.001812  3.984418  -0.002  -0.08919  -0.204363  -0.003016  3.954057  -0.003
C  C47  1  0.27865444  0.73746702  0.50017481  1  -0.174521  -0.001781  3.718647  -0.002  -0.205376  -0.002172  3.966484  -0.002  -0.206899  -0.001809  3.984427  -0.002  -0.089172  -0.204297  -0.003015  3.954062  -0.003
C  C48  1  0.39021696  0.14402115  0.25182566  1  0.265209  -0.001881  3.766324  -0.002  0.248436  -0.002152  4.026398  -0.002  0.260453  -0.001804  4.04159  -0.002  0.087145  0.240196  -0.002596  4.016786  -0.002
C  C49  1  0.60978331  0.85598132  0.74817824  1  0.265277  -0.001847  3.766375  -0.002  0.248478  -0.002156  4.026476  -0.002  0.260486  -0.001801  4.041673  -0.002  0.087143  0.240244  -0.002595  4.01686  -0.002
C  C50  1  0.40830868  0.29173471  0.30686364  1  -0.206757  0.001802  3.782083  0.001  -0.225844  0.001053  4.032932  0.001  -0.232565  0.001275  4.054083  0.001  -0.11399  -0.221647  0.000833  4.019431  0.001
C  C51  1  0.59169364  0.70826773  0.69314287  1  -0.206792  0.001668  3.78211  0.001  -0.225877  0.001059  4.032956  0.001  -0.232602  0.001267  4.054112  0.001  -0.114011  -0.22168  0.000832  4.019452  0.001
C  C52  1  0.28924325  0.34014634  0.29380236  1  -0.029152  -0.002001  3.77292  -0.002  -0.043989  -0.002222  4.025891  -0.002  -0.041415  -0.001749  4.044933  -0.002  -0.091293  -0.045512  -0.002705  4.01329  -0.002
C  C53  1  0.71075839  0.65985723  0.70620166  1  -0.028983  -0.001949  3.77286  -0.002  -0.043837  -0.002222  4.025845  -0.002  -0.041262  -0.001744  4.044887  -0.002  -0.091236  -0.045358  -0.002704  4.013243  -0.002
C  C54  1  0.15347542  0.24271192  0.23023569  1  -0.100498  0.001507  3.779256  0.001  -0.119652  0.000772  4.039444  0.001  -0.124145  0.001059  4.060994  0.001  -0.105798  -0.116577  0.00061  4.023621  0.0
C  C55  1  0.84652556  0.75729275  0.76976765  1  -0.10047  0.001546  3.779325  0.001  -0.119656  0.000765  4.039514  0.001  -0.12415  0.001061  4.061065  0.001  -0.105785  -0.116583  0.00061  4.023693  0.0
C  C56  1  0.13809433  0.09692749  0.18252228  1  -0.065951  -0.002032  3.781607  -0.002  -0.087155  -0.00219  4.030959  -0.002  -0.085574  -0.001871  4.050786  -0.002  -0.088446  -0.087866  -0.00276  4.017385  -0.002
C  C57  1  0.86190665  0.90307718  0.81748105  1  -0.065881  -0.002036  3.781694  -0.002  -0.087098  -0.002187  4.031055  -0.002  -0.085514  -0.001871  4.050887  -0.002  -0.088474  -0.087809  -0.002759  4.017482  -0.002
C  C58  1  0.25468757  0.04436480  0.18944626  1  -0.163184  0.003667  3.747496  0.003  -0.147115  0.002811  3.988217  0.002  -0.156255  0.003113  4.007934  0.002  -0.028437  -0.141702  0.002434  3.975848  0.002
C  C59  1  0.74531094  0.95563551  0.81055418  1  -0.163314  0.003625  3.747672  0.003  -0.147213  0.002816  3.988371  0.002  -0.156365  0.00311  4.008105  0.002  -0.028461  -0.141796  0.002434  3.975994  0.002
C  C60  1  0.23439695  0.88608653  0.13244292  1  0.642327  -0.005436  3.916623  -0.003  0.591752  -0.009918  4.21378  -0.006  0.626715  -0.008042  4.206996  -0.005  0.200008  0.56805  -0.011626  4.216268  -0.007
C  C61  1  0.76560192  0.11391490  0.86755634  1  0.642407  -0.00544  3.916585  -0.003  0.591824  -0.009919  4.213753  -0.006  0.626789  -0.008041  4.206971  -0.005  0.200022  0.568121  -0.011625  4.216238  -0.007
C  C62  1  0.47258789  0.16196607  0.64545465  1  0.14079  -0.003715  3.699712  -0.004  0.107963  -0.006313  3.961217  -0.005  0.115383  -0.005209  3.979048  -0.004  0.052328  0.102656  -0.007798  3.949654  -0.006
C  C63  1  0.52741257  0.83802773  0.35454002  1  0.140823  -0.003667  3.699789  -0.003  0.10805  -0.006308  3.961279  -0.005  0.115471  -0.005214  3.979112  -0.004  0.052352  0.102743  -0.007799  3.949719  -0.006
C  C64  1  0.32276638  0.11212674  0.54617488  1  -0.116575  0.002024  3.706693  0.001  -0.130242  0.001282  3.959201  0.001  -0.137461  0.002066  3.98034  0.001  -0.081143  -0.125632  0.000587  3.946219  0.0
C  C65  1  0.67723274  0.88786923  0.45382114  1  -0.116498  0.00196  3.706758  0.001  -0.130173  0.001273  3.959272  0.001  -0.137392  0.002077  3.980413  0.001  -0.081142  -0.125569  0.000587  3.946291  0.0
C  C66  1  0.24866598  0.21274107  0.56969938  1  0.008383  -0.003356  3.720202  -0.003  -0.008203  -0.005491  3.965258  -0.004  -0.004395  -0.004601  3.984066  -0.004  -0.061679  -0.011199  -0.007077  3.953707  -0.005
C  C67  1  0.75133453  0.78725603  0.43029496  1  0.008338  -0.003312  3.720235  -0.003  -0.008245  -0.005492  3.965302  -0.004  -0.004435  -0.004603  3.984106  -0.004  -0.061703  -0.011242  -0.007078  3.953753  -0.005
C  C68  1  0.32632811  0.35801113  0.68873448  1  -0.136832  0.002446  3.685559  0.002  -0.155229  0.001637  3.930508  0.001  -0.162093  0.002356  3.951419  0.001  -0.075758  -0.151163  0.001186  3.918007  0.001
C  C69  1  0.67367343  0.64198594  0.31126298  1  -0.136887  0.002417  3.685725  0.002  -0.155274  0.001647  3.930687  0.001  -0.162136  0.00235  3.951597  0.001  -0.075748  -0.151206  0.001185  3.918182  0.001
C  C70  1  0.47733948  0.40007342  0.78177648  1  0.178004  -0.002817  3.761758  -0.003  0.176515  -0.005618  3.998468  -0.005  0.183157  -0.004546  4.019623  -0.004  0.12452  0.171832  -0.007282  3.984554  -0.006
C  C71  1  0.52266308  0.59992364  0.21822138  1  0.177986  -0.00282  3.761782  -0.003  0.176468  -0.005625  3.998531  -0.005  0.183107  -0.004542  4.019688  -0.004  0.124489  0.171784  -0.007282  3.984616  -0.006
C  C72  1  0.56839851  0.55313163  0.90676522  1  0.162384  -0.003322  3.782487  -0.003  0.158014  -0.006066  4.025105  -0.005  0.164117  -0.004797  4.046368  -0.004  0.120445  0.15399  -0.008099  4.010549  -0.006
C  C73  1  0.43160134  0.44686649  0.09323477  1  0.16244  -0.003281  3.782386  -0.003  0.158085  -0.006074  4.025021  -0.005  0.16419  -0.004795  4.046283  -0.004  0.120487  0.15406  -0.008101  4.010465  -0.006
C  C74  1  0.51018948  0.66514431  0.95248664  1  -0.138953  0.002149  3.692433  0.001  -0.161825  0.000477  3.949607  0.0  -0.168568  0.001283  3.97021  0.001  -0.076984  -0.157198  -0.000146  3.93616  0.0
C  C75  1  0.48980827  0.33485054  0.04751107  1  -0.139008  0.002059  3.692407  0.001  -0.161878  0.000481  3.949608  0.0  -0.168619  0.001283  3.970205  0.001  -0.077018  -0.15725  -0.000145  3.936162  0.0
C  C76  1  0.60436481  0.80722312  0.06576221  1  0.005851  -0.003379  3.69881  -0.003  -0.016338  -0.005218  3.955513  -0.004  -0.012603  -0.00419  3.974083  -0.003  -0.065427  -0.019182  -0.006809  3.943948  -0.005
C  C77  1  0.39562883  0.19277173  0.93423479  1  0.005924  -0.003317  3.698775  -0.003  -0.016232  -0.005219  3.955417  -0.004  -0.012502  -0.00419  3.973997  -0.003  -0.065404  -0.019076  -0.00681  3.943849  -0.005
C  C78  1  0.75395413  0.83445412  0.12853716  1  -0.116881  0.002117  3.724426  0.001  -0.127195  0.001069  3.971279  0.001  -0.134389  0.001797  3.99345  0.001  -0.079358  -0.123083  0.000296  3.958258  0.0
C  C79  1  0.24604162  0.16554402  0.87146032  1  -0.11689  0.002078  3.724493  0.001  -0.127229  0.001069  3.971361  0.001  -0.134424  0.001794  3.993531  0.001  -0.079342  -0.123119  0.000296  3.958344  0.0
C  C80  1  0.80408970  0.71686718  0.08003377  1  0.144272  -0.003846  3.686165  -0.004  0.113865  -0.00644  3.937976  -0.005  0.121143  -0.005166  3.955917  -0.004  0.059412  0.108629  -0.00771  3.926818  -0.006
C  C81  1  0.19591087  0.28313311  0.91996837  1  0.144315  -0.003801  3.686118  -0.003  0.113921  -0.006441  3.937946  -0.005  0.121201  -0.005161  3.955885  -0.004  0.05942  0.108686  -0.007712  3.92679  -0.006
N  N82  1  0.54877561  0.30187677  0.76007282  1  -0.368112  -0.027556  3.239019  -0.015  -0.303348  -0.032211  3.510934  -0.015  -0.323445  -0.02781  3.525826  -0.012  -0.313971  -0.288626  -0.036677  3.501084  -0.019
N  N83  1  0.45122316  0.69811812  0.23992258  1  -0.368066  -0.027578  3.239027  -0.015  -0.303254  -0.032207  3.510865  -0.015  -0.323351  -0.027808  3.525762  -0.012  -0.313946  -0.288533  -0.036676  3.501014  -0.019
N  N84  1  0.71348151  0.57942504  0.97382564  1  -0.350724  -0.02685  3.238057  -0.017  -0.284852  -0.031255  3.505065  -0.018  -0.304897  -0.027131  3.521508  -0.014  -0.312844  -0.270623  -0.036241  3.493965  -0.022
N  N85  1  0.28651772  0.42057745  0.02617605  1  -0.350769  -0.026883  3.238012  -0.017  -0.284927  -0.031253  3.505063  -0.018  -0.30497  -0.027137  3.521503  -0.014  -0.312873  -0.270695  -0.036243  3.493968  -0.022
O  O86  1  0.88129879  0.45097443  0.82661041  1  -0.650448  -0.037703  2.115173  -0.022  -0.586471  -0.050512  2.407586  -0.031  -0.618029  -0.043857  2.38992  -0.025  -0.309464  -0.562297  -0.057226  2.418747  -0.037
O  O87  1  0.11870696  0.54902917  0.17339160  1  -0.650161  -0.037679  2.115117  -0.022  -0.586219  -0.050511  2.407537  -0.031  -0.617775  -0.043842  2.389876  -0.025  -0.309336  -0.562051  -0.057221  2.418706  -0.037
O  O88  1  0.08716228  0.50183355  0.82156608  1  -0.634921  -0.037498  2.037134  -0.025  -0.572357  -0.045334  2.310021  -0.029  -0.603864  -0.039358  2.296262  -0.023  -0.308505  -0.548982  -0.051306  2.318716  -0.034
O  O89  1  0.91284218  0.49817552  0.17843695  1  -0.634917  -0.037507  2.037102  -0.025  -0.57234  -0.045331  2.30997  -0.029  -0.603849  -0.039364  2.296217  -0.023  -0.308501  -0.548961  -0.051307  2.318652  -0.034
O  O90  1  0.50242243  0.08835569  0.25579613  1  -0.307913  9e-05  2.397675  0.0  -0.236291  2.7e-05  2.627824  0.0  -0.254549  9.3e-05  2.631232  0.0  -0.153969  -0.22404  -0.000215  2.624918  0.0
O  O91  1  0.49757680  0.91164680  0.74420556  1  -0.307903  0.000109  2.397624  0.0  -0.236306  2.6e-05  2.627816  0.0  -0.254531  9.4e-05  2.631208  0.0  -0.15396  -0.224069  -0.000215  2.624917  0.0
O  O92  1  0.27842122  0.81486795  0.04021582  1  -0.619435  -0.019994  1.943911  -0.014  -0.564445  -0.027037  2.189977  -0.02  -0.592852  -0.023096  2.180999  -0.016  -0.304163  -0.542568  -0.030972  2.194379  -0.024
O  O93  1  0.72157971  0.18513345  0.95978604  1  -0.619462  -0.019997  1.943849  -0.014  -0.564453  -0.027035  2.18988  -0.02  -0.592858  -0.023099  2.180901  -0.016  -0.304147  -0.542589  -0.030971  2.194315  -0.024
O  O94  1  0.17327246  0.82642804  0.18158154  1  -0.652216  -0.0264  1.936407  -0.018  -0.588528  -0.030446  2.184049  -0.019  -0.619798  -0.027289  2.172536  -0.016  -0.322486  -0.564803  -0.033857  2.190519  -0.022
O  O95  1  0.82672739  0.17357011  0.81841664  1  -0.652253  -0.026392  1.936409  -0.018  -0.588574  -0.030447  2.184069  -0.019  -0.619841  -0.027289  2.172549  -0.016  -0.32251  -0.564854  -0.033857  2.190551  -0.022
