# generated using pymatgen
data_UH4(C4O3)2
_symmetry_space_group_name_H-M   'P 1'
_cell_length_a   5.32581512
_cell_length_b   5.32580555
_cell_length_c   16.60988744
_cell_angle_alpha   92.74995050
_cell_angle_beta   92.74972878
_cell_angle_gamma   106.48089748
_symmetry_Int_Tables_number   1
_chemical_formula_structural   UH4(C4O3)2
_chemical_formula_sum   'U2 H8 C16 O12'
_cell_volume   450.31657151
_cell_formula_units_Z   2
loop_
 _symmetry_equiv_pos_site_id
 _symmetry_equiv_pos_as_xyz
  1  'x, y, z'
loop_
 _atom_site_type_symbol
 _atom_site_label
 _atom_site_symmetry_multiplicity
 _atom_site_fract_x
 _atom_site_fract_y
 _atom_site_fract_z
 _atom_site_occupancy
 _atom_site_pbe_bader_spin_density
 _atom_site_pbe_cm5_charge
 _atom_site_pbe_ddec_charge
 _atom_site_pbe_ddec_spin_density
 _atom_site_pbe_ddec_sum_bond_order
 _atom_site_pbe_magmom
U  U0  1  0.00000416  0.00000790  0.00000379  1  0  2.226811  2.493171  0  4.848531  0
U  U1  1  0.99999683  0.99998868  0.49999812  1  0  2.226815  2.493151  0  4.848882  0
H  H2  1  0.20501352  0.79499200  0.75000017  1  0  0.11557  0.118842  0  1.002361  0
H  H3  1  0.79499250  0.20501432  0.25000029  1  0  0.115584  0.118845  0  1.002347  0
H  H4  1  0.78860324  0.21139300  0.75000149  1  0  0.109857  0.106675  0  0.988442  0
H  H5  1  0.21139550  0.78860746  0.25000179  1  0  0.109873  0.106699  0  0.988357  0
H  H6  1  0.53598068  0.24919227  0.86933468  1  0  0.11868  0.119026  0  1.038674  0
H  H7  1  0.75081878  0.46402043  0.63067056  1  0  0.118713  0.119058  0  1.038645  0
H  H8  1  0.46402255  0.75082391  0.13067069  1  0  0.118699  0.119074  0  1.038655  0
H  H9  1  0.24918016  0.53597414  0.36933203  1  0  0.118699  0.119065  0  1.038644  0
C  C10  1  0.21629557  0.55379729  0.89089705  1  0  0.268453  0.676907  0  4.085636  0
C  C11  1  0.44620528  0.78369639  0.60910169  1  0  0.268442  0.676981  0  4.085695  0
C  C12  1  0.78371380  0.44622082  0.10910483  1  0  0.268424  0.676929  0  4.085571  0
C  C13  1  0.55378235  0.21627843  0.39089263  1  0  0.268461  0.677087  0  4.085437  0
C  C14  1  0.33247238  0.66753816  0.74999956  1  0  -0.057151  -0.071088  0  3.88786  0
C  C15  1  0.66753228  0.33247009  0.24999909  1  0  -0.057181  -0.071101  0  3.887777  0
C  C16  1  0.35687602  0.52652933  0.81745223  1  0  -0.007525  -0.058258  0  3.964038  0
C  C17  1  0.47347940  0.64312941  0.68254730  1  0  -0.007583  -0.058251  0  3.964019  0
C  C18  1  0.64313167  0.47348288  0.18254834  1  0  -0.007556  -0.058195  0  3.963909  0
C  C19  1  0.52651949  0.35686511  0.31745168  1  0  -0.007559  -0.058311  0  3.963967  0
C  C20  1  0.66095617  0.33905798  0.75000303  1  0  -0.079619  -0.072981  0  3.977682  0
C  C21  1  0.33905346  0.66095429  0.25000178  1  0  -0.079639  -0.07295  0  3.977531  0
C  C22  1  0.51871839  0.35950408  0.81689841  1  0  -0.056132  -0.060095  0  3.904484  0
C  C23  1  0.64050843  0.48129148  0.68310706  1  0  -0.056236  -0.060306  0  3.904459  0
C  C24  1  0.48129422  0.64051211  0.18310590  1  0  -0.056212  -0.060374  0  3.904459  0
C  C25  1  0.35949463  0.51871094  0.31689570  1  0  -0.056147  -0.06019  0  3.904437  0
O  O26  1  0.70738294  0.98014880  0.93746829  1  0  -0.745917  -0.694017  0  1.892214  0
O  O27  1  0.01985553  0.29258012  0.56252762  1  0  -0.746022  -0.693894  0  1.892982  0
O  O28  1  0.29260949  0.01986924  0.06253214  1  0  -0.745967  -0.693856  0  1.892441  0
O  O29  1  0.98012952  0.70735932  0.43746014  1  0  -0.745904  -0.693982  0  1.892028  0
O  O30  1  0.11638217  0.74376533  0.89911140  1  0  -0.36194  -0.622326  0  2.33067  0
O  O31  1  0.25623924  0.88360972  0.60088635  1  0  -0.361907  -0.622336  0  2.330741  0
O  O32  1  0.88362832  0.25625671  0.10089115  1  0  -0.361877  -0.622274  0  2.330752  0
O  O33  1  0.74374836  0.11636508  0.39910617  1  0  -0.361917  -0.622348  0  2.330537  0
O  O34  1  0.20130687  0.38417351  0.94391153  1  0  -0.373286  -0.648574  0  2.368377  0
O  O35  1  0.61582749  0.79866668  0.55608683  1  0  -0.373276  -0.648607  0  2.368301  0
O  O36  1  0.79868822  0.61584064  0.05609008  1  0  -0.373287  -0.648602  0  2.368317  0
O  O37  1  0.38416224  0.20130228  0.44390804  1  0  -0.373243  -0.648596  0  2.368222  0
