# generated using pymatgen
data_ZnH8(C5N2)2
_symmetry_space_group_name_H-M   'P 1'
_cell_length_a   15.02117588
_cell_length_b   14.49188905
_cell_length_c   21.34457440
_cell_angle_alpha   90.14837467
_cell_angle_beta   89.94665496
_cell_angle_gamma   89.92760710
_symmetry_Int_Tables_number   1
_chemical_formula_structural   ZnH8(C5N2)2
_chemical_formula_sum   'Zn8 H64 C80 N32'
_cell_volume   4646.37693711
_cell_formula_units_Z   8
loop_
 _symmetry_equiv_pos_site_id
 _symmetry_equiv_pos_as_xyz
  1  'x, y, z'
loop_
 _atom_site_type_symbol
 _atom_site_label
 _atom_site_symmetry_multiplicity
 _atom_site_fract_x
 _atom_site_fract_y
 _atom_site_fract_z
 _atom_site_occupancy
 _atom_site_pbe_bader_charge
 _atom_site_pbe_bader_spin_density
 _atom_site_pbe_cm5_charge
 _atom_site_pbe_ddec_charge
 _atom_site_pbe_ddec_spin_density
 _atom_site_pbe_ddec_sum_bond_order
 _atom_site_pbe_magmom
Zn  Zn0  1  0.47645674  0.33655358  0.01568013  1  1.186887  0  0.737509  0.612631  0  2.420194  0
Zn  Zn1  1  0.62978178  0.49551308  0.00322958  1  1.183013  0  0.743429  0.600401  0  2.493224  0
Zn  Zn2  1  0.47960319  0.65739327  0.00229979  1  1.186288  0  0.74128  0.604829  0  2.465548  0
Zn  Zn3  1  0.32217865  0.50004557  0.00944478  1  1.189261  0  0.738153  0.614607  0  2.414041  0
Zn  Zn4  1  0.00082656  0.85089604  0.49911441  1  1.187753  0  0.741075  0.607292  0  2.458046  0
Zn  Zn5  1  0.15314010  0.01327870  0.50885321  1  1.187344  0  0.738028  0.612577  0  2.421336  0
Zn  Zn6  1  0.99529021  0.17298398  0.51435640  1  1.189101  0  0.738449  0.613079  0  2.42274  0
Zn  Zn7  1  0.84659960  0.00892904  0.50304132  1  1.185799  0  0.742977  0.600036  0  2.489165  0
H  H8  1  0.47641130  0.70754331  0.15179492  1  0.094028  0  0.114908  0.099708  0  1.015295  0
H  H9  1  0.67790984  0.10743106  0.57455374  1  0.090392  0  0.116746  0.102311  0  0.998315  0
H  H10  1  0.00031103  0.79343349  0.64739822  1  0.092812  0  0.114469  0.098552  0  1.015501  0
H  H11  1  0.30965115  0.89295808  0.58311939  1  0.075052  0  0.116087  0.10119  0  0.999375  0
H  H12  1  0.98991554  0.82873204  0.34991140  1  0.093066  0  0.113436  0.096844  0  1.022747  0
H  H13  1  0.68709356  0.90042383  0.42575110  1  0.075784  0  0.116819  0.103547  0  0.996744  0
H  H14  1  0.00597751  0.23004167  0.36488490  1  0.100601  0  0.114763  0.099631  0  1.015389  0
H  H15  1  0.31182034  0.13582926  0.44246255  1  0.077238  0  0.116203  0.101189  0  0.999044  0
H  H16  1  0.86759423  0.68370042  0.84202031  1  0.037106  0  0.091836  0.086185  0  1.002589  0
H  H17  1  0.44419514  0.71905023  0.74868631  1  0.032623  0  0.091919  0.088463  0  1.003711  0
H  H18  1  0.08126669  0.27809051  0.86914815  1  -0.005417  0  0.090949  0.084278  0  1.004166  0
H  H19  1  0.16560099  0.62741907  0.08062064  1  0.080755  0  0.116521  0.102189  0  0.999309  0
H  H20  1  0.52501033  0.23073244  0.75599130  1  0.026404  0  0.092821  0.090398  0  1.000523  0
H  H21  1  0.88346686  0.31578552  0.15503377  1  0.029833  0  0.091927  0.086965  0  1.002289  0
H  H22  1  0.45342641  0.29885047  0.27779177  1  0.030506  0  0.092435  0.088879  0  1.001165  0
H  H23  1  0.08461387  0.74152303  0.14844772  1  0.031767  0  0.091941  0.08683  0  1.001433  0
H  H24  1  0.53468477  0.74927743  0.25817671  1  0.033578  0  0.092945  0.090972  0  0.999279  0
H  H25  1  0.39358146  0.24018746  0.37198916  1  0.022024  0  0.091533  0.08635  0  1.003574  0
H  H26  1  0.94803410  0.27196448  0.25395259  1  0.046371  0  0.09274  0.090386  0  0.99884  0
H  H27  1  0.60119245  0.80549864  0.35243318  1  0.032118  0  0.092125  0.086514  0  1.003273  0
H  H28  1  0.02782689  0.80761190  0.24170954  1  0.060232  0  0.092311  0.088387  0  1.00304  0
H  H29  1  0.38666802  0.78782124  0.65720734  1  0.019629  0  0.091784  0.086525  0  1.002062  0
H  H30  1  0.49365577  0.31785733  0.16638473  1  0.072598  0  0.113454  0.096909  0  1.02069  0
H  H31  1  0.93306735  0.74177917  0.74836856  1  0.034867  0  0.092605  0.090333  0  1.000447  0
H  H32  1  0.58993752  0.18477102  0.65747221  1  0.040843  0  0.091717  0.087044  0  1.00223  0
H  H33  1  0.02124444  0.21867366  0.77529758  1  0.038866  0  0.09245  0.088857  0  1.002865  0
H  H34  1  0.59316459  0.18720908  0.10433770  1  0.05419  0  0.11634  0.10449  0  0.994224  0
H  H35  1  0.67277832  0.48776016  0.15319357  1  0.085174  0  0.115131  0.103913  0  1.012452  0
H  H36  1  0.37646274  0.83009976  0.07278486  1  0.063807  0  0.115978  0.104119  0  0.994151  0
H  H37  1  0.29052526  0.53044545  0.15986177  1  0.077337  0  0.114699  0.102563  0  1.010466  0
H  H38  1  0.59041947  0.81556746  0.91789204  1  0.094571  0  0.116988  0.105732  0  0.993005  0
H  H39  1  0.65005508  0.50543765  0.85247497  1  0.071369  0  0.115216  0.103148  0  1.012451  0
H  H40  1  0.36280965  0.16606412  0.94945408  1  0.083777  0  0.115926  0.103925  0  0.994708  0
H  H41  1  0.79722608  0.39194403  0.07170564  1  0.093006  0  0.117203  0.103621  0  0.997714  0
H  H42  1  0.28057623  0.47927614  0.85782456  1  0.070972  0  0.114947  0.103134  0  1.008194  0
H  H43  1  0.10856532  0.68063384  0.56854212  1  0.072079  0  0.115824  0.103502  0  0.994178  0
H  H44  1  0.18177106  0.98218856  0.65923920  1  0.077234  0  0.114605  0.102685  0  1.011891  0
H  H45  1  0.87462227  0.32162619  0.60156402  1  0.058521  0  0.116508  0.104993  0  0.994109  0
H  H46  1  0.80554024  0.01461345  0.65277745  1  0.079074  0  0.115501  0.104089  0  1.013735  0
H  H47  1  0.10586092  0.34458344  0.44698577  1  0.110618  0  0.115508  0.102755  0  0.996145  0
H  H48  1  0.19391917  0.03996167  0.35737581  1  0.075459  0  0.115368  0.104274  0  1.010568  0
H  H49  1  0.89194852  0.69092449  0.41384828  1  0.10011  0  0.116689  0.105661  0  0.994723  0
H  H50  1  0.82361742  0.99892709  0.35248355  1  0.070727  0  0.11574  0.104052  0  1.009679  0
H  H51  1  0.72627899  0.83642067  0.83058103  1  0.031836  0  0.097187  0.097095  0  1.00186  0
H  H52  1  0.46438051  0.27742726  0.86626076  1  0.087743  0  0.114407  0.100069  0  1.015811  0
H  H53  1  0.28985589  0.57990425  0.74603779  1  0.06094  0  0.098113  0.096959  0  0.995799  0
H  H54  1  0.23231634  0.13542300  0.86008571  1  0.017455  0  0.096557  0.096512  0  0.999688  0
H  H55  1  0.64106070  0.40468153  0.74683634  1  0.042621  0  0.097723  0.096143  0  0.997786  0
H  H56  1  0.73778148  0.17331275  0.18410287  1  0.054754  0  0.096254  0.09541  0  1.004119  0
H  H57  1  0.29966983  0.43883144  0.27306168  1  0.045173  0  0.097632  0.097452  0  0.995839  0
H  H58  1  0.24762116  0.86813135  0.16095589  1  0.049467  0  0.096066  0.096818  0  0.999385  0
H  H59  1  0.67121123  0.59109364  0.26055709  1  0.064049  0  0.098529  0.097265  0  0.995574  0
H  H60  1  0.23794067  0.37671570  0.35936285  1  0.034968  0  0.096247  0.095039  0  1.001177  0
H  H61  1  0.83001060  0.09919649  0.24663718  1  0.02753  0  0.09798  0.09587  0  0.997627  0
H  H62  1  0.75351237  0.66773433  0.32899287  1  0.05144  0  0.096532  0.096448  0  1.002441  0
H  H63  1  0.16325866  0.38097761  0.93993395  1  0.050745  0  0.115774  0.101055  0  1.000355  0
H  H64  1  0.18704290  0.94078023  0.24384006  1  0.048374  0  0.097625  0.096781  0  0.9974  0
H  H65  1  0.23527504  0.64540316  0.65793721  1  0.062181  0  0.096772  0.097511  0  0.999047  0
H  H66  1  0.80773877  0.90896706  0.75925046  1  0.036896  0  0.098529  0.097486  0  0.996783  0
H  H67  1  0.73190396  0.33278497  0.68294977  1  0.049831  0  0.096289  0.095078  0  1.004002  0
H  H68  1  0.17153387  0.07458159  0.77234263  1  0.029091  0  0.097763  0.096402  0  0.995667  0
H  H69  1  0.48942734  0.68550845  0.85376579  1  0.078979  0  0.11342  0.097069  0  1.025408  0
H  H70  1  0.78774854  0.59789117  0.92179871  1  0.082012  0  0.11724  0.104507  0  0.996761  0
H  H71  1  0.97878598  0.19509094  0.66482443  1  0.1025  0  0.113795  0.09804  0  1.020112  0
C  C72  1  0.63383232  0.24493827  0.08908271  1  0.448918  0  0.002564  -0.066595  0  3.995815  0
C  C73  1  0.13032086  0.03306229  0.64990636  1  0.466085  0  0.008938  -0.050682  0  3.94882  0
C  C74  1  0.83584128  0.26172090  0.58764292  1  0.426311  0  0.002214  -0.068433  0  3.99835  0
C  C75  1  0.85618241  0.96380264  0.64113550  1  0.447093  0  0.008214  -0.052652  0  3.954662  0
C  C76  1  0.14797235  0.28413415  0.45269209  1  0.391972  0  0.00191  -0.067492  0  4.00597  0
C  C77  1  0.14178898  0.98970630  0.36609149  1  0.444704  0  0.008863  -0.052093  0  3.95123  0
C  C78  1  0.85041551  0.75060331  0.42397144  1  0.377214  0  0.00212  -0.070821  0  4.002166  0
C  C79  1  0.87021472  0.05258272  0.36611131  1  0.389604  0  0.008903  -0.051541  0  3.957945  0
C  C80  1  0.52196538  0.65113449  0.14192355  1  0.377104  0  0.010826  -0.043002  0  3.935749  0
C  C81  1  0.22493340  0.66804536  0.07159682  1  0.427496  0  0.004806  -0.059113  0  3.983693  0
C  C82  1  0.44575497  0.37104060  0.15433557  1  0.402759  0  0.010896  -0.042039  0  3.936386  0
C  C83  1  0.62194396  0.53865439  0.14240052  1  0.386873  0  0.008589  -0.052471  0  3.954055  0
C  C84  1  0.73836145  0.34851703  0.07237055  1  0.41239  0  0.005168  -0.061242  0  3.988305  0
C  C85  1  0.50851882  0.33579375  0.87325419  1  0.41701  0  0.010505  -0.043761  0  3.932823  0
C  C86  1  0.22026240  0.33691984  0.94925127  1  0.418778  0  0.004894  -0.058261  0  3.981531  0
C  C87  1  0.44054837  0.63302280  0.86503917  1  0.422273  0  0.009254  -0.044801  0  3.943726  0
C  C88  1  0.73122992  0.64373647  0.92828239  1  0.346147  0  0.005108  -0.06315  0  3.988084  0
C  C89  1  0.02674439  0.14172392  0.65300944  1  0.400755  0  0.009749  -0.044772  0  3.94063  0
C  C90  1  0.73507502  0.15323537  0.57384492  1  0.391752  0  0.005434  -0.058355  0  3.9858  0
C  C91  1  0.95513185  0.85042378  0.63850844  1  0.379193  0  0.011193  -0.041519  0  3.936228  0
C  C92  1  0.25260134  0.84971869  0.57245832  1  0.397613  0  0.005678  -0.057081  0  3.979459  0
C  C93  1  0.03754055  0.88208835  0.36204576  1  0.400756  0  0.010065  -0.043453  0  3.945354  0
C  C94  1  0.33273371  0.77082759  0.06785204  1  0.402621  0  0.001684  -0.070521  0  4.006832  0
C  C95  1  0.74551833  0.85672636  0.43022524  1  0.387821  0  0.005361  -0.06127  0  3.982865  0
C  C96  1  0.96282026  0.17101372  0.37219967  1  0.413704  0  0.010909  -0.042315  0  3.932487  0
C  C97  1  0.25330469  0.17833318  0.45060137  1  0.394322  0  0.005345  -0.056426  0  3.980049  0
C  C98  1  0.72017315  0.26971133  0.10868416  1  -0.032845  0  -0.04173  0.008882  0  4.1482  0
C  C99  1  0.58510672  0.60783095  0.18107518  1  0.076761  0  -0.037632  0.009853  0  4.1219  0
C  C100  1  0.24886504  0.75553870  0.09536800  1  -0.026591  0  -0.041439  0.008482  0  4.14943  0
C  C101  1  0.38425338  0.41858219  0.19278065  1  0.061833  0  -0.038026  0.008134  0  4.117234  0
C  C102  1  0.71211907  0.72849846  0.89895344  1  0.098559  0  -0.041261  0.009853  0  4.150743  0
C  C103  1  0.56548297  0.38089374  0.83046458  1  0.026829  0  -0.037931  0.009931  0  4.118006  0
C  C104  1  0.23993159  0.24818804  0.92561799  1  0.03006  0  -0.041719  0.009534  0  4.143593  0
C  C105  1  0.34207392  0.47950333  0.15074863  1  0.405602  0  0.008958  -0.05088  0  3.951792  0
C  C106  1  0.37572145  0.59093050  0.82664636  1  0.023783  0  -0.037103  0.00981  0  4.117912  0
C  C107  1  0.23096693  0.76123844  0.59534214  1  0.063915  0  -0.040628  0.007997  0  4.147309  0
C  C108  1  0.08810685  0.09479468  0.69164979  1  -0.030266  0  -0.037836  0.008453  0  4.116334  0
C  C109  1  0.75099743  0.23420713  0.60873373  1  0.036368  0  -0.042227  0.006126  0  4.149733  0
C  C110  1  0.89158472  0.89238165  0.67825249  1  0.01087  0  -0.038118  0.007946  0  4.125473  0
C  C111  1  0.23190944  0.26579233  0.42591524  1  -0.008452  0  -0.041893  0.00672  0  4.147633  0
C  C112  1  0.10061975  0.92767130  0.32410836  1  -0.000117  0  -0.037869  0.008225  0  4.11729  0
C  C113  1  0.76579734  0.77278223  0.39987080  1  0.00962  0  -0.042227  0.008604  0  4.153791  0
C  C114  1  0.90627739  0.12445666  0.32978048  1  0.006284  0  -0.038332  0.008453  0  4.121823  0
C  C115  1  0.83674997  0.74607740  0.82300644  1  -0.059083  0  -0.109577  -0.10015  0  4.083026  0
C  C116  1  0.63030718  0.75420201  0.92625613  1  0.358639  0  0.002576  -0.07022  0  4.001085  0
C  C117  1  0.38479245  0.68545256  0.72979569  1  0.028938  0  -0.110974  -0.108831  0  4.080008  0
C  C118  1  0.11733970  0.21895505  0.84963550  1  0.00416  0  -0.109712  -0.099216  0  4.082461  0
C  C119  1  0.57493503  0.27741105  0.73637021  1  -0.001028  0  -0.112555  -0.111546  0  4.084225  0
C  C120  1  0.85200982  0.25800040  0.17940113  1  -0.028248  0  -0.109453  -0.10176  0  4.07979  0
C  C121  1  0.39352516  0.33436434  0.29436301  1  0.009402  0  -0.11081  -0.106848  0  4.077517  0
C  C122  1  0.12525662  0.79682774  0.16848832  1  -0.056209  0  -0.109366  -0.102686  0  4.086117  0
C  C123  1  0.59130196  0.70929657  0.27555385  1  -0.104919  0  -0.111917  -0.111449  0  4.085121  0
C  C124  1  0.35601693  0.29734729  0.35144535  1  -0.019989  0  -0.109445  -0.103685  0  4.085953  0
C  C125  1  0.89728783  0.22557389  0.23497429  1  -0.106554  0  -0.111214  -0.110257  0  4.083125  0
C  C126  1  0.63554948  0.74777106  0.32973181  1  0.069629  0  -0.108906  -0.099478  0  4.08531  0
C  C127  1  0.60271739  0.45274587  0.86644150  1  0.412718  0  0.008448  -0.051743  0  3.957232  0
C  C128  1  0.08932315  0.83906950  0.22452368  1  -0.097474  0  -0.111254  -0.107444  0  4.076717  0
C  C129  1  0.34955321  0.72765221  0.67374211  1  -0.07826  0  -0.110186  -0.102624  0  4.087351  0
C  C130  1  0.88037116  0.78461506  0.76869373  1  -0.005506  0  -0.112293  -0.112538  0  4.085505  0
C  C131  1  0.62017115  0.24435757  0.68074927  1  -0.033524  0  -0.109784  -0.102952  0  4.079079  0
C  C132  1  0.07987889  0.18178787  0.79250886  1  -0.104283  0  -0.112406  -0.110665  0  4.080298  0
C  C133  1  0.75938127  0.77528875  0.84951549  1  -0.004228  0  -0.103735  -0.134583  0  4.047461  0
C  C134  1  0.34859919  0.61583281  0.76400370  1  -0.127062  0  -0.096223  -0.11666  0  4.024445  0
C  C135  1  0.19524836  0.19515258  0.87768752  1  0.020266  0  -0.101827  -0.132238  0  4.042744  0
C  C136  1  0.59377395  0.35645200  0.76795951  1  -0.063358  0  -0.094701  -0.115904  0  4.036335  0
C  C137  1  0.77127167  0.22876172  0.15865640  1  -0.012072  0  -0.102485  -0.132575  0  4.048056  0
C  C138  1  0.32227379  0.22791583  0.95398257  1  0.366877  0  0.002048  -0.068929  0  4.004609  0
C  C139  1  0.35816532  0.40054214  0.25675198  1  -0.104567  0  -0.0962  -0.118234  0  4.026921  0
C  C140  1  0.20636856  0.81226892  0.14235109  1  -0.000127  0  -0.102557  -0.131686  0  4.046072  0
C  C141  1  0.61688167  0.63366927  0.24237162  1  -0.017843  0  -0.096197  -0.117424  0  4.035019  0
C  C142  1  0.27647434  0.31898025  0.37816513  1  -0.020069  0  -0.102065  -0.12888  0  4.04263  0
C  C143  1  0.87775749  0.14753733  0.26723137  1  0.033938  0  -0.096047  -0.11633  0  4.039011  0
C  C144  1  0.71742725  0.72437800  0.35158663  1  -0.111807  0  -0.103014  -0.13417  0  4.050255  0
C  C145  1  0.12714459  0.90576911  0.26068843  1  -0.024636  0  -0.095462  -0.117244  0  4.022849  0
C  C146  1  0.27301924  0.70611733  0.64317349  1  -0.02177  0  -0.102762  -0.132032  0  4.04716  0
C  C147  1  0.85889121  0.86422135  0.73880479  1  -0.040439  0  -0.094697  -0.114773  0  4.035325  0
C  C148  1  0.69960721  0.27528592  0.65870912  1  -0.07764  0  -0.102395  -0.130186  0  4.04623  0
C  C149  1  0.33404450  0.52770436  0.86735851  1  0.421868  0  0.00793  -0.053188  0  3.947863  0
C  C150  1  0.11407156  0.11384879  0.75553696  1  0.002056  0  -0.095599  -0.115898  0  4.025003  0
C  C151  1  0.14979797  0.74199937  0.56512708  1  0.363894  0  0.002287  -0.067312  0  4.003622  0
N  N152  1  0.60331909  0.30415660  0.04549400  1  -0.80116  0  -0.271667  -0.183941  0  3.533076  0
N  N153  1  0.09788936  0.04445378  0.59161645  1  -0.757821  0  -0.282542  -0.182862  0  3.627947  0
N  N154  1  0.86763773  0.20209466  0.54453614  1  -0.797746  0  -0.27082  -0.182039  0  3.529359  0
N  N155  1  0.89415790  0.96230360  0.58403088  1  -0.798223  0  -0.285812  -0.182106  0  3.643582  0
N  N156  1  0.12160042  0.21380158  0.48940317  1  -0.802968  0  -0.27418  -0.183588  0  3.53527  0
N  N157  1  0.10686675  0.97973038  0.42389255  1  -0.78128  0  -0.282  -0.182013  0  3.623256  0
N  N158  1  0.87784504  0.81557797  0.46482596  1  -0.826074  0  -0.273162  -0.18015  0  3.542385  0
N  N159  1  0.90118545  0.05784918  0.42505090  1  -0.802108  0  -0.286514  -0.183996  0  3.653434  0
N  N160  1  0.52345526  0.61148022  0.08494104  1  -0.781273  0  -0.279609  -0.176331  0  3.635768  0
N  N161  1  0.28925905  0.63460317  0.03387937  1  -0.78535  0  -0.267436  -0.178536  0  3.522094  0
N  N162  1  0.43842935  0.40038711  0.09488344  1  -0.775295  0  -0.278654  -0.177907  0  3.630026  0
N  N163  1  0.58495359  0.54249832  0.08511680  1  -0.799555  0  -0.285509  -0.183258  0  3.646044  0
N  N164  1  0.66876775  0.36890056  0.03530199  1  -0.800955  0  -0.274068  -0.175552  0  3.543022  0
N  N165  1  0.51397816  0.37702646  0.92969364  1  -0.776672  0  -0.277582  -0.177025  0  3.620987  0
N  N166  1  0.28551386  0.36655786  0.98742652  1  -0.797483  0  -0.269865  -0.179855  0  3.530871  0
N  N167  1  0.43562509  0.59874040  0.92328350  1  -0.787214  0  -0.281162  -0.179593  0  3.646284  0
N  N168  1  0.66628579  0.62133461  0.96882396  1  -0.798636  0  -0.272354  -0.173393  0  3.54938  0
N  N169  1  0.03424225  0.11133164  0.59371063  1  -0.824681  0  -0.279251  -0.178182  0  3.638251  0
N  N170  1  0.80456400  0.13428464  0.53616418  1  -0.803573  0  -0.274099  -0.176395  0  3.541513  0
N  N171  1  0.95511031  0.89282062  0.58258547  1  -0.805611  0  -0.279742  -0.178409  0  3.636398  0
N  N172  1  0.18938215  0.88011184  0.53287020  1  -0.783247  0  -0.268752  -0.178582  0  3.526227  0
N  N173  1  0.04288928  0.91344131  0.42112923  1  -0.802308  0  -0.281678  -0.17976  0  3.647455  0
N  N174  1  0.35650352  0.69903442  0.03137690  1  -0.791514  0  -0.275811  -0.178864  0  3.552711  0
N  N175  1  0.81235673  0.88187618  0.46845640  1  -0.765747  0  -0.271252  -0.172919  0  3.545612  0
N  N176  1  0.95834064  0.13041636  0.42874195  1  -0.783728  0  -0.277519  -0.176427  0  3.623514  0
N  N177  1  0.18752593  0.14756302  0.48789912  1  -0.798659  0  -0.270639  -0.179973  0  3.528299  0
N  N178  1  0.37473353  0.46719722  0.09253614  1  -0.794316  0  -0.283485  -0.184757  0  3.631749  0
N  N179  1  0.60317465  0.69023942  0.96777938  1  -0.805505  0  -0.273437  -0.179478  0  3.535997  0
N  N180  1  0.57214260  0.44865576  0.92556299  1  -0.811058  0  -0.286345  -0.184179  0  3.651423  0
N  N181  1  0.34938739  0.29833594  0.99058657  1  -0.776645  0  -0.274349  -0.183086  0  3.534174  0
N  N182  1  0.37023368  0.53387858  0.92500695  1  -0.790994  0  -0.281034  -0.180704  0  3.617427  0
N  N183  1  0.12513672  0.81266930  0.52816943  1  -0.793512  0  -0.276272  -0.182615  0  3.548804  0
