# generated using pymatgen
data_Zn2H10C9(N8O)2
_symmetry_space_group_name_H-M   'P 1'
_cell_length_a   9.31758294
_cell_length_b   10.73546525
_cell_length_c   11.72511845
_cell_angle_alpha   89.99941406
_cell_angle_beta   113.36850962
_cell_angle_gamma   90.00061762
_symmetry_Int_Tables_number   1
_chemical_formula_structural   Zn2H10C9(N8O)2
_chemical_formula_sum   'Zn4 H20 C18 N32 O4'
_cell_volume   1076.64163937
_cell_formula_units_Z   2
loop_
 _symmetry_equiv_pos_site_id
 _symmetry_equiv_pos_as_xyz
  1  'x, y, z'
loop_
 _atom_site_type_symbol
 _atom_site_label
 _atom_site_symmetry_multiplicity
 _atom_site_fract_x
 _atom_site_fract_y
 _atom_site_fract_z
 _atom_site_occupancy
 _atom_site_pbe_bader_charge
 _atom_site_pbe_bader_spin_density
 _atom_site_pbe_cm5_charge
 _atom_site_pbe_ddec_charge
 _atom_site_pbe_ddec_spin_density
 _atom_site_pbe_ddec_sum_bond_order
 _atom_site_pbe_magmom
Zn  Zn0  1  0.53896898  0.50683392  0.31628253  1  1.229016  0  0.765089  0.676885  0  2.466744  0
Zn  Zn1  1  0.46104016  0.00682430  0.68372352  1  1.229045  0  0.765068  0.67681  0  2.466909  0
Zn  Zn2  1  0.77766700  0.00684924  0.31637532  1  1.229594  0  0.764954  0.676357  0  2.467713  0
Zn  Zn3  1  0.22233980  0.50683599  0.68362992  1  1.22945  0  0.764936  0.676465  0  2.467603  0
H  H4  1  0.91891266  0.26413633  0.49172920  1  0.117962  0  0.101119  0.10363  0  1.043642  0
H  H5  1  0.05853125  0.35629337  0.46419060  1  0.053833  0  0.104135  0.112768  0  1.006871  0
H  H6  1  0.83004556  0.43019336  0.25880646  1  0.103868  0  0.10615  0.116887  0  1.006779  0
H  H7  1  0.91327316  0.27932366  0.26821864  1  0.115773  0  0.10879  0.121297  0  1.000973  0
H  H8  1  0.08109259  0.76413396  0.50826022  1  0.117897  0  0.101119  0.103612  0  1.043781  0
H  H9  1  0.94147690  0.85628845  0.53580405  1  0.05391  0  0.104155  0.112766  0  1.006908  0
H  H10  1  0.16996192  0.93017711  0.74119066  1  0.103367  0  0.106144  0.116905  0  1.006781  0
H  H11  1  0.08672503  0.77930675  0.73177160  1  0.115624  0  0.108819  0.121263  0  1.000988  0
H  H12  1  0.57263049  0.76433568  0.49201737  1  0.142996  0  0.101317  0.104327  0  1.043183  0
H  H13  1  0.40568979  0.85674931  0.46431755  1  0.088856  0  0.104392  0.112978  0  1.006696  0
H  H14  1  0.42922345  0.93021082  0.25893946  1  0.103983  0  0.106084  0.117049  0  1.007029  0
H  H15  1  0.35547083  0.77933852  0.26848991  1  0.128926  0  0.1088  0.121369  0  1.00186  0
H  H16  1  0.42735802  0.26434168  0.50797309  1  0.142872  0  0.101324  0.104301  0  1.043198  0
H  H17  1  0.59430838  0.35675096  0.53568474  1  0.088675  0  0.104381  0.112945  0  1.006708  0
H  H18  1  0.57077414  0.43019692  0.74106363  1  0.104119  0  0.106005  0.1169  0  1.007127  0
H  H19  1  0.64451432  0.27931983  0.73149924  1  0.128665  0  0.108814  0.121399  0  1.00191  0
H  H20  1  0.54443679  0.48936373  0.99989237  1  0.061223  0  -0.005687  0.006686  0  0.979067  0
H  H21  1  0.49904926  0.43151785  0.00007912  1  -0.060515  0  -0.014912  -0.01276  0  0.966388  0
H  H22  1  0.45558214  0.98937051  0.00010131  1  0.061787  0  -0.005682  0.006663  0  0.979042  0
H  H23  1  0.50097794  0.93152694  0.99992736  1  -0.061068  0  -0.014914  -0.012738  0  0.966377  0
C  C24  1  0.89089402  0.45813983  0.50401384  1  0.979652  0  0.233824  0.334083  0  3.946131  0
C  C25  1  0.93361752  0.34942593  0.44495144  1  0.033641  0  -0.150701  -0.226393  0  3.918365  0
C  C26  1  0.84294570  0.33808352  0.30293726  1  -0.012582  0  -0.149695  -0.231619  0  3.906653  0
C  C27  1  0.68558651  0.27996442  0.26444237  1  0.944519  0  0.231501  0.333466  0  3.958789  0
C  C28  1  0.10911571  0.95814066  0.49598976  1  0.979582  0  0.233774  0.334047  0  3.94642  0
C  C29  1  0.06638940  0.84942197  0.55504285  1  0.033681  0  -0.15073  -0.226357  0  3.918632  0
C  C30  1  0.15705639  0.83806765  0.69705633  1  -0.011673  0  -0.14969  -0.231554  0  3.906679  0
C  C31  1  0.31441947  0.77994958  0.73555739  1  0.944898  0  0.231391  0.333273  0  3.959045  0
C  C32  1  0.61318167  0.95834229  0.50413676  1  1.019295  0  0.23366  0.335348  0  3.944455  0
C  C33  1  0.51142535  0.84964355  0.44514531  1  -0.060797  0  -0.150678  -0.227112  0  3.919549  0
C  C34  1  0.46040364  0.83815415  0.30317024  1  -0.041681  0  -0.149826  -0.232251  0  3.908045  0
C  C35  1  0.57931939  0.78000467  0.26465483  1  0.987673  0  0.231669  0.333186  0  3.958751  0
C  C36  1  0.38681983  0.45834712  0.49586485  1  1.019248  0  0.233661  0.335259  0  3.944424  0
C  C37  1  0.48857082  0.34964401  0.55484953  1  -0.060525  0  -0.150665  -0.226987  0  3.919222  0
C  C38  1  0.53958760  0.33814046  0.69682557  1  -0.041576  0  -0.149823  -0.23228  0  3.907998  0
C  C39  1  0.42067131  0.27999037  0.73534135  1  0.98716  0  0.231572  0.333237  0  3.958786  0
C  C40  1  0.18150223  0.50868117  0.00027102  1  2.116409  0  0.381089  0.73836  0  4.085217  0
C  C41  1  0.81844755  0.00873562  0.99971107  1  2.115943  0  0.381007  0.738557  0  4.085594  0
N  N42  1  0.74935464  0.51012313  0.47109905  1  -0.804194  0  -0.24893  -0.284364  0  3.476093  0
N  N43  1  0.76426881  0.60454529  0.55279218  1  -0.116079  0  -0.089762  -0.070507  0  3.244487  0
N  N44  1  0.90833199  0.60980379  0.63247829  1  -0.087628  0  -0.081647  -0.04709  0  3.239572  0
N  N45  1  0.99091871  0.51944029  0.60432198  1  -0.792729  0  -0.249263  -0.259531  0  3.504223  0
N  N46  1  0.55253874  0.34023981  0.24809150  1  -0.796814  0  -0.256951  -0.275044  0  3.533222  0
N  N47  1  0.43516681  0.25440620  0.21301921  1  -0.070808  0  -0.091426  -0.06113  0  3.202279  0
N  N48  1  0.49410802  0.14620067  0.20800512  1  -0.092075  0  -0.087315  -0.06489  0  3.240551  0
N  N49  1  0.65147313  0.15879033  0.23970919  1  -0.800784  0  -0.257418  -0.283314  0  3.491773  0
N  N50  1  0.25065930  0.01012074  0.52890691  1  -0.804412  0  -0.248923  -0.284413  0  3.476282  0
N  N51  1  0.23574094  0.10454926  0.44721826  1  -0.115797  0  -0.089716  -0.07037  0  3.24447  0
N  N52  1  0.09167747  0.10981383  0.36753797  1  -0.086655  0  -0.081641  -0.047196  0  3.239539  0
N  N53  1  0.00908908  0.01944832  0.39568860  1  -0.793907  0  -0.249237  -0.259394  0  3.504091  0
N  N54  1  0.44746663  0.84022509  0.75190747  1  -0.797457  0  -0.256861  -0.274878  0  3.533407  0
N  N55  1  0.56484102  0.75439497  0.78698570  1  -0.070832  0  -0.091431  -0.061085  0  3.202143  0
N  N56  1  0.50590100  0.64618790  0.79200380  1  -0.092517  0  -0.087267  -0.064903  0  3.240131  0
N  N57  1  0.34853503  0.65877740  0.76029590  1  -0.800207  0  -0.257451  -0.283351  0  3.491814  0
N  N58  1  0.72191486  0.01025459  0.47122766  1  -0.800836  0  -0.24921  -0.285247  0  3.475099  0
N  N59  1  0.78850127  0.10473195  0.55285868  1  -0.115684  0  -0.089275  -0.070125  0  3.244615  0
N  N60  1  0.72392520  0.11008263  0.63249877  1  -0.077519  0  -0.081363  -0.046359  0  3.238203  0
N  N61  1  0.61323497  0.01971730  0.60438293  1  -0.810285  0  -0.249573  -0.260579  0  3.502343  0
N  N62  1  0.69601225  0.84026445  0.24825066  1  -0.808232  0  -0.256989  -0.27312  0  3.531842  0
N  N63  1  0.77822349  0.75447555  0.21298192  1  -0.060339  0  -0.091558  -0.062937  0  3.204057  0
N  N64  1  0.71421925  0.64628155  0.20789900  1  -0.104242  0  -0.087421  -0.064309  0  3.240879  0
N  N65  1  0.58861648  0.65885780  0.23974915  1  -0.815069  0  -0.257707  -0.283532  0  3.49202  0
N  N66  1  0.27808618  0.51025196  0.52877470  1  -0.800892  0  -0.2492  -0.285187  0  3.475019  0
N  N67  1  0.21150513  0.60473334  0.44714804  1  -0.115655  0  -0.089238  -0.070071  0  3.244467  0
N  N68  1  0.27608596  0.61009110  0.36750869  1  -0.078157  0  -0.081431  -0.04647  0  3.238279  0
N  N69  1  0.38677079  0.51972741  0.39562183  1  -0.809574  0  -0.249524  -0.260517  0  3.502553  0
N  N70  1  0.30398013  0.34024796  0.75174637  1  -0.807972  0  -0.256986  -0.27325  0  3.531786  0
N  N71  1  0.22177500  0.25445510  0.78701976  1  -0.061491  0  -0.091478  -0.062844  0  3.2038  0
N  N72  1  0.28578174  0.14626258  0.79210459  1  -0.103133  0  -0.087473  -0.064348  0  3.241112  0
N  N73  1  0.41138108  0.15884314  0.76025398  1  -0.814673  0  -0.257581  -0.283386  0  3.492083  0
O  O74  1  0.23534647  0.50898541  0.10943757  1  -1.069438  0  -0.167112  -0.360667  0  2.252367  0
O  O75  1  0.76457911  0.00903406  0.89055067  1  -1.069398  0  -0.167233  -0.360904  0  2.252768  0
O  O76  1  0.87326223  0.00956335  0.10887010  1  -1.058422  0  -0.167958  -0.361824  0  2.253491  0
O  O77  1  0.12672494  0.50950404  0.89112490  1  -1.058826  0  -0.168192  -0.361892  0  2.253397  0
