# generated using pymatgen
data_ZnH9C16NO4F
_symmetry_space_group_name_H-M   'P 1'
_cell_length_a   10.90731985
_cell_length_b   10.99007762
_cell_length_c   18.39108591
_cell_angle_alpha   87.21813637
_cell_angle_beta   85.06149056
_cell_angle_gamma   69.77613281
_symmetry_Int_Tables_number   1
_chemical_formula_structural   ZnH9C16NO4F
_chemical_formula_sum   'Zn4 H36 C64 N4 O16 F4'
_cell_volume   2060.57194390
_cell_formula_units_Z   4
loop_
 _symmetry_equiv_pos_site_id
 _symmetry_equiv_pos_as_xyz
  1  'x, y, z'
loop_
 _atom_site_type_symbol
 _atom_site_label
 _atom_site_symmetry_multiplicity
 _atom_site_fract_x
 _atom_site_fract_y
 _atom_site_fract_z
 _atom_site_occupancy
 _atom_site_pbe_bader_charge
 _atom_site_pbe_bader_spin_density
 _atom_site_pbe_cm5_charge
 _atom_site_pbe_ddec_charge
 _atom_site_pbe_ddec_spin_density
 _atom_site_pbe_ddec_sum_bond_order
 _atom_site_pbe_magmom
Zn  Zn0  1  0.34158144  0.24225139  0.57808370  1  1.299547  0  0.676969  0.835079  0  2.385643  0
Zn  Zn1  1  0.32001441  0.23722258  0.73583844  1  1.281923  0  0.667766  0.826784  0  2.411321  0
Zn  Zn2  1  0.65841921  0.75774946  0.42191595  1  1.299549  0  0.676971  0.835067  0  2.385677  0
Zn  Zn3  1  0.67998472  0.76277731  0.26416131  1  1.281908  0  0.667769  0.826754  0  2.411283  0
H  H4  1  0.75286830  0.21088660  0.54405120  1  0.092489  0  0.102795  0.105192  0  1.038437  0
H  H5  1  0.96562964  0.24966215  0.54852924  1  0.110621  0  0.108389  0.11733  0  0.989836  0
H  H6  1  0.91761125  0.24986240  0.78240803  1  0.1019  0  0.099138  0.102517  0  1.010807  0
H  H7  1  0.70249423  0.21497983  0.77802724  1  0.073976  0  0.096941  0.098881  0  1.019182  0
H  H8  1  0.35743121  0.62672529  0.53710304  1  0.097374  0  0.104677  0.107979  0  1.013608  0
H  H9  1  0.37049901  0.84875666  0.53747961  1  0.10826  0  0.103229  0.108326  0  1.033228  0
H  H10  1  0.31822310  0.84806960  0.77172443  1  0.083018  0  0.099804  0.10425  0  1.007778  0
H  H11  1  0.30375299  0.62447925  0.77096760  1  0.104135  0  0.10052  0.105647  0  1.006105  0
H  H12  1  0.35021595  0.05837490  0.46243645  1  0.145972  0  0.12598  0.106836  0  0.996775  0
H  H13  1  0.33713960  0.06361190  0.32769499  1  0.103749  0  0.111878  0.123475  0  1.01156  0
H  H14  1  0.30218035  0.46845605  0.32814019  1  0.113988  0  0.110253  0.121811  0  1.00791  0
H  H15  1  0.31467989  0.44578302  0.46293344  1  0.138114  0  0.124618  0.101448  0  0.998461  0
H  H16  1  0.46139998  0.07695356  0.22305597  1  0.126152  0  0.109748  0.125202  0  1.024754  0
H  H17  1  0.45560929  0.07491222  0.08955533  1  0.043207  0  0.098578  0.094521  0  1.041092  0
H  H18  1  0.52149666  0.15807859  0.98298044  1  0.061791  0  0.112267  0.121034  0  0.991354  0
H  H19  1  0.51535790  0.14791532  0.84762117  1  0.12694  0  0.123927  0.101256  0  1.001413  0
H  H20  1  0.11648567  0.34576070  0.85706047  1  0.141475  0  0.126709  0.10578  0  0.989454  0
H  H21  1  0.10401897  0.36765113  0.99229597  1  0.120835  0  0.109197  0.122218  0  1.001553  0
H  H22  1  0.24713116  0.78911231  0.45595074  1  0.092463  0  0.102784  0.105173  0  1.038464  0
H  H23  1  0.03436830  0.75033582  0.45147008  1  0.110548  0  0.108385  0.117292  0  0.989859  0
H  H24  1  0.08238906  0.75013942  0.21759106  1  0.101732  0  0.099152  0.102512  0  1.010802  0
H  H25  1  0.29750484  0.78502296  0.22197407  1  0.074  0  0.096929  0.098822  0  1.019218  0
H  H26  1  0.64256885  0.37327460  0.46289721  1  0.097371  0  0.104671  0.107989  0  1.01361  0
H  H27  1  0.62950289  0.15124322  0.46251945  1  0.108273  0  0.10323  0.10833  0  1.033269  0
H  H28  1  0.68177570  0.15193126  0.22827532  1  0.083005  0  0.099827  0.104311  0  1.007773  0
H  H29  1  0.69624766  0.37552160  0.22903151  1  0.10414  0  0.100506  0.105603  0  1.006119  0
H  H30  1  0.64978411  0.94162499  0.53756325  1  0.145978  0  0.125989  0.106852  0  0.996753  0
H  H31  1  0.66285769  0.93638800  0.67230540  1  0.103752  0  0.111869  0.123492  0  1.011534  0
H  H32  1  0.69781879  0.53154384  0.67185956  1  0.113985  0  0.110255  0.121813  0  1.007894  0
H  H33  1  0.68532108  0.55421686  0.53706676  1  0.138086  0  0.124622  0.101446  0  0.998446  0
H  H34  1  0.53860100  0.92304631  0.77694532  1  0.126172  0  0.109722  0.125164  0  1.024811  0
H  H35  1  0.54439261  0.92508765  0.91044536  1  0.043211  0  0.098562  0.094499  0  1.041137  0
H  H36  1  0.47850491  0.84192225  0.01702025  1  0.061843  0  0.112281  0.121071  0  0.991373  0
H  H37  1  0.48464493  0.85208454  0.15238003  1  0.126971  0  0.123891  0.101192  0  1.001458  0
H  H38  1  0.88351604  0.65423433  0.14293983  1  0.140332  0  0.126705  0.105777  0  0.989399  0
H  H39  1  0.89598148  0.63234488  0.00770383  1  0.120782  0  0.109188  0.122187  0  1.001614  0
C  C40  1  0.71454944  0.21142223  0.66080757  1  -0.034083  0  -0.021114  -0.036355  0  3.976747  0
C  C41  1  0.78892399  0.22054605  0.59602652  1  -0.04982  0  -0.085876  -0.098104  0  3.971823  0
C  C42  1  0.90695277  0.24207939  0.59841087  1  -0.014446  0  -0.080789  -0.088378  0  3.957784  0
C  C43  1  0.95294411  0.25367469  0.66570926  1  -0.043296  0  -0.013952  -0.022927  0  3.949179  0
C  C44  1  0.87992485  0.24204824  0.73056931  1  -0.072968  0  -0.089012  -0.099078  0  4.00432  0
C  C45  1  0.76139576  0.22183068  0.72811855  1  -0.021733  0  -0.093113  -0.105926  0  4.002101  0
C  C46  1  0.58293156  0.19737099  0.65870652  1  1.542788  0  0.210287  0.577849  0  4.194168  0
C  C47  1  0.08245975  0.27231233  0.66810503  1  1.555542  0  0.212425  0.591171  0  4.171024  0
C  C48  1  0.32751648  0.61351815  0.65400623  1  -0.040073  0  -0.016192  -0.027159  0  3.963807  0
C  C49  1  0.34718139  0.67644322  0.58826192  1  -0.073028  0  -0.08446  -0.096735  0  3.9735  0
C  C50  1  0.35480102  0.80010745  0.58856194  1  0.00048  0  -0.085354  -0.096526  0  3.97215  0
C  C51  1  0.34426349  0.86210573  0.65478229  1  -0.026658  0  -0.017608  -0.030864  0  3.966245  0
C  C52  1  0.32628206  0.79856494  0.72070113  1  -0.064581  0  -0.089924  -0.1002  0  3.991868  0
C  C53  1  0.31792233  0.67516131  0.72032192  1  -0.029559  0  -0.088892  -0.10015  0  3.989983  0
C  C54  1  0.31900930  0.48037423  0.65335928  1  1.560323  0  0.21495  0.592679  0  4.172388  0
C  C55  1  0.35077730  0.99599168  0.65500553  1  1.543565  0  0.212454  0.579891  0  4.187691  0
C  C56  1  0.33838572  0.14706608  0.43036098  1  0.46802  0  0.059491  0.113545  0  3.898767  0
C  C57  1  0.33155643  0.15094419  0.35529114  1  0.018719  0  -0.075694  -0.16397  0  3.913942  0
C  C58  1  0.31859042  0.26672439  0.31585923  1  -0.034711  0  0.01664  0.124413  0  3.979489  0
C  C59  1  0.31120715  0.37575217  0.35513546  1  0.034131  0  -0.074297  -0.166102  0  3.926315  0
C  C60  1  0.31877141  0.36415851  0.43025426  1  0.452901  0  0.059098  0.108016  0  3.913351  0
C  C61  1  0.31705233  0.26855450  0.23568501  1  0.026938  0  -0.003282  -0.012869  0  3.995779  0
C  C62  1  0.39585660  0.16062145  0.19475484  1  0.05516  0  -0.082892  -0.109279  0  3.965757  0
C  C63  1  0.39411096  0.16049452  0.11943382  1  -0.030543  0  -0.092261  -0.122801  0  4.009327  0
C  C64  1  0.31306471  0.26685141  0.08009914  1  0.050032  0  -0.017543  -0.036878  0  4.038497  0
C  C65  1  0.23507976  0.37380285  0.12106412  1  0.473789  0  0.093161  0.132536  0  4.053582  0
C  C66  1  0.23722912  0.37487396  0.19673789  1  0.488171  0  0.100467  0.137102  0  4.053927  0
C  C67  1  0.31233453  0.26308970  0.00012538  1  -0.067547  0  0.015031  0.132331  0  3.988821  0
C  C68  1  0.42884701  0.19990369  0.95772532  1  -0.025661  0  -0.083817  -0.186653  0  3.956711  0
C  C69  1  0.42680171  0.19339255  0.88270196  1  0.516726  0  0.052885  0.095897  0  3.935783  0
C  C70  1  0.20352686  0.30612416  0.88773082  1  0.454605  0  0.060357  0.106915  0  3.910812  0
C  C71  1  0.19782383  0.31788807  0.96298367  1  0.008815  0  -0.081314  -0.18031  0  3.938348  0
C  C72  1  0.28544995  0.78857960  0.33919211  1  -0.033904  0  -0.021063  -0.036267  0  3.976621  0
C  C73  1  0.21107482  0.77945481  0.40397431  1  -0.049781  0  -0.085862  -0.098106  0  3.971809  0
C  C74  1  0.09304544  0.75792051  0.40158947  1  -0.01439  0  -0.080835  -0.088392  0  3.957867  0
C  C75  1  0.04705627  0.74632423  0.33429045  1  -0.043292  0  -0.013891  -0.02288  0  3.949243  0
C  C76  1  0.12007363  0.75795359  0.26943151  1  -0.072832  0  -0.089066  -0.099109  0  4.004372  0
C  C77  1  0.23860331  0.77817211  0.27188167  1  -0.021915  0  -0.093125  -0.105902  0  4.002092  0
C  C78  1  0.41706758  0.80262890  0.34129432  1  1.542813  0  0.210265  0.577837  0  4.194335  0
C  C79  1  0.91753938  0.72768757  0.33189417  1  1.555585  0  0.212454  0.591217  0  4.170963  0
C  C80  1  0.67248417  0.38648270  0.34599341  1  -0.040048  0  -0.016156  -0.027097  0  3.963764  0
C  C81  1  0.65281867  0.32355667  0.41173833  1  -0.073033  0  -0.084505  -0.096862  0  3.973507  0
C  C82  1  0.64519996  0.19989243  0.41143772  1  0.000486  0  -0.085341  -0.096459  0  3.972118  0
C  C83  1  0.65573716  0.13789512  0.34521682  1  -0.026729  0  -0.017605  -0.030873  0  3.966281  0
C  C84  1  0.67371733  0.20143689  0.27929801  1  -0.064347  0  -0.089994  -0.100359  0  3.991968  0
C  C85  1  0.68207739  0.32483955  0.27967778  1  -0.029763  0  -0.088831  -0.100001  0  3.989915  0
C  C86  1  0.68099102  0.51962759  0.34664036  1  1.560354  0  0.214971  0.592687  0  4.172475  0
C  C87  1  0.64922243  0.00400918  0.34499308  1  1.543593  0  0.212404  0.579781  0  4.187808  0
C  C88  1  0.66161249  0.85293382  0.56963937  1  0.468035  0  0.059521  0.113583  0  3.898747  0
C  C89  1  0.66844086  0.84905572  0.64470925  1  0.018718  0  -0.075745  -0.16409  0  3.913917  0
C  C90  1  0.68140654  0.73327649  0.68414061  1  -0.034731  0  0.016696  0.124495  0  3.979442  0
C  C91  1  0.68879106  0.62424773  0.64486434  1  0.034122  0  -0.074334  -0.166159  0  3.926351  0
C  C92  1  0.68122865  0.63584138  0.56974599  1  0.45292  0  0.059125  0.108074  0  3.913346  0
C  C93  1  0.68294555  0.73144637  0.76431424  1  0.026765  0  -0.003289  -0.012905  0  3.995783  0
C  C94  1  0.60414345  0.83937844  0.80524541  1  0.05531  0  -0.08289  -0.109272  0  3.96574  0
C  C95  1  0.60589035  0.83950438  0.88056693  1  -0.030498  0  -0.092245  -0.122756  0  4.009311  0
C  C96  1  0.68693442  0.73314848  0.91990170  1  0.050027  0  -0.01759  -0.037016  0  4.038532  0
C  C97  1  0.76491970  0.62619607  0.87893564  1  0.473818  0  0.093238  0.132627  0  4.053482  0
C  C98  1  0.76277127  0.62512496  0.80326183  1  0.488162  0  0.100504  0.137162  0  4.053852  0
C  C99  1  0.68766744  0.73690727  0.99987485  1  -0.067469  0  0.015047  0.132463  0  3.98881  0
C  C100  1  0.57115522  0.80009521  0.04227484  1  -0.025753  0  -0.083837  -0.186728  0  3.956729  0
C  C101  1  0.57320144  0.80660634  0.11729815  1  0.516737  0  0.052861  0.095847  0  3.935908  0
C  C102  1  0.79647451  0.69387185  0.11226892  1  0.4557  0  0.060346  0.1069  0  3.910673  0
C  C103  1  0.80217813  0.68210890  0.03701602  1  0.008816  0  -0.081311  -0.180319  0  3.93849  0
N  N104  1  0.33244846  0.25196649  0.46733378  1  -1.255473  0  -0.322972  -0.212766  0  3.525165  0
N  N105  1  0.31597241  0.24465310  0.84814578  1  -1.236253  0  -0.317449  -0.194698  0  3.503011  0
N  N106  1  0.66755251  0.74803339  0.53266588  1  -1.255472  0  -0.32298  -0.212768  0  3.525159  0
N  N107  1  0.68402955  0.75534387  0.15185391  1  -1.236237  0  -0.317358  -0.194546  0  3.502967  0
O  O108  1  0.54016414  0.19739129  0.59642740  1  -1.162393  0  -0.311265  -0.541752  0  2.317106  0
O  O109  1  0.52214167  0.18874856  0.72024875  1  -1.176915  0  -0.324285  -0.571461  0  2.362834  0
O  O110  1  0.12351759  0.27340282  0.73101771  1  -1.160607  0  -0.323526  -0.556213  0  2.327797  0
O  O111  1  0.14346910  0.28192334  0.60730546  1  -1.171294  0  -0.316751  -0.551772  0  2.326051  0
O  O112  1  0.32719785  0.43071021  0.59117181  1  -1.167377  0  -0.31337  -0.544006  0  2.346545  0
O  O113  1  0.30608318  0.42633240  0.71497423  1  -1.168967  0  -0.319932  -0.55237  0  2.334774  0
O  O114  1  0.34615684  0.04523315  0.71706027  1  -1.171798  0  -0.318201  -0.555221  0  2.348082  0
O  O115  1  0.35985713  0.05081848  0.59317809  1  -1.16554  0  -0.309565  -0.543028  0  2.368158  0
O  O116  1  0.45983499  0.80260860  0.40357344  1  -1.162422  0  -0.311245  -0.541739  0  2.317193  0
O  O117  1  0.47785687  0.81125037  0.27975215  1  -1.176914  0  -0.324281  -0.571451  0  2.362841  0
O  O118  1  0.87648247  0.72659707  0.26898145  1  -1.160639  0  -0.323549  -0.556229  0  2.327761  0
O  O119  1  0.85653095  0.71807655  0.39269424  1  -1.171282  0  -0.316771  -0.551807  0  2.326078  0
O  O120  1  0.67280220  0.56928967  0.40882789  1  -1.167368  0  -0.313366  -0.543998  0  2.346555  0
O  O121  1  0.69391688  0.57366749  0.28502493  1  -1.169005  0  -0.319935  -0.552373  0  2.334795  0
O  O122  1  0.65384255  0.95476868  0.28293833  1  -1.171872  0  -0.318214  -0.555202  0  2.348129  0
O  O123  1  0.64014259  0.94918238  0.40682051  1  -1.165479  0  -0.309529  -0.542954  0  2.368187  0
F  F124  1  0.15619828  0.48180902  0.23144797  1  -0.628139  0  -0.072647  -0.098456  0  1.435305  0
F  F125  1  0.15555825  0.48266324  0.08800017  1  -0.632714  0  -0.09328  -0.124894  0  1.3693  0
F  F126  1  0.84380026  0.51818991  0.76855184  1  -0.628152  0  -0.072689  -0.0985  0  1.435251  0
F  F127  1  0.84444062  0.51733472  0.91200019  1  -0.632729  0  -0.093306  -0.124913  0  1.369254  0
