# generated using pymatgen
data_CuH28C28S(N2O)4
_symmetry_space_group_name_H-M   'P 1'
_cell_length_a   14.82982012
_cell_length_b   14.82982167
_cell_length_c   16.03304461
_cell_angle_alpha   79.88845465
_cell_angle_beta   79.88841395
_cell_angle_gamma   77.20737431
_symmetry_Int_Tables_number   1
_chemical_formula_structural   CuH28C28S(N2O)4
_chemical_formula_sum   'Cu4 H112 C112 S4 N32 O16'
_cell_volume   3350.62449606
_cell_formula_units_Z   4
loop_
 _symmetry_equiv_pos_site_id
 _symmetry_equiv_pos_as_xyz
  1  'x, y, z'
loop_
 _atom_site_type_symbol
 _atom_site_label
 _atom_site_symmetry_multiplicity
 _atom_site_fract_x
 _atom_site_fract_y
 _atom_site_fract_z
 _atom_site_occupancy
 _atom_site_pbe_bader_charge
 _atom_site_pbe_bader_spin_density
 _atom_site_pbe_cm5_charge
 _atom_site_pbe_ddec_charge
 _atom_site_pbe_ddec_spin_density
 _atom_site_pbe_ddec_sum_bond_order
 _atom_site_pbe_magmom
Cu  Cu0  1  0.23331418  0.76667998  0.25000584  1  1.08766  0.596187  0.803986  0.765028  0.745513  2.290369  0.594
Cu  Cu1  1  0.76668232  0.23332124  0.75002203  1  1.087583  0.596191  0.804031  0.765063  0.745515  2.290345  0.594
Cu  Cu2  1  0.99997740  0.49996023  0.50001772  1  1.108086  0.606817  0.811238  0.771183  0.758525  2.372253  0.604
Cu  Cu3  1  0.49999555  0.00000219  0.99998388  1  1.108373  0.606817  0.811229  0.771244  0.758532  2.372123  0.604
H  H4  1  0.27441200  0.55512653  0.33085620  1  0.145416  0.000524  0.138702  0.113235  0.000135  1.014137  0.0
H  H5  1  0.55512890  0.27439706  0.83086157  1  0.145298  0.000524  0.138688  0.113213  0.000135  1.014276  0.0
H  H6  1  0.72565765  0.44484723  0.66917641  1  0.144209  0.000523  0.138627  0.113368  0.000135  1.014185  0.0
H  H7  1  0.44484543  0.72562521  0.16916086  1  0.144246  0.000524  0.138693  0.113315  0.000135  1.013974  0.0
H  H8  1  0.35684117  0.48294090  0.07995096  1  0.092318  0.001427  0.12072  0.121036  0.000694  1.007255  0.001
H  H9  1  0.48294966  0.35684723  0.57996023  1  0.092364  0.001427  0.120676  0.120959  0.000694  1.007478  0.001
H  H10  1  0.64304880  0.51708806  0.92004613  1  0.093102  0.001426  0.120739  0.121095  0.000694  1.00736  0.001
H  H11  1  0.51707029  0.64309394  0.42004339  1  0.092581  0.001426  0.120689  0.121038  0.000694  1.007444  0.001
H  H12  1  0.28662408  0.67550430  0.07129059  1  0.188509  0.000937  0.121654  0.132697  0.000402  1.021568  0.001
H  H13  1  0.67551311  0.28664224  0.57130473  1  0.187688  0.000938  0.121706  0.132663  0.000402  1.021628  0.001
H  H14  1  0.71324657  0.32452131  0.92876741  1  0.188176  0.000937  0.12156  0.132498  0.000401  1.021771  0.001
H  H15  1  0.32450230  0.71329878  0.42874765  1  0.188209  0.000937  0.121566  0.132492  0.000402  1.021695  0.001
H  H16  1  0.20859181  0.97145579  0.15527135  1  0.189108  0.000528  0.141077  0.118175  0.000132  1.006124  0.0
H  H17  1  0.97145516  0.20860239  0.65528300  1  0.189286  0.000528  0.141059  0.117958  0.000132  1.006149  0.0
H  H18  1  0.79143190  0.02852897  0.84474487  1  0.188936  0.000529  0.141099  0.118089  0.000132  1.006093  0.0
H  H19  1  0.02851797  0.79143255  0.34472579  1  0.189216  0.000529  0.141096  0.117898  0.000132  1.006213  0.0
H  H20  1  0.09473799  0.06573256  0.39432569  1  0.095123  0.001272  0.125443  0.133832  0.000608  0.997016  0.001
H  H21  1  0.06573066  0.09471751  0.89433333  1  0.095113  0.001272  0.125338  0.13371  0.000608  0.997099  0.001
H  H22  1  0.90526789  0.93428064  0.60567453  1  0.095394  0.001272  0.12546  0.133888  0.000608  0.996923  0.001
H  H23  1  0.93427867  0.90527122  0.10564397  1  0.094752  0.001272  0.125371  0.133876  0.000608  0.997189  0.001
H  H24  1  0.16340849  0.87289922  0.42039794  1  0.233528  0.000879  0.116053  0.138964  0.000365  1.055401  0.001
H  H25  1  0.87289893  0.16339690  0.92041425  1  0.233395  0.000879  0.116033  0.13897  0.000365  1.055211  0.001
H  H26  1  0.83658537  0.12711493  0.57962272  1  0.23366  0.000878  0.116075  0.138967  0.000365  1.055304  0.001
H  H27  1  0.12711222  0.83658841  0.07959947  1  0.233379  0.000878  0.116105  0.139099  0.000365  1.05536  0.001
H  H28  1  0.36150526  0.39306958  0.31806932  1  0.067226  4.2e-05  0.111356  0.089125  1.9e-05  1.00832  0.0
H  H29  1  0.39306739  0.36149471  0.81808167  1  0.066992  4.2e-05  0.111318  0.088959  1.9e-05  1.008269  0.0
H  H30  1  0.63853831  0.60691348  0.68190353  1  0.066862  4.2e-05  0.111362  0.089124  1.9e-05  1.008254  0.0
H  H31  1  0.60690851  0.63852608  0.18191455  1  0.066989  4.2e-05  0.11133  0.089059  1.9e-05  1.008277  0.0
H  H32  1  0.42924997  0.36998659  0.21821871  1  0.101942  0.000244  0.117201  0.104428  0.000132  0.951767  0.0
H  H33  1  0.36997948  0.42924286  0.71822758  1  0.102065  0.000244  0.117222  0.104439  0.000132  0.951527  0.0
H  H34  1  0.57075850  0.63004361  0.78172982  1  0.101622  0.000244  0.117218  0.104449  0.000132  0.951698  0.0
H  H35  1  0.63002228  0.57076111  0.28175040  1  0.102115  0.000244  0.11723  0.104515  0.000132  0.951786  0.0
H  H36  1  0.12121596  0.13539050  0.15148230  1  0.047115  2.2e-05  0.116613  0.099635  -2e-06  0.980671  0.0
H  H37  1  0.13538122  0.12120343  0.65149794  1  0.047295  2.2e-05  0.116618  0.099767  -2e-06  0.980689  0.0
H  H38  1  0.87882053  0.86459797  0.84850952  1  0.047238  2.2e-05  0.116638  0.099811  -2e-06  0.980692  0.0
H  H39  1  0.86458928  0.87882818  0.34848434  1  0.047945  2.2e-05  0.116531  0.099557  -2e-06  0.980528  0.0
H  H40  1  0.04613915  0.16901511  0.24456323  1  0.064038  0.000383  0.119901  0.107719  0.000199  0.95496  0.0
H  H41  1  0.16901105  0.04613224  0.74457402  1  0.063904  0.000383  0.119894  0.10773  0.000199  0.955066  0.0
H  H42  1  0.95388562  0.83098544  0.75541919  1  0.063783  0.000383  0.119832  0.10765  0.000199  0.955058  0.0
H  H43  1  0.83097698  0.95388975  0.25538832  1  0.063537  0.000383  0.119831  0.107636  0.000199  0.955045  0.0
H  H44  1  0.40677405  0.23517203  0.17485537  1  0.050503  -3.1e-05  0.101502  0.102443  -4.5e-05  1.020969  0.0
H  H45  1  0.23517384  0.40676513  0.67485508  1  0.050751  -3.1e-05  0.101488  0.102369  -4.5e-05  1.020909  0.0
H  H46  1  0.59323878  0.76482752  0.82513342  1  0.051125  -3.1e-05  0.101523  0.102348  -4.5e-05  1.020838  0.0
H  H47  1  0.76482924  0.59323983  0.32513564  1  0.05095  -3.1e-05  0.101499  0.102348  -4.5e-05  1.02082  0.0
H  H48  1  0.17007818  0.40961673  0.30422604  1  0.085636  -6.9e-05  0.103577  0.109087  -9.4e-05  1.026204  0.0
H  H49  1  0.40961198  0.17007198  0.80423491  1  0.085981  -6.9e-05  0.10358  0.109201  -9.4e-05  1.026506  0.0
H  H50  1  0.82993830  0.59039512  0.69575528  1  0.086313  -6.9e-05  0.103545  0.109266  -9.4e-05  1.026445  0.0
H  H51  1  0.59037293  0.82993061  0.19575213  1  0.086173  -6.9e-05  0.103591  0.109248  -9.4e-05  1.026484  0.0
H  H52  1  0.30643629  0.12626889  0.16376128  1  0.118654  -6.1e-05  0.103202  0.108548  -9.6e-05  1.028162  0.0
H  H53  1  0.12627328  0.30642226  0.66375327  1  0.117699  -6.1e-05  0.103193  0.108514  -9.6e-05  1.02803  0.0
H  H54  1  0.69358338  0.87372500  0.83624355  1  0.118017  -6.1e-05  0.103099  0.108382  -9.6e-05  1.028135  0.0
H  H55  1  0.87372375  0.69359846  0.33622034  1  0.118457  -6.1e-05  0.103143  0.108534  -9.6e-05  1.028041  0.0
H  H56  1  0.07008679  0.29970629  0.29443857  1  0.081563  -1.9e-05  0.104324  0.106527  -2.6e-05  1.008292  0.0
H  H57  1  0.29971043  0.07007488  0.79444196  1  0.081467  -1.9e-05  0.104259  0.106425  -2.7e-05  1.008432  0.0
H  H58  1  0.92993716  0.70028886  0.70555541  1  0.081962  -1.9e-05  0.104291  0.106455  -2.6e-05  1.008328  0.0
H  H59  1  0.70027172  0.92993103  0.20554250  1  0.08193  -1.9e-05  0.104284  0.106397  -2.6e-05  1.008596  0.0
H  H60  1  0.08100028  0.29089951  0.47892606  1  0.219879  0.000593  0.137317  0.126103  0.000214  1.025006  0.0
H  H61  1  0.29088601  0.08100108  0.97892461  1  0.219599  0.000594  0.137371  0.126119  0.000214  1.024931  0.0
H  H62  1  0.91900413  0.70911526  0.52108600  1  0.219526  0.000594  0.137466  0.126336  0.000214  1.024657  0.0
H  H63  1  0.70910178  0.91901119  0.02106111  1  0.219728  0.000594  0.137345  0.126064  0.000214  1.025043  0.0
H  H64  1  0.35529315  0.33805166  0.47358673  1  0.05631  0.001395  0.11502  0.109092  0.000673  1.031539  0.001
H  H65  1  0.33804977  0.35529407  0.97360164  1  0.056217  0.001394  0.114982  0.109006  0.000673  1.031533  0.001
H  H66  1  0.64471635  0.66195824  0.52639099  1  0.055987  0.001394  0.115042  0.109094  0.000673  1.031559  0.001
H  H67  1  0.66196582  0.64471028  0.02639845  1  0.055998  0.001394  0.115009  0.109019  0.000673  1.031727  0.001
H  H68  1  0.22332634  0.50070425  0.50116480  1  0.22229  0.000913  0.117495  0.133157  0.000373  1.047338  0.001
H  H69  1  0.50070584  0.22330578  0.00115539  1  0.221528  0.000914  0.117512  0.133066  0.000373  1.047504  0.001
H  H70  1  0.77670394  0.49930523  0.49884032  1  0.22167  0.000914  0.117568  0.133204  0.000373  1.047516  0.001
H  H71  1  0.49930407  0.77668067  0.99883527  1  0.222082  0.000913  0.117485  0.133132  0.000373  1.047531  0.001
H  H72  1  0.43480477  0.91563956  0.85636090  1  0.230581  0.000602  0.136632  0.119882  0.000181  1.021144  0.0
H  H73  1  0.91566463  0.43481574  0.35637841  1  0.230615  0.000602  0.136629  0.119934  0.000182  1.020921  0.0
H  H74  1  0.56515754  0.08433623  0.14362635  1  0.230382  0.000603  0.136711  0.120047  0.000182  1.02078  0.0
H  H75  1  0.08436274  0.56519351  0.64364466  1  0.230102  0.000602  0.136643  0.11983  0.000182  1.020934  0.0
H  H76  1  0.62206270  0.09759150  0.84105585  1  0.211925  0.000917  0.118932  0.127234  0.000347  1.070061  0.001
H  H77  1  0.09761456  0.62207506  0.34108632  1  0.211282  0.000916  0.118987  0.127357  0.000347  1.07004  0.001
H  H78  1  0.37793184  0.90236423  0.15889770  1  0.211088  0.000917  0.118852  0.127126  0.000347  1.070364  0.001
H  H79  1  0.90241482  0.37792827  0.65894110  1  0.211334  0.000918  0.118933  0.12722  0.000347  1.070049  0.001
H  H80  1  0.62903721  0.05176692  0.67813777  1  0.119971  0.001163  0.119382  0.121714  0.000563  1.01997  0.001
H  H81  1  0.05181995  0.62903985  0.17815140  1  0.119804  0.001165  0.119428  0.121806  0.000564  1.019788  0.001
H  H82  1  0.37096719  0.94813660  0.32184419  1  0.11973  0.001164  0.119501  0.121759  0.000564  1.019914  0.001
H  H83  1  0.94823181  0.37095349  0.82186287  1  0.119874  0.001162  0.119466  0.121873  0.000563  1.019967  0.001
H  H84  1  0.20756589  0.16252515  0.44269603  1  0.087385  0.000104  0.118721  0.100626  4.5e-05  0.984029  0.0
H  H85  1  0.16250627  0.20755627  0.94271335  1  0.087553  0.000104  0.118653  0.100454  4.5e-05  0.983908  0.0
H  H86  1  0.79246685  0.83749985  0.55727448  1  0.087243  0.000104  0.11872  0.100511  4.5e-05  0.983818  0.0
H  H87  1  0.83748781  0.79246419  0.05728259  1  0.087333  0.000104  0.118708  0.100594  4.5e-05  0.983888  0.0
H  H88  1  0.30767372  0.20003599  0.38289162  1  0.070403  0.000101  0.105151  0.08587  5.1e-05  1.019473  0.0
H  H89  1  0.20001787  0.30766984  0.88289112  1  0.07054  0.000101  0.105162  0.085856  5.1e-05  1.019245  0.0
H  H90  1  0.69235466  0.79999173  0.61710658  1  0.070211  0.000101  0.105144  0.085912  5.1e-05  1.019272  0.0
H  H91  1  0.79998043  0.69235589  0.11710646  1  0.070398  0.000101  0.105193  0.085983  5.1e-05  1.019418  0.0
H  H92  1  0.46782373  0.87387101  0.70825906  1  0.076879  6e-05  0.121526  0.106779  1.8e-05  0.960308  0.0
H  H93  1  0.87389027  0.46786905  0.20826405  1  0.077807  6e-05  0.121692  0.10697  1.8e-05  0.960704  0.0
H  H94  1  0.53210406  0.12608986  0.29174773  1  0.077208  6e-05  0.12164  0.107063  1.8e-05  0.960664  0.0
H  H95  1  0.12613940  0.53215489  0.79174640  1  0.077302  6e-05  0.121606  0.106872  1.8e-05  0.96033  0.0
H  H96  1  0.56798302  0.90406489  0.64001593  1  0.084606  0.000275  0.107514  0.088466  0.00015  1.025184  0.0
H  H97  1  0.90409547  0.56801957  0.14003740  1  0.084164  0.000275  0.10762  0.08871  0.00015  1.025098  0.0
H  H98  1  0.43196986  0.09586975  0.35997107  1  0.084334  0.000275  0.10764  0.088822  0.00015  1.025063  0.0
H  H99  1  0.09593271  0.43200659  0.85998853  1  0.084433  0.000276  0.107572  0.088695  0.00015  1.025136  0.0
H  H100  1  0.43972137  0.20337207  0.48280885  1  0.037274  0.00014  0.101715  0.09698  8.1e-05  1.005976  0.0
H  H101  1  0.20337906  0.43970752  0.98282850  1  0.037142  0.00014  0.101703  0.09693  8.1e-05  1.006053  0.0
H  H102  1  0.56030026  0.79661245  0.51720461  1  0.072414  0.000139  0.101727  0.096967  8.1e-05  1.006042  0.0
H  H103  1  0.79662736  0.56029929  0.01718635  1  0.072466  0.000139  0.101696  0.096925  8.1e-05  1.005932  0.0
H  H104  1  0.53688353  0.09589914  0.57992796  1  0.094331  7.7e-05  0.103234  0.100189  4.4e-05  1.019048  0.0
H  H105  1  0.09593761  0.53688178  0.07994011  1  0.09414  7.7e-05  0.103236  0.100283  4.4e-05  1.018733  0.0
H  H106  1  0.46310700  0.90404799  0.42008992  1  0.093665  7.7e-05  0.103341  0.100301  4.4e-05  1.01856  0.0
H  H107  1  0.90409396  0.46312393  0.92007537  1  0.094391  7.6e-05  0.103227  0.100184  4.4e-05  1.019081  0.0
H  H108  1  0.33141019  0.92012469  0.64379309  1  0.062658  9e-06  0.108879  0.111498  1e-06  0.9817  0.0
H  H109  1  0.92011103  0.33145288  0.14381726  1  0.062427  9e-06  0.108925  0.111535  1e-06  0.981622  0.0
H  H110  1  0.66853358  0.07987833  0.35617658  1  0.062782  9e-06  0.108922  0.11154  1e-06  0.98172  0.0
H  H111  1  0.07989479  0.66857517  0.85620810  1  0.063035  9e-06  0.108902  0.111496  1e-06  0.981666  0.0
H  H112  1  0.23327961  0.02881632  0.54455723  1  0.070778  1e-05  0.107649  0.108179  1e-06  0.992758  0.0
H  H113  1  0.02877897  0.23330723  0.04457651  1  0.071526  1e-05  0.107676  0.108136  1e-06  0.992886  0.0
H  H114  1  0.76668754  0.97122495  0.45541471  1  0.071079  1e-05  0.107682  0.108194  1e-06  0.99289  0.0
H  H115  1  0.97121434  0.76671872  0.95543553  1  0.070824  1e-05  0.107669  0.108126  1e-06  0.99273  0.0
C  C116  1  0.28644772  0.56175575  0.26142350  1  0.999465  -0.001568  0.1436  0.088449  -0.002103  3.902064  -0.001
C  C117  1  0.56175568  0.28644333  0.76143447  1  0.999793  -0.001567  0.143479  0.088359  -0.002101  3.902375  -0.001
C  C118  1  0.71357113  0.43824088  0.73860161  1  0.972376  -0.001497  0.143636  0.088192  -0.002103  3.901956  -0.001
C  C119  1  0.43823245  0.71355895  0.23859204  1  0.972252  -0.001499  0.143654  0.088333  -0.002103  3.901861  -0.001
C  C120  1  0.32789074  0.52677707  0.12945291  1  0.305653  0.004222  -0.011263  -0.132251  0.002707  3.950212  0.003
C  C121  1  0.52678265  0.32790650  0.62945366  1  0.305824  0.004224  -0.011223  -0.132204  0.002708  3.949728  0.003
C  C122  1  0.67202483  0.47323820  0.87056727  1  0.304174  0.004226  -0.011612  -0.132849  0.002709  3.950978  0.003
C  C123  1  0.47322618  0.67205396  0.37056367  1  0.304984  0.004226  -0.011361  -0.132641  0.002709  3.95037  0.003
C  C124  1  0.29132496  0.62087323  0.12611317  1  0.35871  0.001651  0.003529  -0.018167  0.001144  3.968337  0.002
C  C125  1  0.62088595  0.29134176  0.62611758  1  0.359111  0.001649  0.003465  -0.018092  0.001143  3.968029  0.002
C  C126  1  0.70860511  0.37914090  0.87393114  1  0.358384  0.001658  0.003888  -0.017645  0.00115  3.968332  0.002
C  C127  1  0.37912564  0.70863300  0.37392079  1  0.358491  0.001656  0.003837  -0.017486  0.001147  3.967873  0.002
C  C128  1  0.18954063  0.97107375  0.22394720  1  0.94387  -4.8e-05  0.143046  0.087087  -0.000614  3.900237  0.001
C  C129  1  0.97108013  0.18954065  0.72396563  1  0.943913  -4.7e-05  0.143141  0.087427  -0.000612  3.900616  0.001
C  C130  1  0.81047621  0.02891595  0.77605685  1  0.944154  -4.8e-05  0.142985  0.087133  -0.000613  3.900781  0.001
C  C131  1  0.02890621  0.81047999  0.27603710  1  0.943596  -4.9e-05  0.14314  0.087488  -0.000615  3.901135  0.001
C  C132  1  0.13209937  0.01788038  0.35010186  1  0.310534  0.00447  -0.012545  -0.135774  0.002881  3.936068  0.003
C  C133  1  0.01787785  0.13208963  0.85011481  1  0.310056  0.004469  -0.01239  -0.13566  0.002881  3.93614  0.003
C  C134  1  0.86789877  0.98212690  0.64989737  1  0.31031  0.004466  -0.012513  -0.135834  0.002879  3.935922  0.003
C  C135  1  0.98211890  0.86790643  0.14987016  1  0.310174  0.004467  -0.012521  -0.136041  0.00288  3.93606  0.003
C  C136  1  0.16773804  0.92330524  0.36199738  1  0.320436  0.001976  -0.004595  -0.037447  0.001188  3.968054  0.002
C  C137  1  0.92330404  0.16773677  0.86200785  1  0.321549  0.001972  -0.004539  -0.037397  0.001187  3.967805  0.002
C  C138  1  0.83226066  0.07669701  0.63801627  1  0.3204  0.001976  -0.00469  -0.03747  0.001188  3.968149  0.002
C  C139  1  0.07669893  0.83226335  0.13799237  1  0.321198  0.001973  -0.00469  -0.037565  0.001187  3.967716  0.002
C  C140  1  0.35799834  0.39349906  0.25009176  1  0.266306  0.001138  -0.044297  -0.106554  0.000815  3.924951  0.001
C  C141  1  0.39350210  0.35798009  0.75010013  1  0.266367  0.001138  -0.044257  -0.106303  0.000815  3.924637  0.001
C  C142  1  0.64202509  0.60650319  0.74988436  1  0.267503  0.001137  -0.044448  -0.106615  0.000814  3.924719  0.001
C  C143  1  0.60649247  0.64201361  0.24989366  1  0.266349  0.001138  -0.044437  -0.106574  0.000815  3.924797  0.001
C  C144  1  0.11891101  0.14136356  0.21914469  1  0.344042  0.001136  -0.041783  -0.109672  0.000818  3.920175  0.001
C  C145  1  0.14136190  0.11890420  0.71914764  1  0.344048  0.001135  -0.041869  -0.109875  0.000818  3.920685  0.001
C  C146  1  0.88110732  0.85863067  0.78085218  1  0.344093  0.001136  -0.041862  -0.109964  0.000818  3.920814  0.001
C  C147  1  0.85862958  0.88111228  0.28081501  1  0.343556  0.001135  -0.041676  -0.109664  0.000818  3.920295  0.001
C  C148  1  0.29543726  0.32926877  0.24086793  1  -0.027008  1e-06  -0.019288  0.074154  -3.5e-05  4.000023  0.0
C  C149  1  0.32926569  0.29542929  0.74087191  1  -0.027073  1e-06  -0.019356  0.074089  -3.5e-05  3.999979  0.0
C  C150  1  0.70457434  0.67074341  0.75911222  1  -0.026254  1e-06  -0.019398  0.074139  -3.5e-05  3.999997  0.0
C  C151  1  0.67072544  0.70457059  0.25912207  1  -0.026905  1e-06  -0.01935  0.073949  -3.5e-05  3.999656  0.0
C  C152  1  0.33292409  0.24922734  0.20166258  1  -0.070584  0.000214  -0.098826  -0.151626  0.000124  4.018669  0.0
C  C153  1  0.24922869  0.33291533  0.70166916  1  -0.070221  0.000214  -0.098665  -0.151292  0.000124  4.018843  0.0
C  C154  1  0.66708953  0.75077757  0.79831964  1  -0.070804  0.000213  -0.098706  -0.151351  0.000124  4.018538  0.0
C  C155  1  0.75076812  0.66709568  0.29832533  1  -0.069778  0.000214  -0.098644  -0.151246  0.000124  4.018466  0.0
C  C156  1  0.20024507  0.34760484  0.27334660  1  -0.050848  -8.8e-05  -0.09277  -0.121892  -0.000142  3.968838  0.0
C  C157  1  0.34760716  0.20023437  0.77335823  1  -0.051582  -8.8e-05  -0.092798  -0.122111  -0.000142  3.968699  0.0
C  C158  1  0.79976854  0.65239734  0.72663418  1  -0.052097  -8.8e-05  -0.092698  -0.122137  -0.000142  3.968955  0.0
C  C159  1  0.65238966  0.79977463  0.22663158  1  -0.051841  -8.8e-05  -0.092714  -0.122137  -0.000142  3.968729  0.0
C  C160  1  0.18118168  0.20613108  0.22782302  1  -0.033031  8e-06  -0.01604  0.078317  -3.8e-05  3.985267  0.0
C  C161  1  0.20612968  0.18117054  0.72782598  1  -0.033914  8e-06  -0.015974  0.078437  -3.8e-05  3.985245  0.0
C  C162  1  0.81883745  0.79387192  0.77216925  1  -0.033865  8e-06  -0.015869  0.078331  -3.8e-05  3.985603  0.0
C  C163  1  0.79385960  0.81884288  0.27214810  1  -0.033957  8e-06  -0.015952  0.078206  -3.8e-05  3.98588  0.0
C  C164  1  0.27627248  0.18801518  0.19499654  1  -0.032881  -7.3e-05  -0.092617  -0.122644  -0.000117  3.975413  0.0
C  C165  1  0.18802393  0.27626486  0.69499867  1  -0.031667  -7.3e-05  -0.092646  -0.122735  -0.000117  3.97532  0.0
C  C166  1  0.72374517  0.81197786  0.80499626  1  -0.03191  -7.3e-05  -0.092604  -0.122444  -0.000117  3.975172  0.0
C  C167  1  0.81197305  0.72375241  0.30497923  1  -0.031987  -7.3e-05  -0.092642  -0.122603  -0.000117  3.97523  0.0
C  C168  1  0.14383715  0.28597488  0.26735135  1  -0.060442  0.000135  -0.089346  -0.131836  7.1e-05  3.984122  0.0
C  C169  1  0.28596705  0.14382700  0.76735698  1  -0.059916  0.000135  -0.089295  -0.131731  7.1e-05  3.984073  0.0
C  C170  1  0.85617715  0.71403324  0.73263838  1  -0.060591  0.000135  -0.089379  -0.131749  7.1e-05  3.984096  0.0
C  C171  1  0.71402427  0.85618662  0.23262486  1  -0.06088  0.000135  -0.089402  -0.131538  7.1e-05  3.984803  0.0
C  C172  1  0.13866649  0.32435783  0.48152467  1  0.943342  -0.001663  0.139214  0.083396  -0.002229  3.896191  -0.001
C  C173  1  0.32434912  0.13866462  0.98152914  1  0.943443  -0.001658  0.139089  0.083148  -0.002223  3.89628  -0.001
C  C174  1  0.86134715  0.67565861  0.51846823  1  0.942975  -0.001653  0.139086  0.083142  -0.002218  3.895753  -0.001
C  C175  1  0.67564835  0.86133876  0.01846269  1  0.943395  -0.001657  0.139193  0.083373  -0.002223  3.896381  -0.001
C  C176  1  0.28005974  0.35254698  0.47714602  1  0.278933  0.004311  -0.013674  -0.133653  0.0027  3.965503  0.003
C  C177  1  0.35253241  0.28005777  0.97716082  1  0.27879  0.004309  -0.013649  -0.133616  0.002699  3.965641  0.003
C  C178  1  0.71995040  0.64746746  0.52284524  1  0.279523  0.004307  -0.013581  -0.133505  0.002698  3.965508  0.003
C  C179  1  0.64747196  0.71994002  0.02283705  1  0.279194  0.004308  -0.013628  -0.133523  0.002698  3.965813  0.003
C  C180  1  0.21457451  0.43233961  0.49072624  1  0.38694  0.001373  0.001908  -0.02783  0.000945  3.953955  0.001
C  C181  1  0.43233026  0.21456931  0.99072881  1  0.388087  0.001367  0.002031  -0.027739  0.000942  3.953842  0.001
C  C182  1  0.78543486  0.56767288  0.50927293  1  0.387299  0.001361  0.001947  -0.027948  0.000936  3.954322  0.001
C  C183  1  0.56767202  0.78542487  0.00926308  1  0.387231  0.001367  0.001936  -0.027825  0.000941  3.954013  0.001
C  C184  1  0.48513004  0.96036547  0.82957993  1  0.905437  -0.001477  0.142761  0.089513  -0.001881  3.87545  0.0
C  C185  1  0.96038474  0.48515119  0.32959302  1  0.906697  -0.001483  0.142456  0.089102  -0.001885  3.874993  0.0
C  C186  1  0.51482188  0.03961934  0.17040379  1  0.912517  -0.001485  0.142463  0.089214  -0.001882  3.875131  0.0
C  C187  1  0.03964126  0.51485704  0.67042294  1  0.906221  -0.001475  0.142824  0.089724  -0.001877  3.875207  0.0
C  C188  1  0.58339820  0.05430202  0.81851194  1  0.387048  0.000823  -0.001751  -0.040406  0.000321  3.982216  0.001
C  C189  1  0.05432818  0.58340729  0.31853932  1  0.387379  0.000832  -0.001857  -0.040549  0.000329  3.982477  0.001
C  C190  1  0.41659483  0.94564711  0.18145035  1  0.387677  0.000828  -0.001867  -0.040372  0.000324  3.982555  0.001
C  C191  1  0.94569844  0.41660070  0.68148905  1  0.38768  0.000819  -0.001749  -0.040443  0.000317  3.982163  0.001
C  C192  1  0.58675199  0.03226344  0.73809137  1  0.244424  0.004235  -0.007414  -0.119178  0.002644  3.927516  0.003
C  C193  1  0.03230501  0.58676060  0.23811457  1  0.244284  0.004237  -0.00762  -0.11942  0.002645  3.927283  0.003
C  C194  1  0.41325039  0.96764804  0.26188905  1  0.244196  0.004237  -0.007507  -0.119156  0.002645  3.926507  0.003
C  C195  1  0.96773068  0.41324553  0.76191331  1  0.244168  0.004233  -0.007574  -0.119528  0.002642  3.92766  0.003
C  C196  1  0.26804723  0.19141720  0.44774200  1  0.289079  0.001195  -0.045413  -0.114209  0.000856  3.917196  0.001
C  C197  1  0.19140277  0.26804962  0.94776364  1  0.288921  0.001196  -0.045443  -0.114246  0.000857  3.916989  0.001
C  C198  1  0.73196586  0.80860563  0.55223627  1  0.289428  0.001197  -0.045478  -0.114356  0.000858  3.916951  0.001
C  C199  1  0.80859827  0.73197480  0.05224121  1  0.289227  0.001196  -0.04542  -0.114453  0.000857  3.91715  0.001
C  C200  1  0.50187590  0.93241865  0.67798034  1  0.28596  0.001333  -0.042705  -0.112904  0.000929  3.927348  0.001
C  C201  1  0.93244222  0.50190725  0.17798807  1  0.286057  0.001333  -0.042874  -0.113412  0.00093  3.928159  0.001
C  C202  1  0.49807148  0.06753822  0.32201966  1  0.286314  0.001335  -0.042906  -0.113528  0.00093  3.927851  0.001
C  C203  1  0.06758946  0.49810940  0.82202507  1  0.286308  0.001334  -0.04286  -0.113314  0.00093  3.92713  0.001
C  C204  1  0.32746400  0.12586339  0.50888572  1  -0.024277  0.000195  -0.016851  0.079015  0.000113  3.98793  0.0
C  C205  1  0.12585237  0.32746778  0.00889962  1  -0.025103  0.000195  -0.016783  0.079162  0.000113  3.988369  0.0
C  C206  1  0.67253563  0.87414707  0.49110530  1  -0.024742  0.000195  -0.01672  0.079193  0.000113  3.988384  0.0
C  C207  1  0.87415072  0.67255007  0.99110531  1  -0.024502  0.000195  -0.016751  0.079203  0.000113  3.988354  0.0
C  C208  1  0.41384208  0.14273823  0.51950721  1  -0.079754  0.000322  -0.089024  -0.125623  0.000208  3.993969  0.0
C  C209  1  0.14273833  0.41383795  0.01952127  1  -0.079151  0.000322  -0.08907  -0.125678  0.000208  3.994008  0.0
C  C210  1  0.58616216  0.85725537  0.48050442  1  -0.115291  0.000324  -0.088963  -0.125637  0.000208  3.993817  0.0
C  C211  1  0.85726469  0.58617441  0.98048702  1  -0.113965  0.000323  -0.089015  -0.125554  0.000208  3.993852  0.0
C  C212  1  0.46954600  0.08126703  0.57434789  1  -0.026692  0.000402  -0.085398  -0.11656  0.000249  3.983319  0.0
C  C213  1  0.08128193  0.46955093  0.07436702  1  -0.027223  0.000403  -0.08527  -0.116438  0.000249  3.982991  0.0
C  C214  1  0.53044270  0.91870179  0.42565692  1  -0.025819  0.000403  -0.085474  -0.116312  0.000249  3.98237  0.0
C  C215  1  0.91873506  0.53046262  0.92564453  1  -0.027224  0.000403  -0.085496  -0.116707  0.000249  3.983657  0.0
C  C216  1  0.44026743  0.00085221  0.62026670  1  -0.004392  0.000289  -0.009752  0.088622  0.000161  3.980074  0.0
C  C217  1  0.00086516  0.44029410  0.12028089  1  -0.005079  0.000289  -0.009702  0.088773  0.000161  3.980473  0.0
C  C218  1  0.55969484  0.99911947  0.37972244  1  -0.00478  0.00029  -0.009751  0.08849  0.000161  3.980456  0.0
C  C219  1  0.99915123  0.55973187  0.87973193  1  -0.005263  0.000289  -0.009713  0.088672  0.000161  3.980126  0.0
C  C220  1  0.35488688  0.98297800  0.60909300  1  -0.025891  2e-06  -0.086903  -0.130902  -1.3e-05  3.987796  0.0
C  C221  1  0.98297062  0.35491977  0.10911084  1  -0.025771  2e-06  -0.087136  -0.131229  -1.3e-05  3.988511  0.0
C  C222  1  0.64506932  0.01701755  0.39089213  1  -0.026579  2e-06  -0.087218  -0.131274  -1.3e-05  3.98882  0.0
C  C223  1  0.01703454  0.64510574  0.89090754  1  -0.026757  2e-06  -0.086948  -0.130937  -1.3e-05  3.988044  0.0
C  C224  1  0.29915689  0.04466080  0.55349915  1  -0.06394  0.000257  -0.086015  -0.128058  0.000156  3.995271  0.0
C  C225  1  0.04464409  0.29917328  0.05352260  1  -0.063337  0.000257  -0.085972  -0.127887  0.000156  3.995637  0.0
C  C226  1  0.70082608  0.95535119  0.44647551  1  -0.063248  0.000258  -0.085985  -0.127957  0.000156  3.995766  0.0
C  C227  1  0.95536097  0.70083723  0.94649252  1  -0.063389  0.000257  -0.086026  -0.127944  0.000156  3.995782  0.0
S  S228  1  0.13559018  0.68786876  0.48805346  1  3.760083  -0.000456  0.497422  1.408282  -0.000602  6.48039  -0.001
S  S229  1  0.68785073  0.13557248  0.98804174  1  3.761306  -0.000456  0.49727  1.40814  -0.000603  6.481371  -0.001
S  S230  1  0.86442544  0.31215255  0.51196270  1  3.761781  -0.000456  0.49721  1.408086  -0.000602  6.480756  -0.001
S  S231  1  0.31213541  0.86440120  0.01193589  1  3.760603  -0.000456  0.497479  1.408349  -0.000601  6.479915  -0.001
N  N232  1  0.26583478  0.64097545  0.20892644  1  -1.199101  0.086008  -0.364284  -0.26792  0.055751  3.615464  0.075
N  N233  1  0.64097656  0.26583911  0.70893520  1  -1.198649  0.086028  -0.36413  -0.267863  0.055764  3.615593  0.075
N  N234  1  0.73415949  0.35902540  0.79111993  1  -1.16932  0.085968  -0.36436  -0.267887  0.055775  3.614963  0.075
N  N235  1  0.35901842  0.73415822  0.29110536  1  -1.169817  0.085979  -0.364428  -0.268114  0.055782  3.615384  0.075
N  N236  1  0.32507460  0.49062588  0.21534728  1  -1.214486  0.002427  -0.247204  0.040828  0.001156  3.797203  0.002
N  N237  1  0.49063318  0.32507643  0.71535867  1  -1.214571  0.002427  -0.247266  0.04074  0.001156  3.797154  0.002
N  N238  1  0.67490522  0.50937685  0.78466674  1  -1.215122  0.002428  -0.24704  0.041012  0.001157  3.797033  0.002
N  N239  1  0.50936607  0.67491199  0.28466079  1  -1.214496  0.002428  -0.24715  0.040906  0.001157  3.797014  0.002
N  N240  1  0.20335233  0.89586449  0.28268788  1  -1.184624  0.090998  -0.368992  -0.275422  0.058949  3.62324  0.079
N  N241  1  0.89586570  0.20335820  0.78269938  1  -1.185215  0.090991  -0.369152  -0.275624  0.058941  3.623455  0.079
N  N242  1  0.79665052  0.10413550  0.71732984  1  -1.184714  0.090989  -0.368996  -0.275639  0.058942  3.623321  0.079
N  N243  1  0.10412544  0.79665795  0.21731265  1  -1.184402  0.090993  -0.369086  -0.275755  0.058945  3.62352  0.079
N  N244  1  0.14602844  0.04665013  0.26260851  1  -1.216045  0.003222  -0.245187  0.045126  0.001635  3.795329  0.002
N  N245  1  0.04665320  0.14602069  0.76262589  1  -1.216169  0.003222  -0.245136  0.045096  0.001635  3.796118  0.002
N  N246  1  0.85398220  0.95334907  0.73739378  1  -1.216489  0.003221  -0.245054  0.045458  0.001634  3.795639  0.002
N  N247  1  0.95334361  0.85398897  0.23736694  1  -1.216215  0.003221  -0.24508  0.045599  0.001634  3.796161  0.002
N  N248  1  0.12729215  0.41306191  0.49292494  1  -1.208217  0.088126  -0.361139  -0.262338  0.057269  3.596418  0.077
N  N249  1  0.41304910  0.12728781  0.99292602  1  -1.20854  0.08812  -0.361131  -0.262258  0.057264  3.596451  0.077
N  N250  1  0.87271168  0.58695787  0.50707521  1  -1.207775  0.08812  -0.36114  -0.262277  0.057265  3.596689  0.077
N  N251  1  0.58694621  0.87271052  0.00706693  1  -1.208603  0.088113  -0.361026  -0.2623  0.057262  3.596403  0.077
N  N252  1  0.23100110  0.28476956  0.47177344  1  -1.220894  0.002611  -0.249622  0.031814  0.001317  3.790841  0.002
N  N253  1  0.28476082  0.23099567  0.97178663  1  -1.220445  0.002613  -0.249671  0.03202  0.001318  3.791036  0.002
N  N254  1  0.76901748  0.71524592  0.52821260  1  -1.220434  0.002614  -0.249823  0.031759  0.001319  3.790592  0.002
N  N255  1  0.71524434  0.76901089  0.02820788  1  -1.220639  0.002612  -0.249816  0.03182  0.001317  3.79106  0.002
N  N256  1  0.52023687  0.00881231  0.87392850  1  -1.175933  0.085951  -0.376958  -0.271818  0.055787  3.660474  0.075
N  N257  1  0.00882568  0.52024716  0.37395456  1  -1.176366  0.085971  -0.376547  -0.271192  0.055798  3.659545  0.075
N  N258  1  0.47973541  0.99117317  0.12604383  1  -1.17728  0.085981  -0.376549  -0.271256  0.055803  3.659857  0.075
N  N259  1  0.99119669  0.47975487  0.62607353  1  -1.176133  0.085948  -0.376997  -0.271742  0.055785  3.660375  0.075
N  N260  1  0.52439195  0.97309257  0.74616166  1  -1.232146  0.002791  -0.250146  0.033469  0.001394  3.797421  0.002
N  N261  1  0.97312325  0.52440181  0.24617536  1  -1.23261  0.002789  -0.250127  0.033474  0.001392  3.797446  0.002
N  N262  1  0.47559109  0.02685159  0.25382291  1  -1.236709  0.002791  -0.250097  0.033191  0.001393  3.797393  0.002
N  N263  1  0.02691383  0.47559386  0.75384145  1  -1.232151  0.002795  -0.250071  0.033592  0.001395  3.797076  0.002
O  O264  1  0.05534571  0.63750952  0.50233514  1  -1.366399  -0.00153  -0.401263  -0.738599  -0.001753  2.291752  0.0
O  O265  1  0.63745612  0.05535213  0.00234182  1  -1.367115  -0.001531  -0.401375  -0.738699  -0.001753  2.291954  0.0
O  O266  1  0.94467470  0.36250934  0.49769313  1  -1.36747  -0.001534  -0.40127  -0.738665  -0.001756  2.291832  0.0
O  O267  1  0.36246155  0.94466949  0.99768578  1  -1.366842  -0.001532  -0.401225  -0.738595  -0.001754  2.291351  0.0
O  O268  1  0.10020448  0.78341610  0.51124508  1  -1.372564  0.001126  -0.431849  -0.72158  0.000702  2.066255  0.001
O  O269  1  0.78339604  0.10014157  0.01122364  1  -1.372097  0.001124  -0.43176  -0.72159  0.0007  2.066848  0.001
O  O270  1  0.89983329  0.21659906  0.48879666  1  -1.372171  0.001122  -0.431762  -0.721489  0.000699  2.066642  0.001
O  O271  1  0.21658676  0.89976239  0.98874852  1  -1.372539  0.001124  -0.431743  -0.721541  0.000701  2.06645  0.001
O  O272  1  0.17534780  0.69327143  0.39419993  1  -1.3696  -0.000839  -0.399805  -0.733533  -0.001202  2.222746  0.0
O  O273  1  0.69325094  0.17532753  0.89418339  1  -1.369762  -0.00084  -0.399676  -0.733441  -0.001203  2.222944  0.0
O  O274  1  0.82464148  0.30677451  0.60581338  1  -1.369783  -0.00084  -0.399712  -0.733438  -0.001204  2.222526  0.0
O  O275  1  0.30673986  0.82461378  0.10578795  1  -1.369662  -0.000839  -0.399885  -0.733553  -0.001203  2.222295  0.0
O  O276  1  0.20886543  0.63341683  0.54030675  1  -1.374594  0.000833  -0.434924  -0.729078  0.000536  2.047847  0.001
O  O277  1  0.63343942  0.20886121  0.04029334  1  -1.375282  0.000832  -0.434826  -0.728837  0.000535  2.048171  0.001
O  O278  1  0.79117118  0.36658802  0.45968750  1  -1.375335  0.00083  -0.434796  -0.72886  0.000533  2.048165  0.001
O  O279  1  0.36661641  0.79115773  0.95966765  1  -1.374672  0.000831  -0.435014  -0.729125  0.000534  2.048193  0.001
