# generated using pymatgen
data_TbCu4H19C21I4N4O7
_symmetry_space_group_name_H-M   'P 1'
_cell_length_a   8.03775294
_cell_length_b   15.23727119
_cell_length_c   28.33934437
_cell_angle_alpha   101.92629215
_cell_angle_beta   90.00001349
_cell_angle_gamma   90.00007299
_symmetry_Int_Tables_number   1
_chemical_formula_structural   TbCu4H19C21I4N4O7
_chemical_formula_sum   'Tb4 Cu16 H76 C84 I16 N16 O28'
_cell_volume   3395.89631420
_cell_formula_units_Z   4
loop_
 _symmetry_equiv_pos_site_id
 _symmetry_equiv_pos_as_xyz
  1  'x, y, z'
loop_
 _atom_site_type_symbol
 _atom_site_label
 _atom_site_symmetry_multiplicity
 _atom_site_fract_x
 _atom_site_fract_y
 _atom_site_fract_z
 _atom_site_occupancy
 _atom_site_pbe_bader_charge
 _atom_site_pbe_bader_spin_density
 _atom_site_pbe_cm5_charge
 _atom_site_pbe_ddec_charge
 _atom_site_pbe_ddec_spin_density
 _atom_site_pbe_ddec_sum_bond_order
 _atom_site_pbe_magmom
Tb  Tb0  1  0.24340018  0.04882244  0.01265032  1  2.203819  0  1.521787  2.109502  0  2.128488  0
Tb  Tb1  1  0.74339631  0.45117500  0.48734764  1  2.203876  0  1.521762  2.109542  0  2.12847  0
Tb  Tb2  1  0.75660601  0.95116874  0.98734904  1  2.203984  0  1.52182  2.109659  0  2.128362  0
Tb  Tb3  1  0.25659744  0.54882758  0.51265157  1  2.204023  0  1.521782  2.109567  0  2.128399  0
Cu  Cu4  1  0.19684803  0.36061817  0.78689917  1  0.277079  0  0.139061  0.132596  0  2.77173  0
Cu  Cu5  1  0.69684445  0.13938704  0.71310213  1  0.27711  0  0.139065  0.132557  0  2.771817  0
Cu  Cu6  1  0.80315194  0.63938240  0.21310088  1  0.27705  0  0.139068  0.132612  0  2.77167  0
Cu  Cu7  1  0.30315552  0.86062090  0.28689802  1  0.277031  0  0.139059  0.132551  0  2.771824  0
Cu  Cu8  1  0.39834808  0.14670605  0.67590582  1  0.402148  0  0.244708  0.148057  0  2.730653  0
Cu  Cu9  1  0.89834509  0.35329932  0.82409552  1  0.402258  0  0.244697  0.148049  0  2.730597  0
Cu  Cu10  1  0.60164194  0.85329855  0.32409573  1  0.4022  0  0.244685  0.148035  0  2.730817  0
Cu  Cu11  1  0.10164741  0.64669924  0.17590360  1  0.402275  0  0.244688  0.148007  0  2.73079  0
Cu  Cu12  1  0.43214853  0.08408705  0.75125970  1  0.394739  0  0.24694  0.137041  0  2.722124  0
Cu  Cu13  1  0.93216305  0.41591766  0.74873945  1  0.394662  0  0.246917  0.137048  0  2.722159  0
Cu  Cu14  1  0.56784274  0.91591687  0.24874001  1  0.394778  0  0.246912  0.136987  0  2.722256  0
Cu  Cu15  1  0.06782946  0.58407956  0.25125988  1  0.394668  0  0.246965  0.137093  0  2.722177  0
Cu  Cu16  1  0.05563711  0.50288339  0.82941129  1  0.373204  0  0.243243  0.129656  0  2.841554  0
Cu  Cu17  1  0.55563560  0.99711748  0.67059157  1  0.373074  0  0.24332  0.12987  0  2.841402  0
Cu  Cu18  1  0.94435664  0.49711315  0.17058796  1  0.373267  0  0.243303  0.129666  0  2.841635  0
Cu  Cu19  1  0.44436064  0.00288913  0.32940949  1  0.373182  0  0.243275  0.129798  0  2.841454  0
H  H20  1  0.25364296  0.93446149  0.12619536  1  0.125631  0  0.110157  0.127097  0  1.017458  0
H  H21  1  0.75364429  0.56552701  0.37379943  1  0.125411  0  0.110141  0.127068  0  1.017555  0
H  H22  1  0.74637070  0.06553640  0.87380686  1  0.125431  0  0.110154  0.12707  0  1.017464  0
H  H23  1  0.24635444  0.43446953  0.62619699  1  0.125466  0  0.110166  0.127102  0  1.017556  0
H  H24  1  0.12810723  0.15494859  0.91100820  1  0.102847  0  0.113778  0.125188  0  1.002823  0
H  H25  1  0.62809533  0.34505122  0.58899391  1  0.102948  0  0.113788  0.125225  0  1.002704  0
H  H26  1  0.87189025  0.84505467  0.08899285  1  0.102868  0  0.113812  0.125225  0  1.002792  0
H  H27  1  0.37189468  0.65495539  0.41100680  1  0.102871  0  0.11378  0.125154  0  1.002666  0
H  H28  1  0.53923864  0.70606661  0.05484417  1  0.084593  0  0.102076  0.11478  0  1.006926  0
H  H29  1  0.03923970  0.79392710  0.44515224  1  0.084783  0  0.102062  0.11476  0  1.006864  0
H  H30  1  0.46076133  0.29392659  0.94515824  1  0.084158  0  0.102087  0.114783  0  1.006871  0
H  H31  1  0.96075156  0.20607213  0.55484730  1  0.084628  0  0.102091  0.11483  0  1.006776  0
H  H32  1  0.29502454  0.18715026  0.84233129  1  0.111903  0  0.093621  0.071306  0  1.062551  0
H  H33  1  0.79502257  0.31285168  0.65767037  1  0.111695  0  0.093614  0.071317  0  1.062506  0
H  H34  1  0.70496672  0.81285367  0.15766878  1  0.11182  0  0.093634  0.071384  0  1.06246  0
H  H35  1  0.20496869  0.68715090  0.34232884  1  0.111847  0  0.093586  0.071266  0  1.062578  0
H  H36  1  0.38503376  0.61383779  0.10468534  1  0.082019  0  0.095863  0.072029  0  1.04037  0
H  H37  1  0.88502717  0.88615147  0.39530813  1  0.082238  0  0.095761  0.071927  0  1.040299  0
H  H38  1  0.61495501  0.38615271  0.89531148  1  0.082183  0  0.095776  0.071831  0  1.040374  0
H  H39  1  0.11496284  0.11384306  0.60468948  1  0.082131  0  0.095846  0.071962  0  1.040224  0
H  H40  1  0.11375923  0.83416836  0.17365348  1  0.10304  0  0.095068  0.075437  0  1.05356  0
H  H41  1  0.61375455  0.66582004  0.32634270  1  0.102879  0  0.095154  0.075643  0  1.053522  0
H  H42  1  0.88624820  0.16582886  0.82634902  1  0.102874  0  0.095082  0.075456  0  1.05352  0
H  H43  1  0.38624293  0.33417650  0.67365372  1  0.10301  0  0.095133  0.075578  0  1.053559  0
H  H44  1  0.94039085  0.68915934  0.86698348  1  0.081784  0  0.108455  0.082318  0  1.00425  0
H  H45  1  0.44039544  0.81084114  0.63302007  1  0.081822  0  0.108459  0.082363  0  1.004182  0
H  H46  1  0.05961286  0.31083787  0.13301478  1  0.081712  0  0.10845  0.082353  0  1.004289  0
H  H47  1  0.55961075  0.18916815  0.36698376  1  0.081619  0  0.108443  0.08234  0  1.004265  0
H  H48  1  0.54215270  0.69789654  0.89810065  1  0.084586  0  0.101296  0.108016  0  1.037508  0
H  H49  1  0.04215228  0.80210901  0.60190132  1  0.084578  0  0.101288  0.107972  0  1.037652  0
H  H50  1  0.45785100  0.30209933  0.10189888  1  0.084464  0  0.101307  0.108017  0  1.037548  0
H  H51  1  0.95785018  0.19790162  0.39809913  1  0.084435  0  0.101316  0.108104  0  1.037634  0
H  H52  1  0.06936277  0.83411316  0.90676449  1  0.153896  0  0.114867  0.123086  0  1.062667  0
H  H53  1  0.56936413  0.66588839  0.59323704  1  0.153916  0  0.114858  0.123104  0  1.062623  0
H  H54  1  0.93064591  0.16588271  0.09323222  1  0.153835  0  0.114845  0.123073  0  1.062651  0
H  H55  1  0.43064206  0.33411956  0.40676735  1  0.153798  0  0.114838  0.123084  0  1.062595  0
H  H56  1  0.05855506  0.88570307  0.82897119  1  0.092505  0  0.113886  0.126128  0  0.990017  0
H  H57  1  0.55856009  0.61430048  0.67102808  1  0.092435  0  0.11383  0.126069  0  0.990039  0
H  H58  1  0.94144865  0.11430018  0.17102986  1  0.092409  0  0.113829  0.126039  0  0.990002  0
H  H59  1  0.44143366  0.38570211  0.32897324  1  0.092291  0  0.113892  0.126176  0  0.989948  0
H  H60  1  0.24108868  0.92637320  0.76498772  1  0.104399  0  0.106196  0.08308  0  1.012133  0
H  H61  1  0.74109988  0.57363182  0.73501068  1  0.104309  0  0.106173  0.083096  0  1.01219  0
H  H62  1  0.75892373  0.07362805  0.23501523  1  0.104367  0  0.106192  0.083063  0  1.012292  0
H  H63  1  0.25889635  0.42637075  0.26498818  1  0.104433  0  0.106177  0.083096  0  1.01211  0
H  H64  1  0.39135415  0.55613839  0.86234827  1  0.112435  0  0.09018  0.074875  0  1.060824  0
H  H65  1  0.89135249  0.94386675  0.63765298  1  0.112345  0  0.090162  0.074852  0  1.060768  0
H  H66  1  0.60865204  0.44385814  0.13764781  1  0.112583  0  0.09019  0.074846  0  1.060795  0
H  H67  1  0.10864997  0.05614389  0.36234854  1  0.112533  0  0.090217  0.074882  0  1.060773  0
H  H68  1  0.30204000  0.28318185  0.04140748  1  0.077213  0  0.125298  0.042683  0  1.020695  0
H  H69  1  0.80205420  0.21681095  0.45859280  1  0.07721  0  0.125243  0.042656  0  1.020656  0
H  H70  1  0.69795002  0.71680263  0.95859362  1  0.077208  0  0.125274  0.042656  0  1.020713  0
H  H71  1  0.19795324  0.78318895  0.54140859  1  0.07725  0  0.125297  0.042657  0  1.020699  0
H  H72  1  0.28327373  0.42687064  0.04437259  1  0.060511  0  0.102733  0.117636  0  1.005598  0
H  H73  1  0.78328261  0.07312483  0.45562975  1  0.060618  0  0.102727  0.11757  0  1.005689  0
H  H74  1  0.71673246  0.57311518  0.95562830  1  0.060412  0  0.102742  0.117626  0  1.005534  0
H  H75  1  0.21672980  0.92688044  0.54437364  1  0.060458  0  0.102707  0.117593  0  1.005533  0
H  H76  1  0.16844725  0.45278544  0.99470664  1  0.056564  0  0.089695  0.107862  0  1.032285  0
H  H77  1  0.66845324  0.04721103  0.50529440  1  0.056463  0  0.089651  0.107738  0  1.032339  0
H  H78  1  0.83156267  0.54720574  0.00529379  1  0.056019  0  0.089684  0.107795  0  1.032386  0
H  H79  1  0.33155793  0.95278887  0.49470769  1  0.05664  0  0.089705  0.107858  0  1.032325  0
H  H80  1  0.08062014  0.47350790  0.05451268  1  0.078835  0  0.091711  0.110873  0  1.036381  0
H  H81  1  0.58062889  0.02649010  0.44548886  1  0.0789  0  0.091728  0.110935  0  1.036327  0
H  H82  1  0.91938854  0.52648597  0.94548945  1  0.078825  0  0.091702  0.110925  0  1.036326  0
H  H83  1  0.41938725  0.97351047  0.55451118  1  0.078759  0  0.091698  0.11089  0  1.036376  0
H  H84  1  0.88446569  0.38406823  0.98562443  1  0.07193  0  0.104392  0.120909  0  1.0093  0
H  H85  1  0.38447719  0.11593244  0.51437850  1  0.072028  0  0.104421  0.12098  0  1.009265  0
H  H86  1  0.11553304  0.61592832  0.01437694  1  0.071863  0  0.104392  0.120901  0  1.00944  0
H  H87  1  0.61553149  0.88406814  0.48562331  1  0.071929  0  0.104404  0.120875  0  1.009354  0
H  H88  1  0.92166872  0.26621077  0.96797793  1  0.088301  0  0.109733  0.130868  0  0.993513  0
H  H89  1  0.42168052  0.23379193  0.53202135  1  0.08807  0  0.109762  0.13097  0  0.993519  0
H  H90  1  0.07832876  0.73378444  0.03202153  1  0.088229  0  0.10974  0.130907  0  0.993588  0
H  H91  1  0.57831945  0.76620864  0.46797799  1  0.088143  0  0.109717  0.130826  0  0.993548  0
H  H92  1  0.83336016  0.31095843  0.02554883  1  0.084862  0  0.101745  0.117288  0  1.017611  0
H  H93  1  0.33337467  0.18903639  0.47445061  1  0.084933  0  0.101726  0.117245  0  1.017601  0
H  H94  1  0.16663732  0.68903409  0.97445033  1  0.084866  0  0.101769  0.117312  0  1.01762  0
H  H95  1  0.66663401  0.81095948  0.52554998  1  0.084953  0  0.101734  0.117247  0  1.01763  0
C  C96  1  0.28300555  0.86331614  0.11962597  1  -0.016451  0  -0.078707  -0.13202  0  3.929154  0
C  C97  1  0.78301204  0.63667372  0.38036969  1  -0.016551  0  -0.078606  -0.131942  0  3.92918  0
C  C98  1  0.71699566  0.13668175  0.88037696  1  -0.016343  0  -0.078661  -0.13193  0  3.928966  0
C  C99  1  0.21698669  0.36332483  0.61962908  1  -0.016436  0  -0.07868  -0.131981  0  3.929131  0
C  C100  1  0.08262294  0.01671899  0.87576576  1  0.006903  0  0.005566  0.008811  0  3.930285  0
C  C101  1  0.58262136  0.48328077  0.62423458  1  0.00688  0  0.005608  0.008905  0  3.930295  0
C  C102  1  0.91737454  0.98328560  0.12423438  1  0.006974  0  0.005546  0.009017  0  3.930122  0
C  C103  1  0.41737488  0.51672583  0.37576543  1  0.00663  0  0.005446  0.008723  0  3.93033  0
C  C104  1  0.47844202  0.88530916  0.05450228  1  1.600823  0  0.237688  0.65482  0  4.147246  0
C  C105  1  0.97844974  0.61469025  0.44549762  1  1.600734  0  0.237679  0.654896  0  4.146969  0
C  C106  1  0.52154924  0.11468605  0.94549859  1  1.600448  0  0.237784  0.655122  0  4.146745  0
C  C107  1  0.02154774  0.38530965  0.55450235  1  1.600611  0  0.237681  0.654947  0  4.146733  0
C  C108  1  0.14922624  0.10254761  0.87923578  1  0.01072  0  -0.069171  -0.116453  0  3.925793  0
C  C109  1  0.64922694  0.39745288  0.62076747  1  0.010754  0  -0.069323  -0.116728  0  3.926088  0
C  C110  1  0.85077124  0.89745699  0.12076542  1  0.010767  0  -0.069263  -0.116673  0  3.925688  0
C  C111  1  0.35076432  0.60255171  0.37923196  1  0.010771  0  -0.069105  -0.11627  0  3.925811  0
C  C112  1  0.39641940  0.86340417  0.93401304  1  1.614526  0  0.240598  0.657067  0  4.127138  0
C  C113  1  0.89642316  0.63659963  0.56598876  1  1.614469  0  0.240649  0.657166  0  4.12698  0
C  C114  1  0.60357560  0.13659438  0.06598467  1  1.614342  0  0.240721  0.657121  0  4.126688  0
C  C115  1  0.10357059  0.36340966  0.43401119  1  1.613992  0  0.240718  0.657193  0  4.126833  0
C  C116  1  0.31710358  0.77813489  0.90655339  1  -0.027472  0  0.00239  0.003351  0  3.910313  0
C  C117  1  0.81710259  0.72186751  0.59344754  1  -0.027363  0  0.002466  0.003323  0  3.91046  0
C  C118  1  0.68290261  0.22186164  0.09344374  1  -0.027395  0  0.002332  0.003166  0  3.910254  0
C  C119  1  0.18289738  0.27814111  0.40655269  1  -0.027473  0  0.002288  0.003122  0  3.910378  0
C  C120  1  0.44250892  0.73617019  0.07994807  1  -0.022478  0  -0.08362  -0.140108  0  3.950327  0
C  C121  1  0.94250828  0.76382046  0.42004556  1  -0.023456  0  -0.083537  -0.139994  0  3.950277  0
C  C122  1  0.55749230  0.26382301  0.92005328  1  -0.02207  0  -0.083595  -0.140098  0  3.950292  0
C  C123  1  0.05748174  0.23617743  0.57995278  1  -0.022706  0  -0.083654  -0.140161  0  3.950321  0
C  C124  1  0.40164562  0.82697742  0.08513121  1  -0.033169  0  0.0034  0.012425  0  3.917857  0
C  C125  1  0.90164973  0.67301320  0.41486348  1  -0.033091  0  0.003381  0.012465  0  3.917987  0
C  C126  1  0.59836057  0.17301578  0.91486944  1  -0.033154  0  0.003328  0.012291  0  3.917768  0
C  C127  1  0.09834526  0.32698535  0.58513529  1  -0.033061  0  0.003462  0.012405  0  3.917943  0
C  C128  1  0.24396044  0.12048556  0.84131814  1  0.472476  0  0.036341  0.085758  0  3.900676  0
C  C129  1  0.74396112  0.37952037  0.65868359  1  0.47227  0  0.03645  0.085947  0  3.900775  0
C  C130  1  0.75603207  0.87951837  0.15868263  1  0.472342  0  0.036363  0.085776  0  3.900504  0
C  C131  1  0.25603636  0.62048690  0.34131508  1  0.47186  0  0.036328  0.085648  0  3.900689  0
C  C132  1  0.35758837  0.68487081  0.10738127  1  0.471057  0  0.032207  0.080632  0  3.936132  0
C  C133  1  0.85758658  0.81512045  0.39261384  1  0.47096  0  0.032205  0.080646  0  3.936091  0
C  C134  1  0.64240414  0.31512238  0.89261902  1  0.471024  0  0.032321  0.080969  0  3.936137  0
C  C135  1  0.14240468  0.18487744  0.60738415  1  0.470239  0  0.032281  0.080822  0  3.935996  0
C  C136  1  0.20550125  0.80793242  0.14604607  1  0.488012  0  0.033412  0.084509  0  3.939594  0
C  C137  1  0.70549416  0.69205739  0.35395028  1  0.488729  0  0.033303  0.084289  0  3.939562  0
C  C138  1  0.79450743  0.19206346  0.85395664  1  0.488085  0  0.033492  0.084559  0  3.939193  0
C  C139  1  0.29450083  0.30793915  0.64604827  1  0.488227  0  0.033323  0.084362  0  3.939335  0
C  C140  1  0.98116009  0.99355559  0.91563609  1  1.544212  0  0.214793  0.596671  0  4.210496  0
C  C141  1  0.48115894  0.50644492  0.58436359  1  1.544269  0  0.214779  0.596677  0  4.210526  0
C  C142  1  0.01884486  0.00644499  0.08436431  1  1.544128  0  0.21477  0.596586  0  4.210617  0
C  C143  1  0.51883730  0.49355699  0.41563520  1  1.544233  0  0.21472  0.596589  0  4.210493  0
C  C144  1  0.07336371  0.69400962  0.87511339  1  0.472402  0  0.039325  0.084264  0  3.912444  0
C  C145  1  0.57336046  0.80599394  0.62488730  1  0.472397  0  0.039227  0.084116  0  3.91233  0
C  C146  1  0.92664622  0.30598692  0.12488303  1  0.472791  0  0.039206  0.084041  0  3.912446  0
C  C147  1  0.42664574  0.19401603  0.37511661  1  0.473045  0  0.03932  0.084291  0  3.91221  0
C  C148  1  0.40804183  0.69856728  0.89284606  1  -0.012578  0  -0.081785  -0.139  0  3.953675  0
C  C149  1  0.90804353  0.80143854  0.60715525  1  -0.012061  0  -0.081846  -0.139028  0  3.953867  0
C  C150  1  0.59195814  0.30143060  0.10715263  1  -0.012097  0  -0.081774  -0.138956  0  3.953361  0
C  C151  1  0.09195270  0.19857008  0.39284427  1  -0.011952  0  -0.081772  -0.139111  0  3.953723  0
C  C152  1  0.14658950  0.77493674  0.89663722  1  -0.019139  0  -0.075919  -0.129874  0  3.938113  0
C  C153  1  0.64658977  0.72506822  0.60336504  1  -0.019316  0  -0.075878  -0.129774  0  3.938217  0
C  C154  1  0.85341793  0.22506113  0.10335900  1  -0.019572  0  -0.075861  -0.129705  0  3.938128  0
C  C155  1  0.35341393  0.27494175  0.39663781  1  -0.019263  0  -0.075763  -0.129639  0  3.938084  0
C  C156  1  0.11202779  0.95252097  0.83357403  1  -0.035138  0  -0.07491  -0.124191  0  3.925178  0
C  C157  1  0.61203390  0.54748329  0.66642463  1  -0.035576  0  -0.07484  -0.124162  0  3.925258  0
C  C158  1  0.88797840  0.04748296  0.16642639  1  -0.035533  0  -0.074862  -0.124171  0  3.924932  0
C  C159  1  0.38795736  0.45252264  0.33357389  1  -0.03434  0  -0.074902  -0.124276  0  3.925213  0
C  C160  1  0.21258825  0.97481284  0.79800486  1  0.470325  0  0.038785  0.087206  0  3.917367  0
C  C161  1  0.71259309  0.52519484  0.70199489  1  0.471398  0  0.038826  0.087268  0  3.917539  0
C  C162  1  0.78741545  0.02519176  0.20199846  1  0.469608  0  0.038786  0.087235  0  3.917207  0
C  C163  1  0.28740564  0.47481176  0.29800547  1  0.470483  0  0.038882  0.087206  0  3.917559  0
C  C164  1  0.32523003  0.61976214  0.87249904  1  0.420405  0  0.027049  0.073284  0  3.938606  0
C  C165  1  0.82523442  0.88024027  0.62750295  1  0.41973  0  0.027178  0.073486  0  3.938388  0
C  C166  1  0.67477616  0.38023775  0.12749599  1  0.420004  0  0.026978  0.073263  0  3.938012  0
C  C167  1  0.17476928  0.11976500  0.37249868  1  0.419738  0  0.026984  0.073419  0  3.938488  0
C  C168  1  0.17381259  0.26840292  0.02832230  1  1.406002  0  0.186057  0.323349  0  4.096665  0
C  C169  1  0.67382684  0.23159515  0.47167855  1  1.405905  0  0.186075  0.323433  0  4.096565  0
C  C170  1  0.82618240  0.73158692  0.97167727  1  1.406036  0  0.186062  0.32342  0  4.096617  0
C  C171  1  0.32617811  0.76840878  0.52832469  1  1.405827  0  0.186004  0.32336  0  4.096417  0
C  C172  1  0.15914202  0.42804434  0.02845345  1  0.241322  0  -0.139712  -0.281551  0  3.922049  0
C  C173  1  0.65915090  0.07195238  0.47154831  1  0.241159  0  -0.139673  -0.281375  0  3.922099  0
C  C174  1  0.84085920  0.57194684  0.97154697  1  0.241942  0  -0.139716  -0.281562  0  3.92198  0
C  C175  1  0.34086026  0.92804887  0.52845393  1  0.241271  0  -0.139654  -0.28149  0  3.922021  0
C  C176  1  0.92211794  0.32399429  0.99834004  1  0.221826  0  -0.133418  -0.261978  0  3.870756  0
C  C177  1  0.42212833  0.17600706  0.50166050  1  0.222012  0  -0.133429  -0.262089  0  3.870795  0
C  C178  1  0.07788079  0.67600158  0.00166020  1  0.22196  0  -0.133493  -0.262154  0  3.870967  0
C  C179  1  0.57787786  0.82399619  0.49833984  1  0.221936  0  -0.133377  -0.261831  0  3.870821  0
I  I180  1  0.46240098  0.26181621  0.76108935  1  -0.329137  0  -0.135808  -0.189914  0  2.479782  0
I  I181  1  0.96240014  0.23819054  0.73891285  1  -0.329175  0  -0.135818  -0.189915  0  2.479775  0
I  I182  1  0.53761268  0.73818972  0.23891023  1  -0.329212  0  -0.135801  -0.18993  0  2.4798  0
I  I183  1  0.03761601  0.76180802  0.26108804  1  -0.329142  0  -0.135779  -0.189898  0  2.479708  0
I  I184  1  0.17869999  0.38336063  0.88238078  1  -0.416831  0  -0.185535  -0.301381  0  1.884389  0
I  I185  1  0.67869503  0.11664457  0.61762193  1  -0.416814  0  -0.185536  -0.301397  0  1.884461  0
I  I186  1  0.82130496  0.61664061  0.11761970  1  -0.416817  0  -0.185542  -0.301366  0  1.884472  0
I  I187  1  0.32129996  0.88336002  0.38237856  1  -0.416792  0  -0.18552  -0.301366  0  1.884483  0
I  I188  1  0.22006363  0.50002659  0.74445586  1  -0.369226  0  -0.177796  -0.246053  0  1.901079  0
I  I189  1  0.72006094  0.99998379  0.75554736  1  -0.369307  0  -0.177799  -0.246081  0  1.901074  0
I  I190  1  0.77992763  0.49996860  0.25554007  1  -0.369276  0  -0.177809  -0.246075  0  1.901109  0
I  I191  1  0.27994152  0.00002416  0.24445315  1  -0.369301  0  -0.177814  -0.246065  0  1.901103  0
I  I192  1  0.23236365  0.99241984  0.67000900  1  -0.394123  0  -0.17315  -0.296634  0  1.951689  0
I  I193  1  0.73236854  0.50758519  0.82999363  1  -0.394153  0  -0.173143  -0.296572  0  1.951626  0
I  I194  1  0.76762139  0.00758745  0.32999461  1  -0.39411  0  -0.173143  -0.296569  0  1.95167  0
I  I195  1  0.26762272  0.49241136  0.17000668  1  -0.394178  0  -0.173155  -0.296617  0  1.951672  0
N  N196  1  0.23855640  0.71955450  0.13945011  1  -1.231898  0  -0.365929  -0.166832  0  3.640073  0
N  N197  1  0.73854953  0.78043668  0.36054604  1  -1.231324  0  -0.365932  -0.166949  0  3.640238  0
N  N198  1  0.76143735  0.28044138  0.86055118  1  -1.231625  0  -0.366045  -0.16708  0  3.640265  0
N  N199  1  0.26143800  0.21955986  0.63945145  1  -1.230864  0  -0.366007  -0.167  0  3.640143  0
N  N200  1  0.27864168  0.05746081  0.80161494  1  -1.223963  0  -0.359243  -0.155263  0  3.620234  0
N  N201  1  0.77864752  0.44254647  0.69838483  1  -1.22414  0  -0.359206  -0.155371  0  3.620396  0
N  N202  1  0.72135829  0.94254245  0.19838646  1  -1.222449  0  -0.35919  -0.155284  0  3.6202  0
N  N203  1  0.22134125  0.55745543  0.30161289  1  -1.223855  0  -0.359261  -0.155139  0  3.620217  0
N  N204  1  0.15978951  0.61681768  0.86400294  1  -1.213621  0  -0.363762  -0.161302  0  3.64598  0
N  N205  1  0.65979391  0.88318997  0.63599962  1  -1.213352  0  -0.363818  -0.161451  0  3.645874  0
N  N206  1  0.84021793  0.38318020  0.13599328  1  -1.213616  0  -0.363692  -0.16118  0  3.64545  0
N  N207  1  0.34021103  0.11682200  0.36400239  1  -1.213696  0  -0.36383  -0.161608  0  3.645708  0
N  N208  1  0.08963741  0.33792998  0.01854395  1  -1.192018  0  -0.276701  0.031105  0  3.706725  0
N  N209  1  0.58965149  0.16206669  0.48145886  1  -1.192014  0  -0.27674  0.030988  0  3.706396  0
N  N210  1  0.91035634  0.66206188  0.98145796  1  -1.192253  0  -0.276655  0.031263  0  3.706076  0
N  N211  1  0.41035967  0.83793455  0.51854303  1  -1.192018  0  -0.276709  0.031086  0  3.706387  0
O  O212  1  0.38873916  0.94806443  0.04514350  1  -1.203837  0  -0.40648  -0.6986  0  2.396014  0
O  O213  1  0.88873679  0.55193155  0.45485566  1  -1.203857  0  -0.406508  -0.698719  0  2.395836  0
O  O214  1  0.61126703  0.05192474  0.95485600  1  -1.203594  0  -0.406462  -0.698787  0  2.395686  0
O  O215  1  0.11126443  0.44806768  0.54514530  1  -1.203926  0  -0.406534  -0.698744  0  2.395717  0
O  O216  1  0.55145900  0.86100774  0.94208245  1  -1.183943  0  -0.382175  -0.648429  0  2.289585  0
O  O217  1  0.05145939  0.63899112  0.55792302  1  -1.183911  0  -0.382174  -0.648376  0  2.289581  0
O  O218  1  0.44854719  0.13899081  0.05791562  1  -1.183969  0  -0.382168  -0.648369  0  2.289751  0
O  O219  1  0.94853436  0.36101213  0.44207803  1  -1.183416  0  -0.382211  -0.64846  0  2.289643  0
O  O220  1  0.30007042  0.92987606  0.94825009  1  -1.205848  0  -0.390656  -0.674716  0  2.32472  0
O  O221  1  0.80006405  0.57012968  0.55174839  1  -1.20575  0  -0.390715  -0.674875  0  2.324497  0
O  O222  1  0.69993826  0.07012115  0.05174747  1  -1.205747  0  -0.390724  -0.674785  0  2.324257  0
O  O223  1  0.19992472  0.42988229  0.44825080  1  -1.205937  0  -0.390707  -0.674765  0  2.32444  0
O  O224  1  0.62584886  0.86855253  0.03944252  1  -1.185042  0  -0.377782  -0.648893  0  2.317298  0
O  O225  1  0.12584332  0.63145132  0.46056067  1  -1.185099  0  -0.377803  -0.648919  0  2.317327  0
O  O226  1  0.37415857  0.13143865  0.96055685  1  -1.185078  0  -0.377926  -0.649014  0  2.317547  0
O  O227  1  0.87415168  0.36855730  0.53944062  1  -1.185048  0  -0.377785  -0.648898  0  2.317281  0
O  O228  1  0.00330854  0.03704954  0.95930540  1  -1.2116  0  -0.413183  -0.731067  0  2.345285  0
O  O229  1  0.50330063  0.46294548  0.54069405  1  -1.211562  0  -0.413197  -0.731101  0  2.345223  0
O  O230  1  0.99669640  0.96294299  0.04069446  1  -1.211566  0  -0.413179  -0.731089  0  2.345182  0
O  O231  1  0.49669561  0.53705308  0.45930612  1  -1.211652  0  -0.41319  -0.73113  0  2.345254  0
O  O232  1  0.87285238  0.93203951  0.90606172  1  -1.153617  0  -0.35603  -0.594817  0  2.192949  0
O  O233  1  0.37284765  0.56796024  0.59393752  1  -1.153652  0  -0.356022  -0.594807  0  2.193038  0
O  O234  1  0.12714635  0.06795838  0.09393733  1  -1.15362  0  -0.355984  -0.594728  0  2.193097  0
O  O235  1  0.62714859  0.43204166  0.40606056  1  -1.153573  0  -0.355972  -0.594772  0  2.193036  0
O  O236  1  0.11339760  0.19121365  0.02310148  1  -1.168768  0  -0.362619  -0.532506  0  2.395527  0
O  O237  1  0.61341577  0.30878236  0.47689843  1  -1.168735  0  -0.362561  -0.532471  0  2.395669  0
O  O238  1  0.88658495  0.80877618  0.97689597  1  -1.168602  0  -0.362604  -0.532575  0  2.395828  0
O  O239  1  0.38658917  0.69121889  0.52310487  1  -1.168678  0  -0.362593  -0.532502  0  2.395632  0
