# generated using pymatgen
data_NiH18C22(NO3)2
_symmetry_space_group_name_H-M   'P 1'
_cell_length_a   9.41913506
_cell_length_b   9.58543086
_cell_length_c   11.16727614
_cell_angle_alpha   90.00009926
_cell_angle_beta   89.99984247
_cell_angle_gamma   105.86769771
_symmetry_Int_Tables_number   1
_chemical_formula_structural   NiH18C22(NO3)2
_chemical_formula_sum   'Ni2 H36 C44 N4 O12'
_cell_volume   969.83501818
_cell_formula_units_Z   2
loop_
 _symmetry_equiv_pos_site_id
 _symmetry_equiv_pos_as_xyz
  1  'x, y, z'
loop_
 _atom_site_type_symbol
 _atom_site_label
 _atom_site_symmetry_multiplicity
 _atom_site_fract_x
 _atom_site_fract_y
 _atom_site_fract_z
 _atom_site_occupancy
 _atom_site_pbe_cm5_charge
 _atom_site_pbe_ddec_charge
 _atom_site_pbe_ddec_spin_density
 _atom_site_pbe_ddec_sum_bond_order
 _atom_site_pbe_magmom
Ni  Ni0  1  0.24999543  0.49999611  0.91398932  1  0.614125  0.752699  -0.039589  2.431084  -0.036
Ni  Ni1  1  0.75000397  0.50000253  0.08600978  1  0.614137  0.752872  -0.039587  2.430896  -0.036
H  H2  1  0.19413644  0.73055789  0.88060094  1  0.285931  0.361224  -0.000446  0.998019  0.0
H  H3  1  0.69414937  0.73056859  0.11939596  1  0.285923  0.361267  -0.000446  0.997955  0.0
H  H4  1  0.80585187  0.26943233  0.11939190  1  0.285941  0.361288  -0.000446  0.997924  0.0
H  H5  1  0.30585939  0.26943633  0.88060315  1  0.285923  0.361231  -0.000446  0.997998  0.0
H  H6  1  0.06681389  0.66068985  0.98197937  1  0.290935  0.385322  -0.001024  0.957973  -0.001
H  H7  1  0.56682264  0.66069619  0.01802128  1  0.290957  0.385343  -0.001024  0.95794  -0.001
H  H8  1  0.93317791  0.33930136  0.01801973  1  0.290937  0.385301  -0.001024  0.958003  -0.001
H  H9  1  0.43318717  0.33930870  0.98197693  1  0.290936  0.385291  -0.001024  0.958007  -0.001
H  H10  1  0.10206502  0.62462215  0.71943364  1  0.12155  0.102402  0.000691  1.026867  0.001
H  H11  1  0.60206172  0.62463023  0.28056420  1  0.121551  0.102383  0.000691  1.026732  0.001
H  H12  1  0.89794844  0.37537387  0.28055651  1  0.121525  0.102315  0.000691  1.026828  0.001
H  H13  1  0.39794421  0.37537587  0.71943312  1  0.121537  0.102369  0.000691  1.026648  0.001
H  H14  1  0.10588466  0.64023994  0.49665685  1  0.105804  0.112523  0.000383  1.027592  0.0
H  H15  1  0.60589939  0.64024003  0.50334100  1  0.10577  0.112464  0.000383  1.027689  0.0
H  H16  1  0.89412316  0.35975845  0.50333688  1  0.105779  0.112509  0.000383  1.027533  0.0
H  H17  1  0.39411905  0.35975146  0.49665363  1  0.105794  0.112544  0.000383  1.027418  0.0
H  H18  1  0.19781174  0.26587989  0.32598010  1  0.108086  0.11794  0.000385  1.019986  0.0
H  H19  1  0.69782689  0.26588672  0.67402861  1  0.108108  0.118025  0.000385  1.020024  0.0
H  H20  1  0.80219380  0.73410762  0.67401990  1  0.108132  0.118016  0.000385  1.020124  0.0
H  H21  1  0.30217600  0.73411291  0.32597676  1  0.108119  0.11802  0.000385  1.020075  0.0
H  H22  1  0.19683204  0.27538387  0.10335734  1  0.12002  0.08787  0.000775  1.016971  0.001
H  H23  1  0.69683715  0.27538467  0.89665139  1  0.119991  0.087859  0.000775  1.016776  0.001
H  H24  1  0.80317943  0.72462644  0.89664445  1  0.119979  0.08787  0.000775  1.016862  0.001
H  H25  1  0.30315045  0.72460667  0.10335846  1  0.120029  0.08794  0.000775  1.016897  0.001
H  H26  1  0.62410308  0.92019897  0.04493218  1  0.107766  0.116281  -0.000449  1.002766  0.0
H  H27  1  0.12410511  0.92020321  0.95507321  1  0.107765  0.116309  -0.000449  1.002723  0.0
H  H28  1  0.37589847  0.07979633  0.95507498  1  0.107756  0.11626  -0.000449  1.002874  0.0
H  H29  1  0.87589029  0.07978242  0.04493126  1  0.107761  0.116279  -0.000449  1.002838  0.0
H  H30  1  0.48719537  0.85132083  0.63039376  1  0.100262  0.106979  3e-05  1.026168  0.0
H  H31  1  0.98721933  0.85133910  0.36962147  1  0.10029  0.10701  3e-05  1.026206  0.0
H  H32  1  0.51280097  0.14867134  0.36961340  1  0.100293  0.107009  3e-05  1.02615  0.0
H  H33  1  0.01277059  0.14865983  0.63037943  1  0.100325  0.107048  3e-05  1.026307  0.0
H  H34  1  0.61879149  0.92747844  0.43797791  1  0.103716  0.109605  -5e-06  0.99153  0.0
H  H35  1  0.11882270  0.92748686  0.56202214  1  0.103639  0.109554  -5e-06  0.991603  0.0
H  H36  1  0.38119838  0.07252377  0.56202657  1  0.103724  0.10961  -5e-06  0.991629  0.0
H  H37  1  0.88116585  0.07253181  0.43797338  1  0.103664  0.109618  -5e-06  0.991585  0.0
C  C38  1  0.16909515  0.57138489  0.66673490  1  0.048905  0.098249  0.000424  3.911263  0.0
C  C39  1  0.66909916  0.57138623  0.33326897  1  0.048927  0.098358  0.000424  3.910896  0.0
C  C40  1  0.83091199  0.42861133  0.33326868  1  0.049022  0.098505  0.000424  3.910682  0.0
C  C41  1  0.33090395  0.42862105  0.66673461  1  0.048986  0.098369  0.000424  3.910987  0.0
C  C42  1  0.16997004  0.57759874  0.54240468  1  -0.085345  -0.182536  0.001769  3.963472  0.001
C  C43  1  0.66998497  0.57759550  0.45760636  1  -0.085574  -0.182774  0.001768  3.963255  0.001
C  C44  1  0.83003346  0.42240634  0.45760248  1  -0.085398  -0.182627  0.001768  3.963264  0.001
C  C45  1  0.33003298  0.42240477  0.54239990  1  -0.085362  -0.182604  0.00177  3.963012  0.001
C  C46  1  0.24999217  0.50000036  0.47729286  1  0.009298  0.102876  -0.000705  3.996589  -0.001
C  C47  1  0.75001110  0.49999707  0.52272057  1  0.009543  0.103107  -0.000704  3.996592  -0.001
C  C48  1  0.24999448  0.50000022  0.34506187  1  0.01168  0.102991  -0.000637  3.9917  0.0
C  C49  1  0.75001711  0.50000352  0.65493455  1  0.011674  0.103011  -0.000637  3.992393  0.0
C  C50  1  0.22133412  0.37016571  0.28034683  1  -0.079124  -0.169521  0.001281  3.917287  0.001
C  C51  1  0.72135483  0.37016694  0.71965304  1  -0.079048  -0.169459  0.001279  3.917349  0.001
C  C52  1  0.77866738  0.62983287  0.71964780  1  -0.079171  -0.169637  0.001279  3.917789  0.001
C  C53  1  0.27864795  0.62983925  0.28034248  1  -0.079058  -0.169456  0.001281  3.917292  0.001
C  C54  1  0.22088590  0.37470742  0.15595034  1  0.056818  0.118609  0.000399  3.910444  0.0
C  C55  1  0.72089598  0.37471348  0.84404864  1  0.05678  0.118513  0.0004  3.910472  0.0
C  C56  1  0.77911837  0.62529326  0.84404608  1  0.056873  0.11864  0.000399  3.910339  0.0
C  C57  1  0.27910092  0.62528743  0.15594867  1  0.056726  0.118431  0.0004  3.910617  0.0
C  C58  1  0.45176081  0.80592356  0.86029943  1  0.211956  0.577126  0.001072  4.200596  0.0
C  C59  1  0.95176254  0.80592914  0.13970507  1  0.211969  0.577105  0.001075  4.200798  0.0
C  C60  1  0.54824490  0.19407489  0.13970147  1  0.211932  0.577154  0.001075  4.20098  0.0
C  C61  1  0.04820899  0.19405831  0.86029404  1  0.21184  0.576854  0.001075  4.201122  0.0
C  C62  1  0.60382913  0.90900674  0.85314271  1  -0.015612  -0.079609  0.003922  3.959878  0.003
C  C63  1  0.10382533  0.90900376  0.14686630  1  -0.015645  -0.079646  0.003924  3.959877  0.003
C  C64  1  0.39617703  0.09100701  0.14686266  1  -0.015647  -0.079706  0.003924  3.959874  0.003
C  C65  1  0.89616198  0.09098321  0.85312564  1  -0.015541  -0.07945  0.003918  3.960106  0.003
C  C66  1  0.67789694  0.95377744  0.95929478  1  -0.092953  -0.110602  0.000196  4.014302  0.0
C  C67  1  0.17789852  0.95378731  0.04071503  1  -0.092965  -0.110619  0.000197  4.014322  0.0
C  C68  1  0.32211170  0.04621326  0.04070880  1  -0.092872  -0.110452  0.000198  4.01419  0.0
C  C69  1  0.82210719  0.04621113  0.95929124  1  -0.092872  -0.110449  0.000197  4.014066  0.0
C  C70  1  0.67464282  0.95568877  0.74136071  1  -0.007669  0.045151  0.000836  3.975921  0.001
C  C71  1  0.17463919  0.95569794  0.25864463  1  -0.007704  0.045018  0.000837  3.9758  0.001
C  C72  1  0.32535552  0.04430990  0.25863839  1  -0.007662  0.045134  0.000837  3.975794  0.001
C  C73  1  0.82534919  0.04430979  0.74135000  1  -0.007791  0.044728  0.000836  3.976216  0.001
C  C74  1  0.60245494  0.91514913  0.62976596  1  -0.095906  -0.148014  0.000141  4.002356  0.0
C  C75  1  0.10246792  0.91517213  0.37024306  1  -0.095984  -0.147944  0.000141  4.002857  0.0
C  C76  1  0.39753907  0.08483545  0.37023673  1  -0.095928  -0.148055  0.000141  4.002497  0.0
C  C77  1  0.89751681  0.08484447  0.62975335  1  -0.095934  -0.147774  0.000141  4.002893  0.0
C  C78  1  0.67550437  0.95789358  0.52308994  1  -0.095193  -0.08887  0.000372  4.032632  0.0
C  C79  1  0.17552664  0.95788576  0.47691093  1  -0.095159  -0.089044  0.000372  4.032962  0.0
C  C80  1  0.32448273  0.04210653  0.47691275  1  -0.095225  -0.088965  0.000373  4.032687  0.0
C  C81  1  0.82445648  0.04212213  0.52308370  1  -0.095208  -0.089222  0.000372  4.033182  0.0
N  N82  1  0.24999948  0.50000136  0.72903017  1  -0.315852  -0.196339  0.031637  3.519745  0.03
N  N83  1  0.75000756  0.50000142  0.27096894  1  -0.315854  -0.196484  0.031617  3.519268  0.03
N  N84  1  0.24999453  0.49999900  0.09419586  1  -0.324552  -0.200955  0.033515  3.556303  0.031
N  N85  1  0.75000309  0.50000079  0.90580145  1  -0.324569  -0.201002  0.033493  3.556361  0.031
O  O86  1  0.44532877  0.68581048  0.91490711  1  -0.304839  -0.560556  0.031269  2.346516  0.033
O  O87  1  0.94531837  0.68581748  0.08508826  1  -0.304848  -0.560606  0.0313  2.346568  0.033
O  O88  1  0.55468707  0.31418984  0.08509468  1  -0.304859  -0.560581  0.031301  2.346594  0.033
O  O89  1  0.05466606  0.31417396  0.91489830  1  -0.304818  -0.560455  0.031261  2.346618  0.033
O  O90  1  0.34290413  0.84091912  0.81683687  1  -0.311385  -0.531774  0.000718  2.155285  0.001
O  O91  1  0.84291086  0.84091037  0.18316613  1  -0.311367  -0.531692  0.000718  2.155511  0.001
O  O92  1  0.65709639  0.15909700  0.18316044  1  -0.31132  -0.531704  0.000718  2.155674  0.001
O  O93  1  0.15709076  0.15910243  0.81684372  1  -0.311417  -0.531776  0.000717  2.155291  0.001
O  O94  1  0.11870799  0.64017369  0.90856122  1  -0.571042  -0.748309  -0.054846  2.253896  -0.057
O  O95  1  0.61871325  0.64018678  0.09144018  1  -0.571046  -0.748438  -0.054864  2.253929  -0.057
O  O96  1  0.88128946  0.35981516  0.09143878  1  -0.571061  -0.748384  -0.054868  2.253816  -0.057
O  O97  1  0.38128875  0.35982382  0.90856250  1  -0.571029  -0.74829  -0.054848  2.253937  -0.057
