# generated using pymatgen
data_CsKH2C11(NO)4
_symmetry_space_group_name_H-M   'P 1'
_cell_length_a   8.36607535
_cell_length_b   9.29227198
_cell_length_c   10.61882862
_cell_angle_alpha   115.25313922
_cell_angle_beta   100.86168871
_cell_angle_gamma   104.34879457
_symmetry_Int_Tables_number   1
_chemical_formula_structural   CsKH2C11(NO)4
_chemical_formula_sum   'Cs2 K2 H4 C22 N8 O8'
_cell_volume   681.34263966
_cell_formula_units_Z   2
loop_
 _symmetry_equiv_pos_site_id
 _symmetry_equiv_pos_as_xyz
  1  'x, y, z'
loop_
 _atom_site_type_symbol
 _atom_site_label
 _atom_site_symmetry_multiplicity
 _atom_site_fract_x
 _atom_site_fract_y
 _atom_site_fract_z
 _atom_site_occupancy
 _atom_site_hle17_bader_spin_density
 _atom_site_hle17_ddec_charge
 _atom_site_hle17_ddec_spin_density
 _atom_site_hle17_ddec_sum_bond_order
 _atom_site_hle17_magmom
 _atom_site_hse06_10hf_bader_spin_density
 _atom_site_hse06_10hf_ddec_charge
 _atom_site_hse06_10hf_ddec_spin_density
 _atom_site_hse06_10hf_ddec_sum_bond_order
 _atom_site_hse06_10hf_magmom
 _atom_site_hse06_bader_spin_density
 _atom_site_hse06_ddec_charge
 _atom_site_hse06_ddec_spin_density
 _atom_site_hse06_ddec_sum_bond_order
 _atom_site_hse06_magmom
 _atom_site_pbe_bader_spin_density
 _atom_site_pbe_cm5_charge
 _atom_site_pbe_ddec_charge
 _atom_site_pbe_ddec_spin_density
 _atom_site_pbe_ddec_sum_bond_order
 _atom_site_pbe_magmom
Cs  Cs0  1  0.86989824  0.19736490  0.60052083  1  0  0.955699  0  0.514075  0  0  0.907103  0  0.734808  0  0  0.917818  0  0.716404  0  0  0.883053  0.898246  0  0.748857  0
Cs  Cs1  1  0.13010230  0.80263370  0.39948029  1  0  0.955696  0  0.514064  0  0  0.907106  0  0.734782  0  0  0.917818  0  0.716382  0  0  0.883026  0.898243  0  0.74883  0
K  K2  1  0.41290590  0.37575467  0.78936738  1  0  0.916525  0  0.487927  0  0  0.858388  0  0.692384  0  0  0.873328  0  0.669297  0  0  0.822145  0.847295  0  0.70909  0
K  K3  1  0.58710170  0.62424646  0.21063855  1  0  0.916525  0  0.487924  0  0  0.858393  0  0.692362  0  0  0.873334  0  0.669275  0  0  0.822133  0.847296  0  0.709066  0
H  H4  1  0.12671754  0.42886713  0.98623308  1  0  0.42063  0  0.858402  0  0  0.39647  0  0.919573  0  0  0.404543  0  0.907572  0  0  0.308099  0.390715  0  0.928142  0
H  H5  1  0.87328570  0.57113530  0.01376515  1  0  0.420629  0  0.858431  0  0  0.396478  0  0.919586  0  0  0.404554  0  0.907578  0  0  0.308084  0.39072  0  0.92816  0
H  H6  1  0.15420802  0.58274896  0.95734894  1  0  0.425626  0  0.870438  0  0  0.399142  0  0.927353  0  0  0.408283  0  0.913899  0  0  0.299477  0.392725  0  0.936788  0
H  H7  1  0.84578694  0.41725095  0.04264619  1  0  0.425644  0  0.870415  0  0  0.399162  0  0.927328  0  0  0.408302  0  0.913876  0  0  0.299471  0.39275  0  0.936758  0
C  C8  1  0.07206319  0.89503306  0.84642347  1  0  -0.112098  0  3.764424  0  0  -0.120282  0  4.021356  0  0  -0.121056  0  4.043501  0  0  -0.006819  -0.11954  0  4.006483  0
C  C9  1  0.92793834  0.10496811  0.15357969  1  0  -0.112076  0  3.764399  0  0  -0.120289  0  4.021343  0  0  -0.121072  0  4.04351  0  0  -0.006818  -0.119527  0  4.006445  0
C  C10  1  0.16809446  0.89869845  0.97849581  1  0  0.349369  0  3.877445  0  0  0.324301  0  4.161753  0  0  0.338931  0  4.176559  0  0  0.126906  0.31411  0  4.151763  0
C  C11  1  0.83190415  0.10130145  0.02150456  1  0  0.349455  0  3.877412  0  0  0.32442  0  4.161716  0  0  0.339055  0  4.176517  0  0  0.126979  0.314226  0  4.151726  0
C  C12  1  0.32752973  0.05293617  0.05701300  1  0  -0.118998  0  3.772746  0  0  -0.127843  0  4.032008  0  0  -0.12853  0  4.053642  0  0  -0.007581  -0.127078  0  4.017316  0
C  C13  1  0.67247252  0.94706370  0.94298697  1  0  -0.118951  0  3.772742  0  0  -0.127841  0  4.032039  0  0  -0.128509  0  4.053675  0  0  -0.007553  -0.127085  0  4.017359  0
C  C14  1  0.33018754  0.14553168  0.97614594  1  0  0.28295  0  3.872059  0  0  0.26594  0  4.143886  0  0  0.280967  0  4.153685  0  0  0.118109  0.255871  0  4.136909  0
C  C15  1  0.66981472  0.85446820  0.02385591  1  0  0.283059  0  3.87194  0  0  0.265998  0  4.143853  0  0  0.281045  0  4.153622  0  0  0.118048  0.255928  0  4.136882  0
C  C16  1  0.17228267  0.04092670  0.83900636  1  0  0.27973  0  3.860922  0  0  0.264298  0  4.130079  0  0  0.279296  0  4.139477  0  0  0.115766  0.254027  0  4.123439  0
C  C17  1  0.82771715  0.95907320  0.16099418  1  0  0.279644  0  3.860929  0  0  0.264255  0  4.130067  0  0  0.279239  0  4.139486  0  0  0.115766  0.253982  0  4.123424  0
C  C18  1  0.91056721  0.77074207  0.74248656  1  0  -0.090694  0  3.909134  0  0  -0.074622  0  4.147647  0  0  -0.085252  0  4.16876  0  0  -0.003874  -0.067639  0  4.133394  0
C  C19  1  0.08943432  0.22925909  0.25751566  1  0  -0.090697  0  3.90902  0  0  -0.074626  0  4.147556  0  0  -0.08525  0  4.168673  0  0  -0.003883  -0.067648  0  4.133297  0
C  C20  1  0.82029190  0.62765177  0.75172811  1  0  0.320981  0  3.809236  0  0  0.30197  0  4.081131  0  0  0.315591  0  4.098687  0  0  0.195917  0.292657  0  4.06937  0
C  C21  1  0.17970864  0.37234683  0.24827018  1  0  0.320958  0  3.809322  0  0  0.301951  0  4.081215  0  0  0.31557  0  4.09877  0  0  0.195895  0.29263  0  4.069455  0
C  C22  1  0.82515255  0.78122369  0.62033157  1  0  0.310374  0  3.825801  0  0  0.291062  0  4.101749  0  0  0.304723  0  4.119021  0  0  0.191268  0.281614  0  4.090158  0
C  C23  1  0.17485118  0.21878003  0.37967286  1  0  0.310282  0  3.825852  0  0  0.290975  0  4.101802  0  0  0.304634  0  4.119074  0  0  0.191237  0.281528  0  4.090214  0
C  C24  1  0.45733816  0.10206706  0.18678893  1  0  -0.07408  0  3.894068  0  0  -0.056018  0  4.126986  0  0  -0.064653  0  4.147216  0  0  -0.001827  -0.049998  0  4.113323  0
C  C25  1  0.54266458  0.89793409  0.81321158  1  0  -0.074153  0  3.894226  0  0  -0.056001  0  4.127027  0  0  -0.064696  0  4.147336  0  0  -0.001829  -0.04998  0  4.113364  0
C  C26  1  0.45491276  0.99842836  0.25328633  1  0  0.305327  0  3.810813  0  0  0.285689  0  4.086163  0  0  0.298845  0  4.103388  0  0  0.190771  0.276494  0  4.074727  0
C  C27  1  0.54508825  0.00156513  0.74672050  1  0  0.305138  0  3.810836  0  0  0.285485  0  4.086167  0  0  0.298663  0  4.10341  0  0  0.190637  0.27629  0  4.074726  0
C  C28  1  0.60712671  0.25629928  0.26080134  1  0  0.273582  0  3.80035  0  0  0.258373  0  4.074696  0  0  0.269228  0  4.094407  0  0  0.186808  0.251008  0  4.06118  0
C  C29  1  0.39286163  0.74368656  0.73919134  1  0  0.273742  0  3.800441  0  0  0.258507  0  4.074758  0  0  0.269378  0  4.094478  0  0  0.186918  0.251149  0  4.061239  0
N  N30  1  0.73804176  0.50569734  0.75200629  1  0  -0.510113  0  2.65954  0  0  -0.4826  0  2.901176  0  0  -0.494894  0  2.909898  0  0  -0.452008  -0.47428  0  2.895597  0
N  N31  1  0.26195537  0.49429870  0.24798677  1  0  -0.510108  0  2.659669  0  0  -0.482593  0  2.901285  0  0  -0.494885  0  2.910007  0  0  -0.451986  -0.474271  0  2.895699  0
N  N32  1  0.74988287  0.78552665  0.51787099  1  0  -0.514495  0  2.664558  0  0  -0.491514  0  2.912291  0  0  -0.504088  0  2.921653  0  0  -0.454217  -0.482855  0  2.906464  0
N  N33  1  0.25011794  0.21447580  0.48213066  1  0  -0.514379  0  2.664658  0  0  -0.491398  0  2.912387  0  0  -0.503972  0  2.92175  0  0  -0.454162  -0.48274  0  2.906564  0
N  N34  1  0.46781679  0.92001747  0.31413095  1  0  -0.497055  0  2.658601  0  0  -0.476187  0  2.912041  0  0  -0.487377  0  2.921281  0  0  -0.451274  -0.468608  0  2.906691  0
N  N35  1  0.53218477  0.07999010  0.68586894  1  0  -0.496959  0  2.658057  0  0  -0.476092  0  2.911503  0  0  -0.487284  0  2.920743  0  0  -0.451197  -0.468513  0  2.906152  0
N  N36  1  0.73584520  0.37894065  0.32933049  1  0  -0.43116  0  2.55933  0  0  -0.41378  0  2.779488  0  0  -0.42374  0  2.792898  0  0  -0.316161  -0.406559  0  2.770069  0
N  N37  1  0.26416558  0.62106558  0.67067405  1  0  -0.431211  0  2.559834  0  0  -0.413827  0  2.780007  0  0  -0.42378  0  2.793407  0  0  -0.316233  -0.40661  0  2.770591  0
O  O38  1  0.12199317  0.79078139  0.01873204  1  0  -0.515498  0  1.963848  0  0  -0.463662  0  2.172968  0  0  -0.484034  0  2.172328  0  0  -0.278432  -0.449293  0  2.173326  0
O  O39  1  0.87800449  0.20922238  0.98127245  1  0  -0.515543  0  1.963758  0  0  -0.463746  0  2.172901  0  0  -0.484114  0  2.172256  0  0  -0.278483  -0.449379  0  2.173263  0
O  O40  1  0.44270657  0.28412471  0.00957544  1  0  -0.533947  0  2.022069  0  0  -0.489625  0  2.247655  0  0  -0.507138  0  2.245903  0  0  -0.389658  -0.47706  0  2.248614  0
O  O41  1  0.55729446  0.71587517  0.99042623  1  0  -0.534024  0  2.02198  0  0  -0.489675  0  2.247585  0  0  -0.507193  0  2.245822  0  0  -0.389651  -0.477109  0  2.248545  0
O  O42  1  0.13992197  0.07519957  0.73730754  1  0  -0.56136  0  2.02273  0  0  -0.51851  0  2.251707  0  0  -0.536455  0  2.250778  0  0  -0.399323  -0.505396  0  2.252149  0
O  O43  1  0.86007786  0.92480032  0.26269395  1  0  -0.56133  0  2.022596  0  0  -0.518485  0  2.251559  0  0  -0.536428  0  2.250637  0  0  -0.399306  -0.505374  0  2.252004  0
O  O44  1  0.15234306  0.46502261  0.91609767  1  0  -0.881301  0  1.772191  0  0  -0.838095  0  1.927711  0  0  -0.854339  0  1.901126  0  0  -0.677136  -0.826448  0  1.946356  0
O  O45  1  0.84764607  0.53497476  0.08389376  1  0  -0.881334  0  1.772213  0  0  -0.838159  0  1.927651  0  0  -0.854404  0  1.901065  0  0  -0.677102  -0.826511  0  1.946295  0
