# generated using pymatgen
data_Li9H29C18O19
_symmetry_space_group_name_H-M   'P 1'
_cell_length_a   9.66672178
_cell_length_b   9.86777870
_cell_length_c   37.10628396
_cell_angle_alpha   89.99999362
_cell_angle_beta   89.99999039
_cell_angle_gamma   92.68109873
_symmetry_Int_Tables_number   1
_chemical_formula_structural   Li9H29C18O19
_chemical_formula_sum   'Li36 H116 C72 O76'
_cell_volume   3535.65945047
_cell_formula_units_Z   4
loop_
 _symmetry_equiv_pos_site_id
 _symmetry_equiv_pos_as_xyz
  1  'x, y, z'
loop_
 _atom_site_type_symbol
 _atom_site_label
 _atom_site_symmetry_multiplicity
 _atom_site_fract_x
 _atom_site_fract_y
 _atom_site_fract_z
 _atom_site_occupancy
 _atom_site_pbe_bader_charge
 _atom_site_pbe_bader_spin_density
 _atom_site_pbe_cm5_charge
 _atom_site_pbe_ddec_charge
 _atom_site_pbe_ddec_spin_density
 _atom_site_pbe_ddec_sum_bond_order
 _atom_site_pbe_magmom
Li  Li0  1  0.66584670  0.53411611  0.39783933  1  0.857522  0  0.530349  0.801774  0  0.540749  0
Li  Li1  1  0.83415352  0.46588151  0.89783900  1  0.857518  0  0.53036  0.801779  0  0.540737  0
Li  Li2  1  0.33415382  0.46588393  0.60216080  1  0.857512  0  0.530343  0.801774  0  0.540759  0
Li  Li3  1  0.16584602  0.53411955  0.10216058  1  0.857517  0  0.530348  0.801773  0  0.540761  0
Li  Li4  1  0.86718157  0.95231984  0.49653150  1  0.857469  0  0.546106  0.811423  0  0.530462  0
Li  Li5  1  0.63281864  0.04767876  0.99653200  1  0.857474  0  0.546095  0.811427  0  0.530455  0
Li  Li6  1  0.13281984  0.04767717  0.50346809  1  0.85747  0  0.546111  0.811432  0  0.530459  0
Li  Li7  1  0.36717868  0.95231926  0.00346812  1  0.857467  0  0.54611  0.811416  0  0.53047  0
Li  Li8  1  0.56073107  0.80967771  0.41726704  1  0.861459  0  0.524775  0.805419  0  0.52888  0
Li  Li9  1  0.93926924  0.19032194  0.91726752  1  0.861454  0  0.524797  0.805419  0  0.528879  0
Li  Li10  1  0.43926936  0.19032031  0.58273309  1  0.861455  0  0.524773  0.80543  0  0.528869  0
Li  Li11  1  0.06072931  0.80968014  0.08273233  1  0.861455  0  0.524777  0.805431  0  0.528861  0
Li  Li12  1  0.65981561  0.10045026  0.45260904  1  0.87254  0  0.504271  0.810789  0  0.485664  0
Li  Li13  1  0.84018364  0.89954937  0.95260897  1  0.872539  0  0.504269  0.810787  0  0.485664  0
Li  Li14  1  0.34018378  0.89954776  0.54739082  1  0.872529  0  0.504263  0.81079  0  0.485654  0
Li  Li15  1  0.15981594  0.10045271  0.04739062  1  0.872534  0  0.504256  0.810789  0  0.485644  0
Li  Li16  1  0.76394744  0.25009924  0.32710091  1  0.859807  0  0.532606  0.805244  0  0.524115  0
Li  Li17  1  0.73604987  0.74990146  0.82710139  1  0.859799  0  0.5326  0.805238  0  0.524158  0
Li  Li18  1  0.23605204  0.74990081  0.67289922  1  0.859827  0  0.532604  0.805247  0  0.524114  0
Li  Li19  1  0.26394859  0.25009859  0.17289874  1  0.859805  0  0.532596  0.805234  0  0.524136  0
Li  Li20  1  0.40280883  0.14309724  0.50112293  1  0.857267  0  0.542762  0.805302  0  0.532067  0
Li  Li21  1  0.09718974  0.85690021  0.00112217  1  0.857278  0  0.542746  0.805304  0  0.532073  0
Li  Li22  1  0.59719164  0.85690179  0.49887693  1  0.857263  0  0.542759  0.805297  0  0.532051  0
Li  Li23  1  0.90280876  0.14310086  0.99887796  1  0.857276  0  0.542755  0.805313  0  0.532046  0
Li  Li24  1  0.91353019  0.44160465  0.27515472  1  0.857626  0  0.524514  0.800705  0  0.536511  0
Li  Li25  1  0.58647026  0.55839607  0.77515494  1  0.857626  0  0.524527  0.800716  0  0.536482  0
Li  Li26  1  0.08647038  0.55839641  0.72484541  1  0.85761  0  0.52453  0.800713  0  0.53649  0
Li  Li27  1  0.41352928  0.44160499  0.22484519  1  0.857624  0  0.524524  0.800729  0  0.536457  0
Li  Li28  1  0.12561498  0.30327473  0.23090158  1  0.860205  0  0.539445  0.810141  0  0.52272  0
Li  Li29  1  0.37438670  0.69672565  0.73090179  1  0.860202  0  0.539446  0.810129  0  0.522758  0
Li  Li30  1  0.87438564  0.69672734  0.76909881  1  0.860206  0  0.53942  0.810126  0  0.522738  0
Li  Li31  1  0.62561382  0.30327440  0.26909807  1  0.860207  0  0.539448  0.810123  0  0.522756  0
Li  Li32  1  0.76078354  0.29118636  0.40399301  1  0.850951  0  0.544032  0.796511  0  0.56084  0
Li  Li33  1  0.73921466  0.70881227  0.90399268  1  0.850951  0  0.544017  0.796517  0  0.560814  0
Li  Li34  1  0.23921693  0.70881267  0.59600739  1  0.850954  0  0.544026  0.796528  0  0.56081  0
Li  Li35  1  0.26078493  0.29118980  0.09600691  1  0.85096  0  0.544024  0.796538  0  0.560782  0
H  H36  1  0.84635430  0.49465610  0.47076633  1  0.050146  0  0.11485  0.161953  0  0.989479  0
H  H37  1  0.65364597  0.50534352  0.97076628  1  0.050148  0  0.114868  0.161987  0  0.989424  0
H  H38  1  0.15364725  0.50534395  0.52923380  1  0.050131  0  0.114847  0.161955  0  0.98944  0
H  H39  1  0.34635352  0.49465653  0.02923358  1  0.050145  0  0.114848  0.161965  0  0.98944  0
H  H40  1  0.96863793  0.62828307  0.48322809  1  0.023715  0  0.09783  0.141353  0  1.024339  0
H  H41  1  0.53136130  0.37171655  0.98322832  1  0.023701  0  0.097829  0.141317  0  1.024351  0
H  H42  1  0.03136254  0.37171596  0.51677176  1  0.023726  0  0.097823  0.14132  0  1.024416  0
H  H43  1  0.46863819  0.62828350  0.01677153  1  0.023714  0  0.097822  0.14131  0  1.024377  0
H  H44  1  0.94429770  0.57680900  0.43671387  1  0.086909  0  0.109541  0.161456  0  1.016091  0
H  H45  1  0.55570156  0.42319064  0.93671383  1  0.086921  0  0.109542  0.16144  0  1.016097  0
H  H46  1  0.05570277  0.42319004  0.56328625  1  0.086914  0  0.109499  0.161391  0  1.016098  0
H  H47  1  0.44429798  0.57681042  0.06328603  1  0.08693  0  0.109522  0.16143  0  1.016042  0
H  H48  1  0.34201367  0.71215564  0.23728917  1  0.072509  0  0.101301  0.149772  0  1.046935  0
H  H49  1  0.15799218  0.28784575  0.73728913  1  0.072581  0  0.101229  0.149659  0  1.046991  0
H  H50  1  0.65799202  0.28784440  0.76271123  1  0.07259  0  0.101239  0.149656  0  1.046994  0
H  H51  1  0.84200839  0.71215531  0.26271100  1  0.07258  0  0.101236  0.149653  0  1.047001  0
H  H52  1  0.18305391  0.79832685  0.24441357  1  0.0482  0  0.091987  0.140624  0  1.015678  0
H  H53  1  0.31695086  0.20167353  0.74441326  1  0.048161  0  0.091975  0.140586  0  1.01571  0
H  H54  1  0.81695075  0.20167320  0.75558682  1  0.048163  0  0.091977  0.140598  0  1.015692  0
H  H55  1  0.68304971  0.79832753  0.25558660  1  0.048148  0  0.09197  0.14058  0  1.01571  0
H  H56  1  0.21388182  0.71201502  0.20318983  1  0.065077  0  0.104013  0.156003  0  1.008213  0
H  H57  1  0.28611982  0.28798436  0.70318897  1  0.065023  0  0.104013  0.155965  0  1.00825  0
H  H58  1  0.78612072  0.28798401  0.79681111  1  0.065017  0  0.104021  0.155961  0  1.008323  0
H  H59  1  0.71387976  0.71201772  0.29681062  1  0.065044  0  0.104028  0.155994  0  1.008198  0
H  H60  1  0.90877088  0.94516754  0.26690705  1  0.064815  0  0.104676  0.159695  0  0.999785  0
H  H61  1  0.59123061  0.05483318  0.76690702  1  0.064797  0  0.104661  0.159668  0  0.999825  0
H  H62  1  0.09122969  0.05483352  0.73309308  1  0.064803  0  0.104659  0.159673  0  0.9998  0
H  H63  1  0.40877099  0.94516788  0.23309311  1  0.064814  0  0.104682  0.159699  0  0.999801  0
H  H64  1  0.01911438  0.02843695  0.23400942  1  0.066798  0  0.104038  0.147102  0  1.024875  0
H  H65  1  0.48088641  0.97156648  0.73400934  1  0.066801  0  0.104035  0.147093  0  1.024897  0
H  H66  1  0.98088531  0.97156716  0.76599098  1  0.066383  0  0.104023  0.147081  0  1.024904  0
H  H67  1  0.51911520  0.02843458  0.26599105  1  0.066371  0  0.104026  0.147079  0  1.024889  0
H  H68  1  0.83867521  0.99170006  0.22519309  1  0.055172  0  0.106346  0.157905  0  0.980092  0
H  H69  1  0.66132626  0.00829967  0.72519386  1  0.055193  0  0.106343  0.157905  0  0.980136  0
H  H70  1  0.16132433  0.00830100  0.77480677  1  0.055186  0  0.106356  0.157918  0  0.980086  0
H  H71  1  0.33867633  0.99170038  0.27480653  1  0.055192  0  0.106354  0.157925  0  0.980075  0
H  H72  1  0.92004328  0.63976096  0.55385980  1  0.082674  0  0.106764  0.154897  0  1.005892  0
H  H73  1  0.57995726  0.36023884  0.05385986  1  0.082685  0  0.106771  0.154919  0  1.005872  0
H  H74  1  0.07995610  0.36023706  0.44614033  1  0.082704  0  0.106732  0.154852  0  1.005785  0
H  H75  1  0.42004331  0.63976222  0.94614026  1  0.082694  0  0.106732  0.154841  0  1.0058  0
H  H76  1  0.82348718  0.78464514  0.56415886  1  0.066172  0  0.110656  0.15397  0  1.000651  0
H  H77  1  0.67651326  0.21535263  0.06415866  1  0.066147  0  0.110659  0.153962  0  1.000693  0
H  H78  1  0.17651329  0.21535389  0.43584126  1  0.066148  0  0.110654  0.153965  0  1.000697  0
H  H79  1  0.32348726  0.78464741  0.93584120  1  0.066147  0  0.110659  0.153965  0  1.000704  0
H  H80  1  0.94685832  0.72200502  0.59566161  1  0.09142  0  0.114269  0.160094  0  0.990267  0
H  H81  1  0.55313787  0.27799071  0.09566141  1  0.091442  0  0.114252  0.160085  0  0.990346  0
H  H82  1  0.05314102  0.27799198  0.40433879  1  0.091462  0  0.114268  0.160114  0  0.990314  0
H  H83  1  0.44685946  0.72200731  0.90433872  1  0.091448  0  0.114255  0.16009  0  0.990337  0
H  H84  1  0.34681633  0.47116835  0.43136681  1  0.055497  0  0.110703  0.160254  0  0.983426  0
H  H85  1  0.15318088  0.52882789  0.93136676  1  0.055193  0  0.110659  0.160152  0  0.983474  0
H  H86  1  0.65317996  0.52882967  0.56863304  1  0.055226  0  0.110686  0.160232  0  0.983432  0
H  H87  1  0.84681339  0.47117115  0.06863309  1  0.055465  0  0.110669  0.160213  0  0.983455  0
H  H88  1  0.45994903  0.53306699  0.46530904  1  0.084784  0  0.117563  0.162233  0  0.997068  0
H  H89  1  0.04004939  0.46693329  0.96530819  1  0.084798  0  0.117533  0.162191  0  0.997076  0
H  H90  1  0.54005144  0.46693204  0.53469136  1  0.084816  0  0.117577  0.162235  0  0.99705  0
H  H91  1  0.95994823  0.53307082  0.03469113  1  0.084754  0  0.117563  0.162245  0  0.997066  0
H  H92  1  0.33010700  0.40273691  0.47600427  1  0.0637  0  0.10175  0.14287  0  1.041827  0
H  H93  1  0.16988925  0.59726133  0.97600421  1  0.063556  0  0.101754  0.14284  0  1.041747  0
H  H94  1  0.66989131  0.59726009  0.52399505  1  0.063765  0  0.101724  0.142834  0  1.041749  0
H  H95  1  0.83010812  0.40273770  0.02399564  1  0.063714  0  0.101747  0.142855  0  1.041837  0
H  H96  1  0.93751815  0.69563165  0.36585741  1  0.066693  0  0.104378  0.150972  0  1.005624  0
H  H97  1  0.56247908  0.30436801  0.86585764  1  0.066951  0  0.104414  0.151036  0  1.005569  0
H  H98  1  0.06248035  0.30436941  0.63414245  1  0.066697  0  0.1044  0.150987  0  1.005573  0
H  H99  1  0.43751833  0.69563203  0.13414276  1  0.066682  0  0.104383  0.150978  0  1.005608  0
H  H100  1  0.01395302  0.64271586  0.32396210  1  0.107644  0  0.106563  0.158886  0  1.025632  0
H  H101  1  0.48604337  0.35728347  0.82396258  1  0.107518  0  0.106513  0.158802  0  1.02567  0
H  H102  1  0.98604548  0.35728520  0.67603776  1  0.107757  0  0.106557  0.158871  0  1.025652  0
H  H103  1  0.51395301  0.64271658  0.17603836  1  0.107627  0  0.106538  0.15884  0  1.025662  0
H  H104  1  0.08802710  0.60048145  0.36619214  1  0.059087  0  0.104226  0.156026  0  0.984773  0
H  H105  1  0.41197138  0.39951888  0.86619262  1  0.059298  0  0.104252  0.156065  0  0.98472  0
H  H106  1  0.91197352  0.39952063  0.63380745  1  0.05933  0  0.104222  0.15604  0  0.984786  0
H  H107  1  0.58802811  0.60048117  0.13380777  1  0.059087  0  0.104231  0.156026  0  0.984753  0
H  H108  1  0.18928078  0.72353618  0.46063436  1  0.039832  0  0.111041  0.159175  0  0.988235  0
H  H109  1  0.31072361  0.27645903  0.96063431  1  0.039899  0  0.111072  0.159202  0  0.988189  0
H  H110  1  0.81072571  0.27645880  0.53936522  1  0.039874  0  0.111068  0.15921  0  0.988204  0
H  H111  1  0.68927485  0.72354102  0.03936554  1  0.039878  0  0.111064  0.159202  0  0.988202  0
H  H112  1  0.26126677  0.78531814  0.41925350  1  0.081743  0  0.108759  0.16477  0  1.018801  0
H  H113  1  0.23873665  0.21467811  0.91925318  1  0.081742  0  0.108685  0.164732  0  1.018843  0
H  H114  1  0.73873779  0.21467988  0.58074663  1  0.081772  0  0.108686  0.164733  0  1.018812  0
H  H115  1  0.76126382  0.78532093  0.08074667  1  0.081753  0  0.10871  0.16475  0  1.01884  0
H  H116  1  0.13468717  0.88007200  0.44351785  1  0.09256  0  0.11422  0.161139  0  1.008305  0
H  H117  1  0.36531299  0.11992119  0.94351754  1  0.092419  0  0.114218  0.161089  0  1.008299  0
H  H118  1  0.86531621  0.11992297  0.55648173  1  0.09241  0  0.114194  0.161096  0  1.008285  0
H  H119  1  0.63468537  0.88007683  0.05648205  1  0.092423  0  0.114211  0.161086  0  1.008305  0
H  H120  1  0.42902412  0.65613372  0.29660419  1  0.078693  0  0.106919  0.164898  0  1.010889  0
H  H121  1  0.07097431  0.34386461  0.79660523  1  0.078726  0  0.106883  0.164809  0  1.010875  0
H  H122  1  0.57097527  0.34386430  0.70339540  1  0.07871  0  0.106873  0.16479  0  1.010918  0
H  H123  1  0.92902414  0.65613544  0.20339544  1  0.078711  0  0.106884  0.164813  0  1.010874  0
H  H124  1  0.29348521  0.72380600  0.32338860  1  0.054325  0  0.095159  0.147797  0  0.99849  0
H  H125  1  0.20651207  0.27619029  0.82339018  1  0.054297  0  0.095146  0.147763  0  0.998506  0
H  H126  1  0.70651413  0.27619101  0.67661098  1  0.054307  0  0.095155  0.147773  0  0.998488  0
H  H127  1  0.79348736  0.72380874  0.17661076  1  0.054306  0  0.09515  0.147764  0  0.998484  0
H  H128  1  0.31380259  0.54500596  0.31991803  1  0.038201  0  0.108117  0.157507  0  0.983219  0
H  H129  1  0.18619784  0.45499135  0.81991826  1  0.038212  0  0.108135  0.157522  0  0.983218  0
H  H130  1  0.68619783  0.45499206  0.68008182  1  0.038213  0  0.108131  0.157514  0  0.983215  0
H  H131  1  0.81380268  0.54500870  0.18008160  1  0.038227  0  0.108125  0.157492  0  0.983233  0
H  H132  1  0.71222461  0.81193842  0.35927928  1  0.068733  0  0.109476  0.137921  0  1.050646  0
H  H133  1  0.78777682  0.18806226  0.85927950  1  0.068698  0  0.109445  0.137905  0  1.050646  0
H  H134  1  0.28777803  0.18806264  0.64072085  1  0.068685  0  0.109466  0.137894  0  1.050689  0
H  H135  1  0.21222370  0.81193778  0.14072089  1  0.068734  0  0.109467  0.137885  0  1.050682  0
H  H136  1  0.84101975  0.92583854  0.33950203  1  0.051801  0  0.10745  0.156299  0  0.984697  0
H  H137  1  0.65898070  0.07416317  0.83950226  1  0.051824  0  0.1074  0.156229  0  0.984716  0
H  H138  1  0.15898082  0.07416253  0.66049782  1  0.051831  0  0.107434  0.156273  0  0.984661  0
H  H139  1  0.34102090  0.92583789  0.16049813  1  0.051793  0  0.107444  0.156285  0  0.984693  0
H  H140  1  0.66682249  0.93371506  0.32617815  1  0.076417  0  0.112243  0.162348  0  0.990245  0
H  H141  1  0.83317684  0.06628462  0.82617864  1  0.076433  0  0.1122  0.162273  0  0.990321  0
H  H142  1  0.33317803  0.06628498  0.67382171  1  0.076415  0  0.112244  0.16235  0  0.990233  0
H  H143  1  0.16682269  0.93371644  0.17382175  1  0.076415  0  0.112246  0.162359  0  0.99023  0
H  H144  1  0.00192251  0.27934129  0.16780446  1  0.602579  0  0.350001  0.419453  0  0.859677  0
H  H145  1  0.49807714  0.72065912  0.66780412  1  0.602571  0  0.35  0.419433  0  0.859704  0
H  H146  1  0.99807299  0.72066180  0.83219594  1  0.602596  0  0.35  0.419499  0  0.85962  0
H  H147  1  0.50192235  0.27934092  0.33219520  1  0.602667  0  0.350004  0.419428  0  0.859715  0
H  H148  1  0.06856267  0.42892290  0.16796157  1  0.655803  0  0.309547  0.40963  0  0.924633  0
H  H149  1  0.43143796  0.57107650  0.66796205  1  0.655752  0  0.309556  0.409644  0  0.924605  0
H  H150  1  0.93143583  0.57107816  0.83203802  1  0.655786  0  0.309526  0.409637  0  0.924637  0
H  H151  1  0.56856251  0.42892254  0.33203808  1  0.655813  0  0.309549  0.40963  0  0.924636  0
C  C152  1  0.78019216  0.69278613  0.45829944  1  1.586294  0  0.251674  0.772837  0  4.094813  0
C  C153  1  0.71980811  0.30721350  0.95829993  1  1.586294  0  0.25166  0.772863  0  4.094901  0
C  C154  1  0.21981028  0.30721088  0.54170042  1  1.586169  0  0.25168  0.772904  0  4.094893  0
C  C155  1  0.28018935  0.69278756  0.04169993  1  1.586153  0  0.251718  0.773017  0  4.094741  0
C  C156  1  0.33871669  0.88449658  0.46750247  1  1.576208  0  0.265304  0.785096  0  4.074205  0
C  C157  1  0.16128360  0.11549964  0.96750243  1  1.576194  0  0.265312  0.785095  0  4.074204  0
C  C158  1  0.66128246  0.11549637  0.53249766  1  1.576218  0  0.265367  0.785136  0  4.074208  0
C  C159  1  0.83871692  0.88450041  0.03249743  1  1.576213  0  0.265326  0.785119  0  4.074147  0
C  C160  1  0.50657372  0.33665950  0.44525664  1  1.580993  0  0.248351  0.769758  0  4.10214  0
C  C161  1  0.99342229  0.66333709  0.94525603  1  1.581099  0  0.248374  0.76975  0  4.102197  0
C  C162  1  0.49342464  0.66333852  0.55474321  1  1.58108  0  0.248403  0.769907  0  4.102063  0
C  C163  1  0.00657730  0.33666499  0.05474409  1  1.581109  0  0.2484  0.769882  0  4.102119  0
C  C164  1  0.87805485  0.15859813  0.26140988  1  1.568266  0  0.246425  0.761369  0  4.111068  0
C  C165  1  0.62194142  0.84140158  0.76141036  1  1.568307  0  0.246429  0.761358  0  4.111076  0
C  C166  1  0.12194360  0.84140192  0.73858998  1  1.568251  0  0.2464  0.761356  0  4.111086  0
C  C167  1  0.37805910  0.15859846  0.23858977  1  1.56828  0  0.246411  0.761332  0  4.11105  0
C  C168  1  0.46560580  0.65009173  0.35367673  1  1.553397  0  0.221977  0.718451  0  4.156064  0
C  C169  1  0.03439362  0.34990657  0.85367750  1  1.553413  0  0.222012  0.718577  0  4.156077  0
C  C170  1  0.53439462  0.34990629  0.64632259  1  1.553413  0  0.221995  0.718624  0  4.155919  0
C  C171  1  0.96560798  0.65009449  0.14632182  1  1.553443  0  0.221994  0.718532  0  4.156058  0
C  C172  1  0.03942853  0.82739149  0.55025180  1  1.593987  0  0.247641  0.770038  0  4.101819  0
C  C173  1  0.46057228  0.17260999  0.05025158  1  1.593989  0  0.247637  0.769992  0  4.101828  0
C  C174  1  0.96057283  0.17260450  0.44974806  1  1.593926  0  0.247646  0.770109  0  4.102036  0
C  C175  1  0.53942844  0.82739411  0.94974827  1  1.593952  0  0.247636  0.770116  0  4.102023  0
C  C176  1  0.16153801  0.57912077  0.24640839  1  1.579511  0  0.230308  0.74721  0  4.138492  0
C  C177  1  0.33846557  0.42087657  0.74640779  1  1.57949  0  0.230328  0.747156  0  4.138385  0
C  C178  1  0.83846551  0.42087725  0.75359228  1  1.579469  0  0.230322  0.747165  0  4.138416  0
C  C179  1  0.66153387  0.57912246  0.25359206  1  1.57953  0  0.230288  0.747119  0  4.138514  0
C  C180  1  0.90295837  0.48327483  0.35394811  1  1.585218  0  0.245211  0.760699  0  4.115189  0
C  C181  1  0.59704188  0.51672282  0.85394806  1  1.585383  0  0.245189  0.760726  0  4.115082  0
C  C182  1  0.09704112  0.51672522  0.64605256  1  1.585558  0  0.245288  0.760786  0  4.114967  0
C  C183  1  0.40295859  0.48327622  0.14605207  1  1.585414  0  0.245168  0.760636  0  4.115284  0
C  C184  1  0.71153391  0.02147032  0.37795052  1  1.560747  0  0.248309  0.771892  0  4.091602  0
C  C185  1  0.78846858  0.97853137  0.87795072  1  1.560765  0  0.248297  0.771861  0  4.091571  0
C  C186  1  0.28846877  0.97853175  0.62204906  1  1.560699  0  0.248293  0.771919  0  4.091457  0
C  C187  1  0.21153194  0.02146868  0.12204967  1  1.560688  0  0.248305  0.771887  0  4.091638  0
C  C188  1  0.89377065  0.59364779  0.46269087  1  -0.070534  0  -0.23135  -0.550944  0  3.883752  0
C  C189  1  0.60622963  0.40635184  0.96269110  1  -0.070529  0  -0.231374  -0.550946  0  3.88378  0
C  C190  1  0.10623086  0.40635125  0.53730898  1  -0.07049  0  -0.2313  -0.550876  0  3.883829  0
C  C191  1  0.39376887  0.59364922  0.03730876  1  -0.070494  0  -0.231312  -0.550914  0  3.883721  0
C  C192  1  0.22990794  0.70985354  0.23252960  1  -0.120861  0  -0.244484  -0.548942  0  3.894723  0
C  C193  1  0.27009669  0.29014380  0.73252875  1  -0.120854  0  -0.244423  -0.54876  0  3.894712  0
C  C194  1  0.77009765  0.29014448  0.76747133  1  -0.120844  0  -0.24443  -0.548756  0  3.894759  0
C  C195  1  0.72990280  0.70985625  0.26747084  1  -0.120868  0  -0.244427  -0.548748  0  3.894687  0
C  C196  1  0.91511265  0.02324000  0.24584675  1  -0.089569  0  -0.23192  -0.533625  0  3.874505  0
C  C197  1  0.58488678  0.97676074  0.74584723  1  -0.08958  0  -0.231884  -0.533559  0  3.874587  0
C  C198  1  0.08488683  0.97676005  0.75415284  1  -0.089161  0  -0.231897  -0.533588  0  3.874541  0
C  C199  1  0.41511374  0.02323931  0.25415317  1  -0.089162  0  -0.231905  -0.533596  0  3.874493  0
C  C200  1  0.92409736  0.73946401  0.56708424  1  -0.172694  0  -0.226363  -0.541836  0  3.881331  0
C  C201  1  0.57590422  0.26053579  0.06708431  1  -0.172709  0  -0.226352  -0.541824  0  3.88142  0
C  C202  1  0.07590302  0.26053299  0.43291616  1  -0.172736  0  -0.226316  -0.541817  0  3.881391  0
C  C203  1  0.42409640  0.73946629  0.93291582  1  -0.17273  0  -0.226308  -0.541784  0  3.881375  0
C  C204  1  0.40342749  0.44104186  0.45553523  1  -0.123064  0  -0.227134  -0.545206  0  3.878765  0
C  C205  1  0.09656985  0.55895741  0.95553464  1  -0.122587  0  -0.227091  -0.545026  0  3.878657  0
C  C206  1  0.59656993  0.55895819  0.54446463  1  -0.122856  0  -0.22713  -0.545191  0  3.878677  0
C  C207  1  0.90342761  0.44104365  0.04446495  1  -0.123044  0  -0.227103  -0.545193  0  3.878815  0
C  C208  1  0.98993372  0.61455564  0.35190047  1  -0.142293  0  -0.232632  -0.537425  0  3.87184  0
C  C209  1  0.51006456  0.38544403  0.85190070  1  -0.142667  0  -0.232657  -0.537462  0  3.871776  0
C  C210  1  0.01006581  0.38544542  0.64809965  1  -0.142644  0  -0.232632  -0.537431  0  3.871831  0
C  C211  1  0.48993389  0.61455602  0.14809996  1  -0.14228  0  -0.232621  -0.537372  0  3.87184  0
C  C212  1  0.22375546  0.81571058  0.44580695  1  -0.105042  0  -0.22307  -0.539894  0  3.848  0
C  C213  1  0.27624480  0.18428464  0.94580691  1  -0.104939  0  -0.223027  -0.539821  0  3.847963  0
C  C214  1  0.77624487  0.18428541  0.55419237  1  -0.104907  0  -0.223021  -0.539871  0  3.847985  0
C  C215  1  0.72375464  0.81571440  0.05419295  1  -0.104931  0  -0.22304  -0.539855  0  3.847979  0
C  C216  1  0.36893597  0.64479429  0.32164146  1  -0.086306  0  -0.241399  -0.533659  0  3.881511  0
C  C217  1  0.13106554  0.35520403  0.82164196  1  -0.086299  0  -0.241362  -0.533558  0  3.881397  0
C  C218  1  0.63106445  0.35520373  0.67835813  1  -0.086298  0  -0.241343  -0.533543  0  3.881462  0
C  C219  1  0.86893710  0.64479704  0.17835790  1  -0.086269  0  -0.241333  -0.533488  0  3.881401  0
C  C220  1  0.73397188  0.91517634  0.34938230  1  -0.109342  0  -0.2275  -0.54543  0  3.895633  0
C  C221  1  0.76602857  0.08482537  0.84938253  1  -0.109363  0  -0.227404  -0.545294  0  3.895598  0
C  C222  1  0.26602973  0.08482473  0.65061755  1  -0.109299  0  -0.227479  -0.545385  0  3.895565  0
C  C223  1  0.23397205  0.91517671  0.15061787  1  -0.109293  0  -0.227487  -0.545389  0  3.895644  0
O  O224  1  0.30695855  0.96317225  0.49360667  1  -1.289012  0  -0.463984  -0.821113  0  2.246115  0
O  O225  1  0.19304073  0.03682498  0.99360690  1  -1.289057  0  -0.463994  -0.821125  0  2.246117  0
O  O226  1  0.69304286  0.03682476  0.50639292  1  -1.288991  0  -0.46399  -0.821074  0  2.246069  0
O  O227  1  0.80695767  0.96317406  0.00639296  1  -1.288976  0  -0.463969  -0.821094  0  2.246121  0
O  O228  1  0.76453815  0.16433924  0.27906565  1  -1.275784  0  -0.438811  -0.757364  0  2.133731  0
O  O229  1  0.73545910  0.83565946  0.77906613  1  -1.275829  0  -0.438787  -0.757365  0  2.133703  0
O  O230  1  0.23546129  0.83565980  0.72093448  1  -1.275763  0  -0.438777  -0.757359  0  2.133732  0
O  O231  1  0.26454049  0.16434262  0.22093427  1  -1.275816  0  -0.438787  -0.757346  0  2.133667  0
O  O232  1  0.69597362  0.67666462  0.43220116  1  -1.253712  0  -0.435834  -0.742214  0  2.196285  0
O  O233  1  0.80402668  0.32333501  0.93220138  1  -1.253691  0  -0.435892  -0.742304  0  2.196168  0
O  O234  1  0.30402789  0.32333441  0.56779869  1  -1.253557  0  -0.435894  -0.742354  0  2.196212  0
O  O235  1  0.19597182  0.67666605  0.06779848  1  -1.253538  0  -0.43593  -0.742411  0  2.196292  0
O  O236  1  0.84032821  0.45539094  0.38357247  1  -1.276221  0  -0.454473  -0.760277  0  2.20455  0
O  O237  1  0.65967207  0.54460771  0.88357215  1  -1.276197  0  -0.45446  -0.76027  0  2.204445  0
O  O238  1  0.15967552  0.54461114  0.61642873  1  -1.276334  0  -0.454568  -0.760379  0  2.204487  0
O  O239  1  0.34032943  0.45539133  0.11642744  1  -1.276186  0  -0.454474  -0.760278  0  2.204549  0
O  O240  1  0.50323281  0.22152967  0.46112700  1  -1.265967  0  -0.436334  -0.744267  0  2.132481  0
O  O241  1  0.99676215  0.77846691  0.96112612  1  -1.265954  0  -0.436386  -0.744335  0  2.132661  0
O  O242  1  0.49676560  0.77846937  0.53887285  1  -1.265989  0  -0.436362  -0.744341  0  2.132459  0
O  O243  1  0.00323738  0.22153415  0.03887320  1  -1.265921  0  -0.436386  -0.744337  0  2.13255  0
O  O244  1  0.59424428  0.36933959  0.42093623  1  -1.253918  0  -0.442606  -0.742242  0  2.204955  0
O  O245  1  0.90575273  0.63065600  0.92093644  1  -1.254058  0  -0.442549  -0.742165  0  2.20487  0
O  O246  1  0.40575511  0.63065843  0.57906336  1  -1.253988  0  -0.442598  -0.742284  0  2.204998  0
O  O247  1  0.09424478  0.36934608  0.07906423  1  -1.25406  0  -0.442608  -0.742297  0  2.204973  0
O  O248  1  0.77055790  0.78703852  0.48165397  1  -1.282601  0  -0.448796  -0.76015  0  2.184653  0
O  O249  1  0.72944349  0.21296313  0.98165473  1  -1.282627  0  -0.448718  -0.760072  0  2.184815  0
O  O250  1  0.22944262  0.21296153  0.51834481  1  -1.282674  0  -0.448725  -0.760052  0  2.184763  0
O  O251  1  0.27055703  0.78703692  0.01834431  1  -1.282682  0  -0.448738  -0.760094  0  2.184666  0
O  O252  1  0.46319822  0.86019385  0.46032120  1  -1.256609  0  -0.421509  -0.73605  0  2.213278  0
O  O253  1  0.03680227  0.13980643  0.96032144  1  -1.256583  0  -0.4215  -0.73604  0  2.213288  0
O  O254  1  0.53680023  0.13980620  0.53967866  1  -1.256603  0  -0.421541  -0.736075  0  2.213286  0
O  O255  1  0.96319924  0.86019260  0.03967788  1  -1.256598  0  -0.421543  -0.736077  0  2.213215  0
O  O256  1  0.66030792  0.98600072  0.40833808  1  -1.250913  0  -0.41195  -0.730419  0  2.141334  0
O  O257  1  0.83969564  0.01400197  0.90833831  1  -1.250972  0  -0.411934  -0.730364  0  2.141297  0
O  O258  1  0.33969363  0.01399933  0.59166150  1  -1.250961  0  -0.411939  -0.730425  0  2.141308  0
O  O259  1  0.16030705  0.98600011  0.09166181  1  -1.250912  0  -0.411958  -0.730433  0  2.141234  0
O  O260  1  0.16331458  0.79276309  0.55452789  1  -1.256161  0  -0.438714  -0.742845  0  2.201418  0
O  O261  1  0.33668755  0.20724448  0.05452579  1  -1.256188  0  -0.438734  -0.742821  0  2.201371  0
O  O262  1  0.83668683  0.20723392  0.44547304  1  -1.256094  0  -0.43875  -0.742936  0  2.201458  0
O  O263  1  0.66331341  0.79276470  0.94547245  1  -1.25612  0  -0.438731  -0.742928  0  2.201513  0
O  O264  1  0.00817176  0.93169883  0.53221227  1  -1.261667  0  -0.452517  -0.7534  0  2.180233  0
O  O265  1  0.49182581  0.06829962  0.03221313  1  -1.261635  0  -0.452471  -0.75338  0  2.180253  0
O  O266  1  0.99183064  0.06829716  0.46778705  1  -1.2617  0  -0.452476  -0.753353  0  2.180365  0
O  O267  1  0.50817052  0.93169942  0.96778834  1  -1.261699  0  -0.452475  -0.753367  0  2.180343  0
O  O268  1  0.74572879  0.14428918  0.36984488  1  -1.260033  0  -0.462489  -0.77021  0  2.184202  0
O  O269  1  0.75426963  0.85571353  0.86984536  1  -1.259995  0  -0.462459  -0.770202  0  2.184249  0
O  O270  1  0.25427080  0.85571290  0.63015551  1  -1.259994  0  -0.462462  -0.770218  0  2.184086  0
O  O271  1  0.24573296  0.14428652  0.13015504  1  -1.26001  0  -0.46246  -0.770197  0  2.184252  0
O  O272  1  0.89680478  0.40452983  0.32686213  1  -1.255041  0  -0.426863  -0.728951  0  2.167381  0
O  O273  1  0.60319558  0.59546986  0.82686235  1  -1.255212  0  -0.426844  -0.728972  0  2.167385  0
O  O274  1  0.10319372  0.59547123  0.67313800  1  -1.255279  0  -0.426872  -0.728954  0  2.167291  0
O  O275  1  0.39680287  0.40453019  0.17313751  1  -1.255242  0  -0.426826  -0.728922  0  2.167478  0
O  O276  1  0.22606833  0.46972441  0.24166175  1  -1.267383  0  -0.462142  -0.773166  0  2.167973  0
O  O277  1  0.27393418  0.53027192  0.74166035  1  -1.267281  0  -0.462189  -0.773131  0  2.167875  0
O  O278  1  0.77393520  0.53027361  0.75833945  1  -1.267309  0  -0.46215  -0.773128  0  2.167876  0
O  O279  1  0.72606629  0.46972712  0.25833816  1  -1.26729  0  -0.462122  -0.773088  0  2.167925  0
O  O280  1  0.56330131  0.56514293  0.35427852  1  -1.234466  0  -0.38981  -0.689541  0  2.186909  0
O  O281  1  0.93669899  0.43485573  0.85427873  1  -1.234462  0  -0.3898  -0.689574  0  2.186881  0
O  O282  1  0.43670128  0.43485712  0.64572080  1  -1.234415  0  -0.389793  -0.689585  0  2.186839  0
O  O283  1  0.06330153  0.56514432  0.14572086  1  -1.234467  0  -0.389824  -0.689561  0  2.186912  0
O  O284  1  0.07708602  0.33380828  0.17864871  1  -1.286588  0  -0.638811  -0.889104  0  1.98397  0
O  O285  1  0.42291569  0.66619213  0.67864891  1  -1.286543  0  -0.638827  -0.889102  0  1.983975  0
O  O286  1  0.92290544  0.66619684  0.82135303  1  -1.286575  0  -0.638804  -0.889181  0  1.983898  0
O  O287  1  0.57708380  0.33380792  0.32135040  1  -1.286699  0  -0.638848  -0.889102  0  1.984007  0
O  O288  1  0.44986231  0.73648324  0.37828469  1  -1.233333  0  -0.395033  -0.682776  0  2.122974  0
O  O289  1  0.05013729  0.26351911  0.87828546  1  -1.233363  0  -0.395079  -0.682875  0  2.123122  0
O  O290  1  0.55013910  0.26351376  0.62171489  1  -1.233386  0  -0.395075  -0.682917  0  2.123  0
O  O291  1  0.94986145  0.73648703  0.12171493  1  -1.233447  0  -0.39508  -0.682899  0  2.123054  0
O  O292  1  0.96024975  0.26108039  0.25639617  1  -1.251451  0  -0.435447  -0.737683  0  2.181751  0
O  O293  1  0.53974657  0.73892034  0.75639639  1  -1.251439  0  -0.435493  -0.737687  0  2.181781  0
O  O294  1  0.03974979  0.73892067  0.74360396  1  -1.251453  0  -0.435452  -0.737693  0  2.181774  0
O  O295  1  0.46025291  0.26107971  0.24360347  1  -1.251427  0  -0.435482  -0.737684  0  2.181799  0
O  O296  1  0.04302998  0.58248434  0.26075744  1  -1.240641  0  -0.396478  -0.682937  0  2.155106  0
O  O297  1  0.45697172  0.41751705  0.76075684  1  -1.240681  0  -0.396435  -0.682896  0  2.155142  0
O  O298  1  0.95697172  0.41751875  0.73924269  1  -1.240668  0  -0.396468  -0.682927  0  2.155163  0
O  O299  1  0.54302476  0.58248503  0.23924355  1  -1.240722  0  -0.39645  -0.682943  0  2.155216  0
