# generated using pymatgen
data_ZnH17C20NO6
_symmetry_space_group_name_H-M   'P 1'
_cell_length_a   9.56228957
_cell_length_b   10.92762730
_cell_length_c   17.10799525
_cell_angle_alpha   89.55092726
_cell_angle_beta   93.14287553
_cell_angle_gamma   92.23212754
_symmetry_Int_Tables_number   1
_chemical_formula_structural   ZnH17C20NO6
_chemical_formula_sum   'Zn2 H34 C40 N2 O12'
_cell_volume   1783.59578109
_cell_formula_units_Z   2
loop_
 _symmetry_equiv_pos_site_id
 _symmetry_equiv_pos_as_xyz
  1  'x, y, z'
loop_
 _atom_site_type_symbol
 _atom_site_label
 _atom_site_symmetry_multiplicity
 _atom_site_fract_x
 _atom_site_fract_y
 _atom_site_fract_z
 _atom_site_occupancy
 _atom_site_pbe_bader_charge
 _atom_site_pbe_bader_spin_density
 _atom_site_pbe_cm5_charge
 _atom_site_pbe_ddec_charge
 _atom_site_pbe_ddec_spin_density
 _atom_site_pbe_ddec_sum_bond_order
 _atom_site_pbe_magmom
Zn  Zn0  1  0.63973126  0.52523040  0.49580988  1  1.281952  0  0.677934  0.796456  0  2.458936  0
Zn  Zn1  1  0.35366323  0.51964695  0.49551640  1  1.283479  0  0.674093  0.798829  0  2.457208  0
H  H2  1  0.37658942  0.31887578  0.99531589  1  0.055727  0  0.101865  0.094273  0  1.035875  0
H  H3  1  0.12776641  0.35319045  0.55133710  1  0.158557  0  0.142112  0.120432  0  0.96764  0
H  H4  1  0.14013350  0.40791884  0.84990319  1  0.00708  0  0.081342  0.109942  0  1.015294  0
H  H5  1  0.18974878  0.56514517  0.86659737  1  -0.002046  0  0.081573  0.104995  0  1.008465  0
H  H6  1  0.05545948  0.52307676  0.79465021  1  0.105382  0  0.090101  0.136927  0  1.024357  0
H  H7  1  0.27151386  0.58070130  0.72722904  1  0.040265  0  0.102027  0.113068  0  0.964304  0
H  H8  1  0.22105696  0.42883724  0.71128134  1  0.076707  0  0.100548  0.107178  0  0.965312  0
H  H9  1  0.86449685  0.54268245  0.19412116  1  0.038575  0  0.084436  0.118143  0  1.002146  0
H  H10  1  0.79398112  0.61443849  0.27604413  1  0.004735  0  0.079328  0.110136  0  1.022412  0
H  H11  1  0.94989054  0.52867521  0.28793535  1  0.0006  0  0.080703  0.106823  0  1.047346  0
H  H12  1  0.74907831  0.40466178  0.33644353  1  0.070541  0  0.092684  0.101339  0  1.010998  0
H  H13  1  0.68832176  0.39723641  0.00508963  1  0.056703  0  0.107653  0.107816  0  1.003848  0
H  H14  1  0.81575634  0.33718094  0.25309133  1  0.044513  0  0.0967  0.098041  0  0.968442  0
H  H15  1  0.19714209  0.55141184  0.26709959  1  0.083409  0  0.097207  0.027852  0  0.974494  0
H  H16  1  0.76709904  0.30689378  0.67213769  1  0.058478  0  0.094324  0.02028  0  0.992281  0
H  H17  1  0.81180697  0.28398465  0.93025414  1  0.053962  0  0.101678  0.036723  0  0.972061  0
H  H18  1  0.20559695  0.31998525  0.05075994  1  0.04957  0  0.102116  0.035772  0  0.973449  0
H  H19  1  0.10598958  0.03174067  0.42450432  1  -0.008299  0  0.077473  0.099063  0  1.017437  0
H  H20  1  0.14404755  0.18042506  0.46320261  1  0.019289  0  0.076847  0.09994  0  1.040866  0
H  H21  1  0.07199970  0.16421214  0.36547740  1  0.054992  0  0.08765  0.124389  0  1.003973  0
H  H22  1  0.32398960  0.21835048  0.36289584  1  0.071046  0  0.091276  0.094798  0  1.003237  0
H  H23  1  0.29139063  0.06898490  0.32673672  1  0.030634  0  0.091238  0.085522  0  0.971474  0
H  H24  1  0.70170256  0.34097371  0.12940285  1  0.07228  0  0.108873  0.115664  0  0.996825  0
H  H25  1  0.92983852  0.89281715  0.62558271  1  0.010868  0  0.088264  0.117134  0  0.994532  0
H  H26  1  0.85516675  0.86094410  0.52987388  1  0.019343  0  0.07789  0.099136  0  1.045832  0
H  H27  1  0.88856063  0.01502945  0.55995297  1  0.001376  0  0.081277  0.105616  0  1.013077  0
H  H28  1  0.70796256  0.98555395  0.66151276  1  0.027654  0  0.09164  0.08597  0  0.974689  0
H  H29  1  0.67552568  0.83231817  0.63069229  1  0.055052  0  0.095076  0.101858  0  0.98478  0
H  H30  1  0.35567877  0.44290609  0.90332435  1  0.079109  0  0.102643  0.105543  0  1.046252  0
H  H31  1  0.34131162  0.88634838  0.41252147  1  0.069843  0  0.099957  0.104081  0  1.010406  0
H  H32  1  0.65748814  0.15809069  0.57635588  1  0.059713  0  0.095369  0.092608  0  1.030817  0
H  H33  1  0.13392436  0.69230819  0.44032889  1  0.164993  0  0.13968  0.12044  0  0.970001  0
H  H34  1  0.86011410  0.35461453  0.55185683  1  0.158237  0  0.138895  0.114109  0  0.979945  0
H  H35  1  0.86548578  0.69277459  0.43963880  1  0.153817  0  0.142522  0.120002  0  0.963079  0
C  C36  1  0.48856976  0.28512317  0.48455348  1  1.510529  0  0.219616  0.603693  0  4.159749  0
C  C37  1  0.92240611  0.42956400  0.52742327  1  0.510298  0  0.088185  0.08418  0  3.848469  0
C  C38  1  0.92567082  0.61784772  0.46453342  1  0.544966  0  0.084843  0.070195  0  3.861528  0
C  C39  1  0.06775968  0.42860413  0.52694577  1  0.541238  0  0.089185  0.075758  0  3.842469  0
C  C40  1  0.50624450  0.47942631  0.64757242  1  1.578917  0  0.217378  0.589078  0  4.161671  0
C  C41  1  0.49148745  0.50830263  0.34369599  1  1.561982  0  0.213484  0.586322  0  4.176762  0
C  C42  1  0.51950432  0.44422492  0.73245988  1  -0.049803  0  -0.009101  -0.130926  0  3.878507  0
C  C43  1  0.49194779  0.45238876  0.26405560  1  0.020944  0  -0.006968  -0.122374  0  3.87139  0
C  C44  1  0.40772484  0.45289848  0.78373371  1  0.038767  0  0.021738  0.153768  0  3.877977  0
C  C45  1  0.61635112  0.41369914  0.23124020  1  -0.040746  0  0.021932  0.156346  0  3.879417  0
C  C46  1  0.43620541  0.42621396  0.86265539  1  -0.034139  0  -0.088487  -0.192165  0  3.92313  0
C  C47  1  0.50562660  0.75833122  0.50451741  1  1.511758  0  0.221846  0.606567  0  4.142355  0
C  C48  1  0.60596423  0.36958730  0.15476295  1  -0.049394  0  -0.084817  -0.193172  0  3.922792  0
C  C49  1  0.56504335  0.38472712  0.89324824  1  -0.061091  0  0.006529  0.113246  0  4.014204  0
C  C50  1  0.47972791  0.36332613  0.10900845  1  0.059146  0  0.004282  0.109392  0  4.022958  0
C  C51  1  0.67147302  0.36662824  0.84040314  1  -0.009814  0  -0.021785  -0.089276  0  3.969291  0
C  C52  1  0.35396314  0.39028581  0.14522026  1  -0.058489  0  -0.018633  -0.08358  0  3.944487  0
C  C53  1  0.64948005  0.40142806  0.76113544  1  0.019551  0  0.011796  0.028266  0  3.883719  0
C  C54  1  0.36164563  0.43319802  0.22293877  1  -0.006538  0  0.009177  0.01942  0  3.892041  0
C  C55  1  0.58506915  0.37147788  0.97837904  1  -0.01971  0  -0.082989  -0.129057  0  3.961857  0
C  C56  1  0.47741448  0.34481959  0.02462663  1  -0.084993  0  -0.084716  -0.120753  0  3.976485  0
C  C57  1  0.26246040  0.49191795  0.75764866  1  -0.007957  0  -0.157407  -0.145463  0  3.956903  0
C  C58  1  0.39894583  0.07405266  0.43938447  1  0.086811  0  -0.005363  0.096463  0  3.941769  0
C  C59  1  0.15709432  0.49737394  0.82129963  1  -0.062543  0  -0.249958  -0.360306  0  3.967651  0
C  C60  1  0.75934270  0.41586753  0.27333116  1  -0.008432  0  -0.162212  -0.154696  0  3.954018  0
C  C61  1  0.84665842  0.53331832  0.25684362  1  -0.007406  0  -0.247038  -0.349502  0  3.948629  0
C  C62  1  0.22618498  0.45422249  0.26229461  1  0.979462  0  0.099239  0.303254  0  3.994233  0
C  C63  1  0.76999498  0.39226062  0.70759480  1  1.01709  0  0.097317  0.306451  0  4.013691  0
C  C64  1  0.79757781  0.30155704  0.86608034  1  0.916897  0  0.095302  0.270371  0  3.985298  0
C  C65  1  0.21632078  0.38324459  0.10162388  1  0.935901  0  0.095845  0.272679  0  3.9833  0
C  C66  1  0.29295070  0.12465590  0.38020631  1  -0.027388  0  -0.161105  -0.141784  0  3.970633  0
C  C67  1  0.14447674  0.12489620  0.41000481  1  -0.045779  0  -0.245433  -0.343142  0  3.957978  0
C  C68  1  0.70595410  0.92453677  0.61043611  1  0.006299  0  -0.161579  -0.145849  0  3.97247  0
C  C69  1  0.59887117  0.97028727  0.54997229  1  -0.016979  0  -0.001811  0.108072  0  3.927082  0
C  C70  1  0.85381231  0.92337202  0.57973617  1  -0.014111  0  -0.243471  -0.340581  0  3.963342  0
C  C71  1  0.40972589  0.94778066  0.44874295  1  -0.081002  0  -0.088392  -0.150696  0  3.970477  0
C  C72  1  0.58836869  0.09678579  0.54023646  1  -0.05491  0  -0.093255  -0.16575  0  3.978147  0
C  C73  1  0.50665060  0.89505724  0.50229223  1  0.016605  0  -0.019245  -0.087552  0  3.951418  0
C  C74  1  0.49101772  0.14853680  0.48708788  1  -0.011442  0  -0.012849  -0.062816  0  3.955419  0
C  C75  1  0.07094174  0.61727711  0.46441873  1  0.46815  0  0.081111  0.063654  0  3.857197  0
N  N76  1  0.85323885  0.52392508  0.49604362  1  -1.238818  0  -0.29515  -0.144488  0  3.502034  0
N  N77  1  0.14007667  0.52232232  0.49548672  1  -1.223364  0  -0.294199  -0.140574  0  3.506684  0
O  O78  1  0.60275906  0.34239549  0.46974890  1  -1.160171  0  -0.314015  -0.549694  0  2.329415  0
O  O79  1  0.86727438  0.46838674  0.70609920  1  -1.114345  0  -0.28067  -0.392145  0  2.173175  0
O  O80  1  0.88201298  0.26257854  0.82151589  1  -1.071955  0  -0.257755  -0.349282  0  2.122955  0
O  O81  1  0.11522181  0.44192759  0.11851795  1  -1.065238  0  -0.258047  -0.351125  0  2.128914  0
O  O82  1  0.38693324  0.70282855  0.49094842  1  -1.169963  0  -0.317204  -0.552439  0  2.363544  0
O  O83  1  0.37435704  0.33424375  0.49955691  1  -1.1566  0  -0.307313  -0.533682  0  2.326949  0
O  O84  1  0.62137650  0.70536789  0.51792684  1  -1.156875  0  -0.308183  -0.534759  0  2.336127  0
O  O85  1  0.61688746  0.46724831  0.60988089  1  -1.148561  0  -0.292314  -0.522497  0  2.398796  0
O  O86  1  0.37269854  0.50587124  0.37473691  1  -1.148216  0  -0.296392  -0.528357  0  2.367259  0
O  O87  1  0.39161954  0.51729393  0.61748650  1  -1.161802  0  -0.302928  -0.530674  0  2.334115  0
O  O88  1  0.60450697  0.55393590  0.37573399  1  -1.161271  0  -0.311313  -0.534645  0  2.33011  0
O  O89  1  0.14998027  0.36904169  0.28338750  1  -1.103603  0  -0.271704  -0.374274  0  2.157062  0
