# generated using pymatgen
data_Er2H20C12O13
_symmetry_space_group_name_H-M   'P 1'
_cell_length_a   8.33820888
_cell_length_b   11.31517530
_cell_length_c   11.31506892
_cell_angle_alpha   91.82525712
_cell_angle_beta   107.68958907
_cell_angle_gamma   107.68926430
_symmetry_Int_Tables_number   1
_chemical_formula_structural   Er2H20C12O13
_chemical_formula_sum   'Er4 H40 C24 O26'
_cell_volume   959.87926485
_cell_formula_units_Z   2
loop_
 _symmetry_equiv_pos_site_id
 _symmetry_equiv_pos_as_xyz
  1  'x, y, z'
loop_
 _atom_site_type_symbol
 _atom_site_label
 _atom_site_symmetry_multiplicity
 _atom_site_fract_x
 _atom_site_fract_y
 _atom_site_fract_z
 _atom_site_occupancy
 _atom_site_hle17_bader_spin_density
 _atom_site_hle17_ddec_charge
 _atom_site_hle17_ddec_spin_density
 _atom_site_hle17_ddec_sum_bond_order
 _atom_site_hle17_magmom
 _atom_site_hse06_10hf_bader_spin_density
 _atom_site_hse06_10hf_ddec_charge
 _atom_site_hse06_10hf_ddec_spin_density
 _atom_site_hse06_10hf_ddec_sum_bond_order
 _atom_site_hse06_10hf_magmom
 _atom_site_hse06_bader_spin_density
 _atom_site_hse06_ddec_charge
 _atom_site_hse06_ddec_spin_density
 _atom_site_hse06_ddec_sum_bond_order
 _atom_site_hse06_magmom
 _atom_site_pbe_bader_spin_density
 _atom_site_pbe_cm5_charge
 _atom_site_pbe_ddec_charge
 _atom_site_pbe_ddec_spin_density
 _atom_site_pbe_ddec_sum_bond_order
 _atom_site_pbe_magmom
Er  Er0  1  0.74683452  0.86940500  0.15433487  1  0  2.301533  0  1.574967  0  0  2.237495  0  1.881073  0  0  2.28861  0  1.842256  0  0  1.519363  2.11683  0  2.069945  0
Er  Er1  1  0.24682422  0.15433260  0.86940605  1  0  2.30155  0  1.575102  0  0  2.237523  0  1.881229  0  0  2.288636  0  1.842403  0  0  1.519391  2.116863  0  2.070099  0
Er  Er2  1  0.50578975  0.50568038  0.01912252  1  0  2.251794  0  1.66053  0  0  2.10984  0  2.134966  0  0  2.244931  0  1.936735  0  0  1.533928  2.070058  0  2.166114  0
Er  Er3  1  0.00579308  0.01912332  0.50567953  1  0  2.251834  0  1.660603  0  0  2.109987  0  2.134852  0  0  2.244956  0  1.936812  0  0  1.534041  2.070214  0  2.165958  0
H  H4  1  0.11336057  0.73901293  0.08671149  1  0  0.159974  0  0.945178  0  0  0.177186  0  1.002092  0  0  0.180155  0  1.001401  0  0  0.107245  0.17492  0  1.003059  0
H  H5  1  0.61338580  0.08674178  0.73903196  1  0  0.159848  0  0.945425  0  0  0.177219  0  1.002063  0  0  0.18018  0  1.001382  0  0  0.107315  0.174948  0  1.003041  0
H  H6  1  0.16122544  0.59947454  0.13673190  1  0  0.146962  0  0.931801  0  0  0.167141  0  0.987409  0  0  0.169396  0  0.986854  0  0  0.107635  0.165483  0  0.988056  0
H  H7  1  0.66122654  0.13675623  0.59948800  1  0  0.147083  0  0.931806  0  0  0.167164  0  0.987533  0  0  0.169421  0  0.986974  0  0  0.107615  0.16551  0  0.988177  0
H  H8  1  0.11425203  0.62236695  0.97741510  1  0  0.151444  0  0.934666  0  0  0.17046  0  0.993349  0  0  0.172769  0  0.99303  0  0  0.111288  0.168829  0  0.993838  0
H  H9  1  0.61422787  0.97744070  0.62237374  1  0  0.15156  0  0.934592  0  0  0.170548  0  0.99331  0  0  0.172859  0  0.992994  0  0  0.111288  0.168926  0  0.993789  0
H  H10  1  0.90351009  0.83292222  0.87501718  1  0  0.153895  0  0.948986  0  0  0.170986  0  1.00806  0  0  0.174382  0  1.006233  0  0  0.10772  0.168572  0  1.009332  0
H  H11  1  0.40353468  0.87503387  0.83290659  1  0  0.153905  0  0.948997  0  0  0.171069  0  1.007997  0  0  0.174465  0  1.006171  0  0  0.107712  0.168649  0  1.009283  0
H  H12  1  0.73563317  0.74383075  0.73630762  1  0  0.150581  0  0.937502  0  0  0.167138  0  1.000214  0  0  0.170383  0  0.997944  0  0  0.105027  0.164955  0  1.001568  0
H  H13  1  0.23566698  0.73632028  0.74382512  1  0  0.150461  0  0.937669  0  0  0.167064  0  1.000331  0  0  0.170313  0  0.998057  0  0  0.105003  0.164885  0  1.001684  0
H  H14  1  0.91809794  0.69319922  0.80672033  1  0  0.134646  0  0.931298  0  0  0.15579  0  0.986596  0  0  0.158014  0  0.985514  0  0  0.10126  0.154224  0  0.98725  0
H  H15  1  0.41812356  0.80673630  0.69318815  1  0  0.134589  0  0.931408  0  0  0.155727  0  0.986758  0  0  0.157952  0  0.98568  0  0  0.101218  0.154166  0  0.987403  0
H  H16  1  0.98714027  0.49021821  0.36539887  1  0  0.129905  0  0.953526  0  0  0.148498  0  1.012597  0  0  0.150839  0  1.011528  0  0  0.095125  0.146831  0  1.013248  0
H  H17  1  0.48714647  0.36538930  0.49022040  1  0  0.129896  0  0.953426  0  0  0.148474  0  1.012527  0  0  0.150814  0  1.011461  0  0  0.095125  0.146818  0  1.013172  0
H  H18  1  0.99500126  0.62642483  0.45693193  1  0  0.146124  0  0.930933  0  0  0.165808  0  0.986925  0  0  0.16865  0  0.985507  0  0  0.104181  0.163874  0  0.987859  0
H  H19  1  0.49499716  0.45692646  0.62642327  1  0  0.146188  0  0.930825  0  0  0.165825  0  0.986873  0  0  0.168669  0  0.985458  0  0  0.104187  0.163883  0  0.987815  0
H  H20  1  0.14048915  0.64297114  0.37066902  1  0  0.129523  0  0.960087  0  0  0.14808  0  1.022651  0  0  0.150452  0  1.021496  0  0  0.09773  0.146418  0  1.023483  0
H  H21  1  0.64048493  0.37066251  0.64297956  1  0  0.129562  0  0.960195  0  0  0.148168  0  1.02269  0  0  0.150556  0  1.02152  0  0  0.097757  0.146503  0  1.023524  0
H  H22  1  0.38693636  0.97834658  0.24751782  1  0  0.154588  0  0.94888  0  0  0.169763  0  1.009578  0  0  0.172764  0  1.008606  0  0  0.105912  0.167524  0  1.010641  0
H  H23  1  0.88692380  0.24750255  0.97833502  1  0  0.154573  0  0.948809  0  0  0.169792  0  1.009504  0  0  0.172794  0  1.008541  0  0  0.105917  0.167557  0  1.010558  0
H  H24  1  0.38072931  0.07941372  0.37193040  1  0  0.14971  0  0.938901  0  0  0.168703  0  0.997485  0  0  0.170965  0  0.997251  0  0  0.108944  0.16703  0  0.997968  0
H  H25  1  0.88072884  0.37191689  0.07940618  1  0  0.149761  0  0.938973  0  0  0.168811  0  0.99751  0  0  0.171072  0  0.997278  0  0  0.108988  0.167139  0  0.997993  0
H  H26  1  0.32518147  0.91742961  0.37820132  1  0  0.15549  0  0.926148  0  0  0.174804  0  0.983834  0  0  0.177593  0  0.982546  0  0  0.111705  0.172867  0  0.984897  0
H  H27  1  0.82516734  0.37818673  0.91742183  1  0  0.155374  0  0.926154  0  0  0.174737  0  0.98384  0  0  0.177529  0  0.982555  0  0  0.111639  0.172797  0  0.98491  0
H  H28  1  0.53410699  0.64917131  0.50787224  1  0  0.133923  0  0.944576  0  0  0.153464  0  1.002108  0  0  0.155577  0  1.001166  0  0  0.09995  0.151976  0  1.002615  0
H  H29  1  0.03405489  0.50785944  0.64917944  1  0  0.133967  0  0.94466  0  0  0.153413  0  1.002258  0  0  0.155548  0  1.001297  0  0  0.099986  0.151916  0  1.002773  0
H  H30  1  0.53922886  0.62339042  0.35104703  1  0  0.167168  0  0.923784  0  0  0.186558  0  0.978315  0  0  0.190142  0  0.97611  0  0  0.11542  0.184041  0  0.97981  0
H  H31  1  0.03919182  0.35104393  0.62338996  1  0  0.167173  0  0.923867  0  0  0.18661  0  0.978327  0  0  0.190202  0  0.976112  0  0  0.115412  0.184094  0  0.979818  0
H  H32  1  0.41168981  0.71150403  0.38120472  1  0  0.135158  0  0.946674  0  0  0.157258  0  1.003253  0  0  0.15938  0  1.002399  0  0  0.104221  0.15577  0  1.003791  0
H  H33  1  0.91166869  0.38118699  0.71152405  1  0  0.135028  0  0.946432  0  0  0.157116  0  1.003068  0  0  0.159242  0  1.002214  0  0  0.104174  0.155632  0  1.0036  0
H  H34  1  0.65552744  0.27662834  0.37046885  1  0  0.126382  0  0.942731  0  0  0.146403  0  1.000931  0  0  0.148669  0  0.999779  0  0  0.093767  0.144843  0  1.001605  0
H  H35  1  0.15554616  0.37046592  0.27664251  1  0  0.12643  0  0.942389  0  0  0.146415  0  1.000657  0  0  0.148677  0  0.99951  0  0  0.093832  0.144853  0  1.001332  0
H  H36  1  0.52988887  0.20520428  0.21076229  1  0  0.146725  0  0.950308  0  0  0.163444  0  1.011173  0  0  0.166359  0  1.010243  0  0  0.103752  0.16155  0  1.011562  0
H  H37  1  0.02990386  0.21075909  0.20521538  1  0  0.14669  0  0.950131  0  0  0.163391  0  1.011048  0  0  0.166303  0  1.010119  0  0  0.103772  0.161492  0  1.011437  0
H  H38  1  0.74209562  0.31934816  0.24754662  1  0  0.145118  0  0.95721  0  0  0.163538  0  1.018979  0  0  0.16638  0  1.017907  0  0  0.103146  0.161519  0  1.01989  0
H  H39  1  0.24211649  0.24754212  0.31935316  1  0  0.145071  0  0.957251  0  0  0.163553  0  1.018938  0  0  0.166407  0  1.017852  0  0  0.103191  0.161516  0  1.019869  0
H  H40  1  0.66004344  0.03468106  0.97093564  1  0  0.443013  0  0.857  0  0  0.414716  0  0.916281  0  0  0.425216  0  0.901004  0  0  0.302619  0.40667  0  0.927835  0
H  H41  1  0.16006595  0.97093368  0.03467278  1  0  0.442983  0  0.857108  0  0  0.414737  0  0.916283  0  0  0.425232  0  0.901011  0  0  0.302688  0.406701  0  0.927821  0
H  H42  1  0.81297184  0.00476906  0.93580129  1  0  0.452348  0  0.840376  0  0  0.425071  0  0.896789  0  0  0.435773  0  0.881212  0  0  0.305418  0.416664  0  0.908923  0
H  H43  1  0.31300361  0.93579816  0.00477210  1  0  0.452294  0  0.840293  0  0  0.424942  0  0.896865  0  0  0.435651  0  0.881282  0  0  0.305253  0.416542  0  0.908979  0
C  C44  1  0.37212274  0.73323293  0.09356497  1  0  0.793624  0  3.797992  0  0  0.750231  0  4.100397  0  0  0.784973  0  4.092612  0  0  0.227791  0.72749  0  4.099148  0
C  C45  1  0.87210840  0.09356269  0.73322777  1  0  0.793646  0  3.79806  0  0  0.750361  0  4.100306  0  0  0.785108  0  4.092519  0  0  0.227786  0.727607  0  4.099062  0
C  C46  1  0.17789991  0.67071239  0.07401790  1  0  -0.46192  0  3.601809  0  0  -0.535108  0  3.828945  0  0  -0.543053  0  3.831453  0  0  -0.236723  -0.530506  0  3.828726  0
C  C47  1  0.67790083  0.07404303  0.67072071  1  0  -0.462101  0  3.602178  0  0  -0.535304  0  3.829261  0  0  -0.543259  0  3.831774  0  0  -0.236788  -0.530714  0  3.829063  0
C  C48  1  0.72495612  0.65934637  0.90105910  1  0  0.790375  0  3.809621  0  0  0.75666  0  4.097524  0  0  0.789828  0  4.09563  0  0  0.215015  0.732524  0  4.103041  0
C  C49  1  0.22496810  0.90106654  0.65933216  1  0  0.790384  0  3.809386  0  0  0.756717  0  4.097256  0  0  0.789888  0  4.095336  0  0  0.214952  0.732566  0  4.102816  0
C  C50  1  0.82792337  0.73778745  0.82719853  1  0  -0.44514  0  3.621016  0  0  -0.518191  0  3.848351  0  0  -0.52442  0  3.847621  0  0  -0.237023  -0.513389  0  3.848673  0
C  C51  1  0.32795310  0.82721132  0.73778019  1  0  -0.444979  0  3.620922  0  0  -0.518171  0  3.848272  0  0  -0.524408  0  3.847546  0  0  -0.23696  -0.513376  0  3.848605  0
C  C52  1  0.87074093  0.61854491  0.25999039  1  0  0.812192  0  3.798196  0  0  0.78132  0  4.08414  0  0  0.815732  0  4.07599  0  0  0.235097  0.757372  0  4.089328  0
C  C53  1  0.37073504  0.25998754  0.61853718  1  0  0.812155  0  3.798001  0  0  0.781342  0  4.08382  0  0  0.815748  0  4.07566  0  0  0.235134  0.757395  0  4.088981  0
C  C54  1  0.00543969  0.59040509  0.36925564  1  0  -0.451987  0  3.641495  0  0  -0.527233  0  3.866057  0  0  -0.533615  0  3.866542  0  0  -0.241311  -0.522687  0  3.865619  0
C  C55  1  0.50543974  0.36924687  0.59040949  1  0  -0.452027  0  3.641481  0  0  -0.527285  0  3.86603  0  0  -0.533674  0  3.866509  0  0  -0.241298  -0.522737  0  3.865587  0
C  C56  1  0.12440798  0.96732792  0.24930588  1  0  0.816344  0  3.764272  0  0  0.774128  0  4.059647  0  0  0.810109  0  4.048662  0  0  0.230941  0.750789  0  4.059861  0
C  C57  1  0.62439457  0.24930082  0.96732258  1  0  0.816373  0  3.764304  0  0  0.774282  0  4.059524  0  0  0.81028  0  4.048518  0  0  0.231035  0.750948  0  4.059731  0
C  C58  1  0.31781547  0.98774131  0.31353073  1  0  -0.461758  0  3.594701  0  0  -0.534366  0  3.819283  0  0  -0.542343  0  3.820891  0  0  -0.233951  -0.529675  0  3.819404  0
C  C59  1  0.81780681  0.31352033  0.98773856  1  0  -0.461652  0  3.594702  0  0  -0.534469  0  3.819261  0  0  -0.542459  0  3.82087  0  0  -0.233969  -0.529784  0  3.819383  0
C  C60  1  0.69080562  0.80934561  0.44768798  1  0  0.789201  0  3.810439  0  0  0.754486  0  4.10093  0  0  0.787772  0  4.09891  0  0  0.217279  0.730267  0  4.106694  0
C  C61  1  0.19078952  0.44767900  0.80934158  1  0  0.789253  0  3.81056  0  0  0.754609  0  4.100932  0  0  0.787892  0  4.098935  0  0  0.217493  0.730376  0  4.106705  0
C  C62  1  0.53579078  0.69035648  0.42188156  1  0  -0.448065  0  3.620147  0  0  -0.522389  0  3.84355  0  0  -0.528557  0  3.843659  0  0  -0.23406  -0.517542  0  3.842927  0
C  C63  1  0.03576761  0.42186883  0.69035838  1  0  -0.448015  0  3.620201  0  0  -0.522286  0  3.843568  0  0  -0.528489  0  3.843659  0  0  -0.234107  -0.517428  0  3.842952  0
C  C64  1  0.74874069  0.13972998  0.30069110  1  0  0.811766  0  3.798511  0  0  0.780721  0  4.084662  0  0  0.8152  0  4.076025  0  0  0.229957  0.756837  0  4.089906  0
C  C65  1  0.24873854  0.30067533  0.13973319  1  0  0.811658  0  3.798374  0  0  0.780479  0  4.084753  0  0  0.814968  0  4.076116  0  0  0.229808  0.756621  0  4.089939  0
C  C66  1  0.66238433  0.24031277  0.28182446  1  0  -0.463581  0  3.628996  0  0  -0.539918  0  3.856721  0  0  -0.547044  0  3.857644  0  0  -0.247844  -0.534989  0  3.856105  0
C  C67  1  0.16240498  0.28182154  0.24032188  1  0  -0.463476  0  3.628511  0  0  -0.539781  0  3.856386  0  0  -0.546921  0  3.857286  0  0  -0.247936  -0.534844  0  3.855778  0
O  O68  1  0.48254000  0.67301762  0.13077089  1  0  -0.828462  0  2.127805  0  0  -0.784274  0  2.398538  0  0  -0.822761  0  2.387333  0  0  -0.426412  -0.757346  0  2.403045  0
O  O69  1  0.98254295  0.13077168  0.67301524  1  0  -0.828442  0  2.127401  0  0  -0.784381  0  2.398266  0  0  -0.822857  0  2.387062  0  0  -0.426432  -0.757439  0  2.402757  0
O  O70  1  0.43337588  0.84628052  0.07558279  1  0  -0.693651  0  2.006874  0  0  -0.639615  0  2.23434  0  0  -0.664854  0  2.223605  0  0  -0.344868  -0.612822  0  2.241453  0
O  O71  1  0.93336692  0.07557383  0.84626937  1  0  -0.693565  0  2.006956  0  0  -0.639685  0  2.234541  0  0  -0.664864  0  2.223698  0  0  -0.344865  -0.612886  0  2.241655  0
O  O72  1  0.66454079  0.54052840  0.87438927  1  0  -0.713236  0  1.917341  0  0  -0.669661  0  2.152074  0  0  -0.705386  0  2.14277  0  0  -0.380853  -0.652564  0  2.158212  0
O  O73  1  0.16454364  0.87439488  0.54051805  1  0  -0.713239  0  1.91732  0  0  -0.669712  0  2.152058  0  0  -0.705419  0  2.14275  0  0  -0.380918  -0.652612  0  2.158203  0
O  O74  1  0.69217735  0.71037531  0.99074040  1  0  -0.850683  0  2.119621  0  0  -0.803809  0  2.37484  0  0  -0.839308  0  2.365693  0  0  -0.434479  -0.772713  0  2.383303  0
O  O75  1  0.19217841  0.99074022  0.71035710  1  0  -0.850693  0  2.119572  0  0  -0.8038  0  2.374709  0  0  -0.839303  0  2.365589  0  0  -0.434377  -0.772694  0  2.383176  0
O  O76  1  0.87899057  0.73153671  0.25546581  1  0  -0.747465  0  2.07776  0  0  -0.712304  0  2.326658  0  0  -0.738756  0  2.320973  0  0  -0.387995  -0.68283  0  2.33499  0
O  O77  1  0.37896286  0.25546427  0.73153369  1  0  -0.747505  0  2.077398  0  0  -0.712381  0  2.326282  0  0  -0.738855  0  2.320647  0  0  -0.388052  -0.682921  0  2.334636  0
O  O78  1  0.75577786  0.52673732  0.17892243  1  0  -0.765872  0  1.999074  0  0  -0.714135  0  2.249339  0  0  -0.75367  0  2.234204  0  0  -0.417417  -0.695895  0  2.256642  0
O  O79  1  0.25577749  0.17891375  0.52673278  1  0  -0.765845  0  1.999223  0  0  -0.714117  0  2.249427  0  0  -0.75363  0  2.234301  0  0  -0.417457  -0.69588  0  2.256714  0
O  O80  1  0.02962940  0.98926109  0.31255800  1  0  -0.846968  0  2.185028  0  0  -0.800297  0  2.459717  0  0  -0.840593  0  2.446782  0  0  -0.454982  -0.772083  0  2.465447  0
O  O81  1  0.52963160  0.31254872  0.98926280  1  0  -0.846866  0  2.185071  0  0  -0.800242  0  2.45977  0  0  -0.840552  0  2.446819  0  0  -0.454938  -0.77203  0  2.465507  0
O  O82  1  0.04559333  0.92357283  0.13398340  1  0  -0.695441  0  1.992746  0  0  -0.642973  0  2.217508  0  0  -0.667831  0  2.206217  0  0  -0.339744  -0.616656  0  2.224372  0
O  O83  1  0.54557122  0.13397548  0.92356160  1  0  -0.695598  0  1.992698  0  0  -0.643098  0  2.217367  0  0  -0.667971  0  2.206069  0  0  -0.339781  -0.616773  0  2.224226  0
O  O84  1  0.71903776  0.86864378  0.35696006  1  0  -0.834411  0  2.119277  0  0  -0.78767  0  2.372526  0  0  -0.823125  0  2.366044  0  0  -0.422756  -0.757109  0  2.380109  0
O  O85  1  0.21901959  0.35695502  0.86864098  1  0  -0.834334  0  2.119355  0  0  -0.787595  0  2.372578  0  0  -0.82306  0  2.366107  0  0  -0.422783  -0.757016  0  2.380156  0
O  O86  1  0.79391638  0.85391418  0.55918007  1  0  -0.712477  0  1.92471  0  0  -0.661804  0  2.151054  0  0  -0.697742  0  2.142472  0  0  -0.373  -0.64428  0  2.15692  0
O  O87  1  0.29391699  0.55917283  0.85388876  1  0  -0.712562  0  1.924645  0  0  -0.661955  0  2.151022  0  0  -0.697901  0  2.142432  0  0  -0.373134  -0.644424  0  2.156889  0
O  O88  1  0.85344346  0.14192916  0.41076045  1  0  -0.770929  0  1.987446  0  0  -0.722372  0  2.237041  0  0  -0.76112  0  2.221097  0  0  -0.429829  -0.704678  0  2.244764  0
O  O89  1  0.35345506  0.41075891  0.14193028  1  0  -0.770959  0  1.987137  0  0  -0.722351  0  2.236818  0  0  -0.761129  0  2.220866  0  0  -0.429796  -0.704665  0  2.244534  0
O  O90  1  0.71506518  0.06071996  0.20689876  1  0  -0.744036  0  2.017044  0  0  -0.708924  0  2.269629  0  0  -0.733632  0  2.258966  0  0  -0.391215  -0.68025  0  2.279639  0
O  O91  1  0.21506197  0.20689209  0.06071965  1  0  -0.743971  0  2.017282  0  0  -0.708792  0  2.269909  0  0  -0.733497  0  2.259246  0  0  -0.391142  -0.680131  0  2.27991  0
O  O92  1  0.72928252  0.97553630  0.98355972  1  0  -0.943483  0  1.875971  0  0  -0.9147  0  2.077957  0  0  -0.933209  0  2.045085  0  0  -0.667035  -0.888774  0  2.108044  0
O  O93  1  0.22924562  0.98356748  0.97553444  1  0  -0.943402  0  1.876019  0  0  -0.91461  0  2.078021  0  0  -0.93311  0  2.045133  0  0  -0.666919  -0.888704  0  2.108141  0
