# generated using pymatgen
data_Zn2H20C25N8
_symmetry_space_group_name_H-M   'P 1'
_cell_length_a   14.87599788
_cell_length_b   15.22928074
_cell_length_c   23.64958836
_cell_angle_alpha   90.71613657
_cell_angle_beta   90.23176647
_cell_angle_gamma   80.25306514
_symmetry_Int_Tables_number   1
_chemical_formula_structural   Zn2H20C25N8
_chemical_formula_sum   'Zn8 H80 C100 N32'
_cell_volume   5280.06967578
_cell_formula_units_Z   4
loop_
 _symmetry_equiv_pos_site_id
 _symmetry_equiv_pos_as_xyz
  1  'x, y, z'
loop_
 _atom_site_type_symbol
 _atom_site_label
 _atom_site_symmetry_multiplicity
 _atom_site_fract_x
 _atom_site_fract_y
 _atom_site_fract_z
 _atom_site_occupancy
 _atom_site_pbe_bader_charge
 _atom_site_pbe_bader_spin_density
 _atom_site_pbe_cm5_charge
 _atom_site_pbe_ddec_charge
 _atom_site_pbe_ddec_spin_density
 _atom_site_pbe_ddec_sum_bond_order
 _atom_site_pbe_magmom
Zn  Zn0  1  0.55630868  0.57733004  0.41378777  1  1.180717  0  0.754063  0.634637  0  2.468701  0
Zn  Zn1  1  0.38822809  0.46444503  0.42033052  1  1.197401  0  0.749019  0.667169  0  2.307929  0
Zn  Zn2  1  0.07572417  0.07984422  0.92201410  1  1.186597  0  0.735111  0.631456  0  2.35936  0
Zn  Zn3  1  0.93926467  0.93001112  0.92435487  1  1.178959  0  0.737504  0.608742  0  2.463415  0
Zn  Zn4  1  0.40684233  0.43629252  0.56083471  1  1.176526  0  0.736729  0.636876  0  2.3192  0
Zn  Zn5  1  0.55190601  0.57378240  0.55595707  1  1.185814  0  0.740853  0.637779  0  2.359567  0
Zn  Zn6  1  0.94788998  0.93175763  0.06328862  1  1.180736  0  0.743808  0.616328  0  2.449775  0
Zn  Zn7  1  0.07412978  0.08552836  0.05990692  1  1.186608  0  0.739679  0.622474  0  2.402412  0
H  H8  1  0.45436323  0.75595891  0.36190644  1  0.082305  0  0.114626  0.102686  0  1.02164  0
H  H9  1  0.48194793  0.31466509  0.32340375  1  0.083239  0  0.113024  0.102613  0  1.036119  0
H  H10  1  0.02984343  0.15754896  0.79256854  1  0.091759  0  0.117045  0.103258  0  1.000461  0
H  H11  1  0.07557777  0.76956531  0.87295117  1  0.096224  0  0.115387  0.102689  0  1.00875  0
H  H12  1  0.56747403  0.08167381  0.50667933  1  0.039983  0  0.095209  0.092266  0  1.003614  0
H  H13  1  0.60641829  0.94467649  0.44565505  1  0.053098  0  0.09398  0.092058  0  1.007156  0
H  H14  1  0.90355879  0.56332876  0.03447076  1  0.040165  0  0.094677  0.091488  0  1.004727  0
H  H15  1  0.87671766  0.42507403  0.04281677  1  0.026475  0  0.093899  0.090498  0  1.00324  0
H  H16  1  0.34268886  0.83625847  0.68936550  1  0.029876  0  0.093137  0.094331  0  1.02019  0
H  H17  1  0.66759200  0.17761679  0.64854153  1  0.03569  0  0.093902  0.096133  0  1.017039  0
H  H18  1  0.79165444  0.27930147  0.14573603  1  0.060944  0  0.094851  0.097472  0  1.029176  0
H  H19  1  0.22937494  0.67696083  0.15509469  1  0.033669  0  0.096437  0.09964  0  1.010076  0
H  H20  1  0.66206216  0.22176839  0.33109483  1  0.063411  0  0.098923  0.102153  0  1.000228  0
H  H21  1  0.31099820  0.86854514  0.31109017  1  0.047973  0  0.097298  0.098051  0  1.002567  0
H  H22  1  0.20802324  0.66988605  0.83555267  1  0.078243  0  0.096642  0.096056  0  1.005974  0
H  H23  1  0.89141117  0.27443584  0.77960083  1  0.037655  0  0.095034  0.093388  0  1.044755  0
H  H24  1  0.26314067  0.59385759  0.74682871  1  0.052625  0  0.095108  0.095707  0  1.007691  0
H  H25  1  0.77583805  0.38700396  0.73540384  1  0.033285  0  0.096142  0.098059  0  1.006585  0
H  H26  1  0.78229608  0.10788058  0.28786438  1  0.046613  0  0.098451  0.101711  0  1.002061  0
H  H27  1  0.25797454  0.93595040  0.21985910  1  0.043274  0  0.095597  0.096803  0  1.008079  0
H  H28  1  0.87492083  0.33927602  0.56764804  1  0.064651  0  0.097942  0.099981  0  1.005383  0
H  H29  1  0.03894370  0.34271129  0.57438228  1  0.04541  0  0.096607  0.095423  0  1.005904  0
H  H30  1  0.43563833  0.12228870  0.08484068  1  0.043528  0  0.096101  0.094061  0  1.008826  0
H  H31  1  0.60191148  0.10261544  0.08626164  1  0.07618  0  0.098138  0.098217  0  1.005606  0
H  H32  1  0.04372555  0.40225688  0.39683650  1  0.046144  0  0.094091  0.091287  0  1.014831  0
H  H33  1  0.87911392  0.40423229  0.39094418  1  0.060229  0  0.097654  0.09869  0  1.003622  0
H  H34  1  0.60335638  0.14278097  0.90617131  1  0.050041  0  0.097315  0.09775  0  1.003734  0
H  H35  1  0.43652506  0.16402108  0.90495215  1  0.05264  0  0.095436  0.093627  0  1.01037  0
H  H36  1  0.25984524  0.55233447  0.64213743  1  0.074689  0  0.116977  0.104154  0  0.999523  0
H  H37  1  0.69274367  0.48555445  0.66205065  1  0.08261  0  0.116491  0.102555  0  0.996507  0
H  H38  1  0.82518929  0.99190201  0.17756071  1  0.081037  0  0.117251  0.10648  0  0.991414  0
H  H39  1  0.25237935  0.97821098  0.11503354  1  0.100466  0  0.113731  0.098633  0  1.009185  0
H  H40  1  0.16634275  0.46780362  0.41078263  1  0.0471  0  0.111163  0.095155  0  1.015062  0
H  H41  1  0.71140532  0.41006703  0.38939797  1  0.109936  0  0.112194  0.09917  0  1.036491  0
H  H42  1  0.75991783  0.07562620  0.90385573  1  0.059133  0  0.112144  0.097346  0  1.025786  0
H  H43  1  0.28675442  0.12671887  0.90081125  1  0.044961  0  0.113725  0.098855  0  1.007191  0
H  H44  1  0.52939693  0.79325434  0.56052922  1  0.102563  0  0.113598  0.099748  0  1.01272  0
H  H45  1  0.55765557  0.25355023  0.55734925  1  0.088089  0  0.110524  0.099452  0  1.040509  0
H  H46  1  0.91585317  0.25088257  0.08365746  1  0.084059  0  0.107967  0.090855  0  1.061335  0
H  H47  1  0.90453423  0.72766916  0.08621644  1  0.080226  0  0.114911  0.102645  0  0.997114  0
H  H48  1  0.20557791  0.35198041  0.57699625  1  0.077273  0  0.11355  0.101421  0  1.003884  0
H  H49  1  0.73269129  0.43692928  0.57097453  1  0.106745  0  0.111666  0.093729  0  1.054298  0
H  H50  1  0.75825719  0.06507274  0.08687235  1  0.079316  0  0.112114  0.096998  0  1.038099  0
H  H51  1  0.27520981  0.14840106  0.08325736  1  0.08919  0  0.114148  0.09982  0  1.005073  0
H  H52  1  0.44846779  0.73780716  0.62714486  1  0.088343  0  0.111595  0.095208  0  1.018619  0
H  H53  1  0.51897858  0.28591953  0.64794659  1  0.079449  0  0.115432  0.09984  0  1.001351  0
H  H54  1  0.97739076  0.20858813  0.16710822  1  0.06634  0  0.117002  0.104315  0  0.995631  0
H  H55  1  0.08756166  0.76994797  0.10606829  1  0.050781  0  0.114091  0.100721  0  1.010539  0
H  H56  1  0.37912345  0.08243457  0.45301884  1  0.046335  0  0.095807  0.096462  0  1.003186  0
H  H57  1  0.41463039  0.92308166  0.48432677  1  0.05634  0  0.096466  0.097125  0  0.992585  0
H  H58  1  0.79406962  0.58514235  0.92365733  1  0.042894  0  0.092468  0.089982  0  1.013939  0
H  H59  1  0.81995588  0.42631701  0.91778729  1  0.04537  0  0.093733  0.090561  0  1.019588  0
H  H60  1  0.67454797  0.40537269  0.13278885  1  0.056845  0  0.093824  0.132415  0  0.990496  0
H  H61  1  0.58825961  0.43778383  0.18470406  1  0.061039  0  0.092423  0.129465  0  1.001344  0
H  H62  1  0.69548564  0.47168591  0.19186385  1  0.036706  0  0.088703  0.119412  0  1.001223  0
H  H63  1  0.28772989  0.54920689  0.20380768  1  0.03483  0  0.089985  0.124772  0  0.997619  0
H  H64  1  0.34386541  0.55173623  0.27040116  1  0.071437  0  0.087759  0.128547  0  1.022948  0
H  H65  1  0.22373189  0.56130636  0.26717022  1  0.008909  0  0.085255  0.113991  0  1.006553  0
H  H66  1  0.31831519  0.96452787  0.73976390  1  0.033013  0  0.088346  0.120941  0  1.002805  0
H  H67  1  0.23120787  0.98096665  0.79233898  1  0.027832  0  0.087783  0.120588  0  1.018592  0
H  H68  1  0.34669614  0.94691738  0.81209677  1  0.031572  0  0.090172  0.122928  0  0.996006  0
H  H69  1  0.76044506  0.03004154  0.64482675  1  0.009814  0  0.092043  0.128231  0  0.993484  0
H  H70  1  0.85321328  0.99966690  0.69247155  1  0.051901  0  0.091865  0.127028  0  1.005027  0
H  H71  1  0.73958657  0.00489375  0.71593112  1  0.013005  0  0.088579  0.118935  0  1.000554  0
H  H72  1  0.59756431  0.80323974  0.35024913  1  0.041163  0  0.096577  0.134489  0  0.995454  0
H  H73  1  0.71140579  0.78745423  0.37521467  1  0.061314  0  0.101023  0.143741  0  0.97576  0
H  H74  1  0.66293908  0.69385606  0.35338414  1  0.020772  0  0.09431  0.12873  0  1.001944  0
H  H75  1  0.41771308  0.18164345  0.36677698  1  0.059885  0  0.098092  0.137497  0  0.988984  0
H  H76  1  0.31709130  0.21996039  0.40609116  1  0.051018  0  0.101015  0.142288  0  0.980466  0
H  H77  1  0.36256093  0.29530558  0.36304672  1  0.022543  0  0.093656  0.124308  0  1.015308  0
H  H78  1  0.86981078  0.28893257  0.86757885  1  0.08825  0  0.09777  0.138147  0  0.994451  0
H  H79  1  0.95113217  0.35655806  0.88693634  1  0.05072  0  0.096527  0.136112  0  0.998147  0
H  H80  1  0.98780867  0.24602232  0.86059479  1  0.037652  0  0.087597  0.116259  0  1.055773  0
H  H81  1  0.89915565  0.66282156  0.87559440  1  0.041474  0  0.097944  0.137467  0  0.991822  0
H  H82  1  0.79161675  0.73377378  0.87667861  1  0.035202  0  0.09844  0.137349  0  0.981811  0
H  H83  1  0.89144062  0.77852125  0.86122865  1  0.030937  0  0.091008  0.121284  0  1.013043  0
H  H84  1  0.24100143  0.59572269  0.36329738  1  0.088145  0  0.116661  0.102945  0  1.006403  0
H  H85  1  0.65684379  0.50824232  0.29416021  1  0.062987  0  0.117069  0.103647  0  0.998129  0
H  H86  1  0.81947114  0.99557612  0.80720260  1  0.086428  0  0.116723  0.103409  0  1.00526  0
H  H87  1  0.25952629  0.95959463  0.89214051  1  0.12422  0  0.111544  0.095507  0  1.034075  0
C  C88  1  0.40928833  0.70846759  0.37003724  1  0.403587  0  0.005049  -0.054151  0  3.963334  0
C  C89  1  0.51467325  0.37300892  0.32237566  1  0.435147  0  0.003976  -0.054813  0  3.998284  0
C  C90  1  0.98551641  0.11099272  0.80427882  1  0.397855  0  0.002309  -0.060655  0  4.023562  0
C  C91  1  0.11099119  0.82409005  0.88428180  1  0.428135  0  0.006703  -0.050722  0  3.96744  0
C  C92  1  0.33801552  0.66545557  0.65706062  1  0.038431  0  -0.034605  -0.031999  0  4.070085  0
C  C93  1  0.63723527  0.35680606  0.66619081  1  -0.018052  0  -0.039326  -0.045637  0  4.091443  0
C  C94  1  0.87113573  0.12488548  0.18674937  1  0.090482  0  -0.037748  -0.041119  0  4.09154  0
C  C95  1  0.19371701  0.85328654  0.13021729  1  -0.059586  0  -0.035064  -0.03331  0  4.073904  0
C  C96  1  0.14667210  0.39682756  0.49175934  1  0.03631  0  -0.042011  -0.045215  0  4.09943  0
C  C97  1  0.76350738  0.40306889  0.47955191  1  0.076245  0  -0.036765  -0.041865  0  4.069957  0
C  C98  1  0.71603216  0.08851867  0.99558664  1  0.013513  0  -0.036076  -0.040097  0  4.069099  0
C  C99  1  0.32388902  0.14120610  0.99274582  1  -0.004905  0  -0.038934  -0.040797  0  4.090709  0
C  C100  1  0.57666335  0.81538570  0.47272999  1  0.016305  0  -0.043582  -0.056483  0  4.099428  0
C  C101  1  0.48717420  0.20691841  0.48106860  1  0.033125  0  -0.044566  -0.062239  0  4.110877  0
C  C102  1  0.90403514  0.30286618  0.99480353  1  0.009717  0  -0.042092  -0.058719  0  4.092679  0
C  C103  1  0.87718652  0.69161854  0.99582072  1  0.006701  0  -0.043926  -0.059146  0  4.114648  0
C  C104  1  0.44734082  0.05483034  0.46850467  1  -0.04834  0  -0.111634  -0.116096  0  4.07911  0
C  C105  1  0.46995283  0.95884687  0.47318953  1  -0.045647  0  -0.105159  -0.102382  0  4.08347  0
C  C106  1  0.82952066  0.55035938  0.95959798  1  -0.065418  0  -0.111999  -0.114783  0  4.084523  0
C  C107  1  0.83703260  0.45417739  0.95839050  1  -0.017076  0  -0.113395  -0.114703  0  4.078222  0
C  C108  1  0.50418655  0.11096595  0.48534939  1  -0.085066  0  -0.097947  -0.111107  0  4.061468  0
C  C109  1  0.55388520  0.91075672  0.46345548  1  -0.05019  0  -0.102482  -0.126288  0  4.049074  0
C  C110  1  0.86903711  0.59856618  0.99828026  1  -0.024144  0  -0.101794  -0.115915  0  4.051671  0
C  C111  1  0.86862980  0.39692668  0.00059853  1  -0.093252  0  -0.099213  -0.113197  0  4.033774  0
C  C112  1  0.31381626  0.79874476  0.72172975  1  0.018388  0  -0.101017  -0.204848  0  3.962372  0
C  C113  1  0.71508614  0.19919134  0.67898443  1  0.00534  0  -0.099807  -0.203257  0  3.952636  0
C  C114  1  0.76462908  0.26774165  0.18734587  1  -0.077293  0  -0.10079  -0.206508  0  3.96279  0
C  C115  1  0.24578751  0.71961716  0.18978608  1  -0.089514  0  -0.101883  -0.207407  0  3.969609  0
C  C116  1  0.69621481  0.33220421  0.21045366  1  -0.058767  0  -0.013631  0.126023  0  3.969744  0
C  C117  1  0.27452695  0.68015694  0.24125566  1  0.089656  0  -0.011464  0.129581  0  3.94822  0
C  C118  1  0.28457905  0.84296581  0.77230712  1  -0.010356  0  -0.011006  0.129612  0  3.945428  0
C  C119  1  0.78029706  0.13398161  0.70397135  1  -0.046095  0  -0.01255  0.12407  0  3.964037  0
C  C120  1  0.65952488  0.31573313  0.26353119  1  0.037642  0  -0.016217  0.015814  0  4.007858  0
C  C121  1  0.29690916  0.73483405  0.28644088  1  -0.052065  0  -0.015421  0.015056  0  4.000333  0
C  C122  1  0.24243792  0.79732892  0.81397590  1  -0.030232  0  -0.013203  0.018459  0  3.984165  0
C  C123  1  0.84297146  0.16089019  0.74290923  1  0.032282  0  -0.017458  0.016679  0  4.002944  0
C  C124  1  0.69014966  0.23371026  0.28986995  1  -0.070705  0  -0.098014  -0.132097  0  4.029936  0
C  C125  1  0.29320256  0.82620582  0.27666914  1  -0.023034  0  -0.100619  -0.135647  0  4.048681  0
C  C126  1  0.23698356  0.70714179  0.80317693  1  -0.072804  0  -0.098892  -0.132752  0  4.040701  0
C  C127  1  0.84205846  0.25285665  0.75078532  1  -0.072814  0  -0.101382  -0.136976  0  4.04626  0
C  C128  1  0.26728952  0.66418920  0.75286190  1  -0.056798  0  -0.102212  -0.145073  0  4.028553  0
C  C129  1  0.77676259  0.31660307  0.72583964  1  0.008893  0  -0.104522  -0.150652  0  4.036465  0
C  C130  1  0.75788644  0.16992702  0.26587795  1  -0.055742  0  -0.103447  -0.151308  0  4.036208  0
C  C131  1  0.26425553  0.86412924  0.22514403  1  -0.038268  0  -0.103277  -0.146173  0  4.02355  0
C  C132  1  0.31323619  0.58948514  0.63081798  1  0.374888  0  0.00622  -0.048843  0  3.958679  0
C  C133  1  0.63913091  0.44663912  0.65378055  1  0.40535  0  0.002005  -0.058852  0  4.018565  0
C  C134  1  0.87359468  0.03618313  0.16919104  1  0.354099  0  -0.000585  -0.066419  0  4.013172  0
C  C135  1  0.20214056  0.93559910  0.10647612  1  0.419354  0  0.006046  -0.049824  0  3.967512  0
C  C136  1  0.30504449  0.70993755  0.71013731  1  -0.005805  0  -0.015034  0.087376  0  4.072549  0
C  C137  1  0.70909372  0.29081187  0.69078275  1  -0.042795  0  -0.016712  0.086548  0  4.081484  0
C  C138  1  0.79788831  0.18706317  0.21447196  1  0.024334  0  -0.015713  0.087486  0  4.072884  0
C  C139  1  0.23779042  0.81146324  0.18084844  1  -0.03475  0  -0.012656  0.091452  0  4.073415  0
C  C140  1  0.91150401  0.35396580  0.52994857  1  -0.058296  0  -0.098037  -0.136958  0  4.001516  0
C  C141  1  0.00465037  0.35537624  0.53368765  1  -0.055179  0  -0.099603  -0.135705  0  4.011853  0
C  C142  1  0.47168170  0.12799953  0.04531895  1  -0.054678  0  -0.09877  -0.135368  0  4.011341  0
C  C143  1  0.56637873  0.11655445  0.04610206  1  -0.046082  0  -0.096598  -0.131192  0  4.000957  0
C  C144  1  0.05384805  0.37792754  0.48691599  1  -0.018981  0  -0.016639  0.076314  0  4.061138  0
C  C145  1  0.86282281  0.37648735  0.47949098  1  -0.045028  0  -0.014571  0.081468  0  4.044457  0
C  C146  1  0.61705207  0.11773812  0.99599539  1  0.005189  0  -0.013128  0.080923  0  4.048131  0
C  C147  1  0.42207737  0.14192104  0.99446033  1  0.012308  0  -0.016096  0.077483  0  4.058486  0
C  C148  1  0.00712182  0.38913354  0.43485276  1  -0.017513  0  -0.100941  -0.138457  0  4.016924  0
C  C149  1  0.91396372  0.38897227  0.43121995  1  -0.05442  0  -0.097778  -0.133764  0  4.011987  0
C  C150  1  0.56715570  0.13820802  0.94577848  1  -0.044791  0  -0.098628  -0.135078  0  4.007063  0
C  C151  1  0.47232873  0.15000021  0.94504904  1  -0.101891  0  -0.100452  -0.139314  0  4.017608  0
C  C152  1  0.19089923  0.44177909  0.45159825  1  0.407455  0  -3.1e-05  -0.059404  0  4.018581  0
C  C153  1  0.70237664  0.42421370  0.43431781  1  0.376406  0  0.00524  -0.044868  0  3.942423  0
C  C154  1  0.77376796  0.06636145  0.94867356  1  0.43021  0  0.005503  -0.047046  0  3.955435  0
C  C155  1  0.26879222  0.13115746  0.94536606  1  0.449714  0  0.001651  -0.058638  0  4.002364  0
C  C156  1  0.55796201  0.76727740  0.52030465  1  0.380211  0  0.008871  -0.041571  0  4.007284  0
C  C157  1  0.51684547  0.26717973  0.51938624  1  0.376306  0  0.000681  -0.054384  0  3.985869  0
C  C158  1  0.92915585  0.24224663  0.03873794  1  0.434746  0  0.003213  -0.05394  0  3.992407  0
C  C159  1  0.89787696  0.74453430  0.04169713  1  0.381116  0  0.004139  -0.061102  0  4.028689  0
C  C160  1  0.21039494  0.38336126  0.53638597  1  0.393058  0  0.000902  -0.060473  0  3.990613  0
C  C161  1  0.71222096  0.43749234  0.52700159  1  0.362679  0  0.007571  -0.038377  0  3.959572  0
C  C162  1  0.77288002  0.06030528  0.04194670  1  0.423529  0  0.006962  -0.04412  0  3.953431  0
C  C163  1  0.26313843  0.14143288  0.03822128  1  0.389682  0  0.001844  -0.059819  0  4.002914  0
C  C164  1  0.61567926  0.74896891  0.43397895  1  0.417671  0  0.085914  0.201128  0  3.99061  0
C  C165  1  0.43654815  0.26214922  0.44012362  1  0.442247  0  0.094939  0.213813  0  3.954938  0
C  C166  1  0.93961055  0.25492325  0.94571739  1  0.463923  0  0.096506  0.227671  0  3.941132  0
C  C167  1  0.87756875  0.74818627  0.94866584  1  0.470132  0  0.091145  0.207578  0  3.969411  0
C  C168  1  0.40817702  0.68503420  0.62236084  1  0.384186  0  0.003316  -0.054971  0  3.982074  0
C  C169  1  0.55157728  0.34438887  0.64552433  1  0.400873  0  0.002006  -0.056257  0  4.008756  0
C  C170  1  0.95035627  0.14691158  0.16267732  1  0.361688  0  0.002194  -0.06114  0  4.022845  0
C  C171  1  0.11913247  0.82868488  0.10109184  1  0.467307  0  0.003811  -0.054969  0  3.973248  0
C  C172  1  0.30139526  0.62583002  0.36995485  1  0.377658  0  0.004095  -0.053841  0  3.979002  0
C  C173  1  0.60345795  0.47166350  0.30638633  1  0.363493  0  0.003688  -0.059775  0  4.011631  0
C  C174  1  0.87890359  0.02795197  0.81113737  1  0.358734  0  0.005683  -0.057882  0  3.998716  0
C  C175  1  0.20414966  0.92159847  0.89271946  1  0.34345  0  0.003105  -0.053305  0  3.964603  0
C  C176  1  0.33046254  0.69543760  0.34047558  1  0.034281  0  -0.0317  -0.019307  0  4.06705  0
C  C177  1  0.59421418  0.38352503  0.29335250  1  0.023094  0  -0.036952  -0.03298  0  4.090476  0
C  C178  1  0.90195472  0.09929117  0.78007489  1  -0.005502  0  -0.037223  -0.034896  0  4.078937  0
C  C179  1  0.19379363  0.84319250  0.86288509  1  -0.039685  0  -0.034118  -0.025581  0  4.043737  0
C  C180  1  0.66176484  0.41593260  0.17824683  1  -0.091548  0  -0.238553  -0.406534  0  3.987672  0
C  C181  1  0.28319281  0.58046096  0.24600072  1  -0.089261  0  -0.241207  -0.40477  0  3.989049  0
C  C182  1  0.29562522  0.93889111  0.77945317  1  -0.043191  0  -0.239491  -0.400384  0  3.992081  0
C  C183  1  0.78366679  0.03718677  0.68851043  1  -0.033703  0  -0.238708  -0.404526  0  3.992812  0
C  C184  1  0.64826205  0.75882454  0.37519867  1  -0.05279  0  -0.230871  -0.421423  0  3.99122  0
C  C185  1  0.38135465  0.23842435  0.39128488  1  -0.053115  0  -0.230416  -0.42251  0  3.988577  0
C  C186  1  0.93727762  0.28790421  0.88701109  1  -0.099428  0  -0.235702  -0.42329  0  3.995209  0
C  C187  1  0.86421408  0.72997136  0.88745176  1  -0.044598  0  -0.229401  -0.417845  0  3.996717  0
N  N188  1  0.42822766  0.64818737  0.41183468  1  -0.779685  0  -0.287164  -0.193931  0  3.543122  0
N  N189  1  0.47965100  0.44833039  0.35065823  1  -0.799334  0  -0.270677  -0.207857  0  3.522335  0
N  N190  1  0.00856502  0.05438827  0.84735051  1  -0.774391  0  -0.270464  -0.187314  0  3.503609  0
N  N191  1  0.07422891  0.88752486  0.92158797  1  -0.788139  0  -0.286264  -0.18323  0  3.60511  0
N  N192  1  0.36595455  0.56552147  0.58493604  1  -0.781221  0  -0.278855  -0.183883  0  3.564852  0
N  N193  1  0.56281099  0.48351308  0.62624964  1  -0.758261  0  -0.264572  -0.190261  0  3.461972  0
N  N194  1  0.94665825  0.00890141  0.13569885  1  -0.781061  0  -0.275396  -0.185628  0  3.509795  0
N  N195  1  0.13585764  0.95882307  0.06767339  1  -0.792653  0  -0.284301  -0.180712  0  3.595611  0
N  N196  1  0.27343009  0.45330167  0.47029732  1  -0.777516  0  -0.27303  -0.198067  0  3.537479  0
N  N197  1  0.62207184  0.46980639  0.45382134  1  -0.782436  0  -0.286319  -0.197533  0  3.59144  0
N  N198  1  0.85701159  0.02644301  0.96623275  1  -0.828665  0  -0.286566  -0.190792  0  3.631523  0
N  N199  1  0.18318822  0.12557816  0.96147956  1  -0.780542  0  -0.269921  -0.179265  0  3.539545  0
N  N200  1  0.58314015  0.67922219  0.51108360  1  -0.809641  0  -0.281981  -0.203419  0  3.583143  0
N  N201  1  0.48585154  0.35199677  0.50355855  1  -0.770592  0  -0.284387  -0.206025  0  3.554067  0
N  N202  1  0.97604621  0.16538182  0.01794422  1  -0.79401  0  -0.286297  -0.185225  0  3.636008  0
N  N203  1  0.90846835  0.82558333  0.02408410  1  -0.792679  0  -0.278663  -0.17941  0  3.598615  0
N  N204  1  0.28612800  0.41658526  0.52296735  1  -0.79293  0  -0.266123  -0.173779  0  3.546019  0
N  N205  1  0.62879883  0.47792239  0.51096775  1  -0.802202  0  -0.283801  -0.18074  0  3.644  0
N  N206  1  0.85627997  0.02276663  0.02357078  1  -0.75461  0  -0.281409  -0.180535  0  3.628965  0
N  N207  1  0.17958820  0.13215183  0.01946238  1  -0.796869  0  -0.270346  -0.179665  0  3.530149  0
N  N208  1  0.61780419  0.66752961  0.45682069  1  -0.778764  0  -0.288296  -0.261764  0  3.458702  0
N  N209  1  0.44010112  0.34729678  0.45381650  1  -0.782969  0  -0.283803  -0.238242  0  3.607908  0
N  N210  1  0.98249489  0.17314876  0.96061780  1  -0.807965  0  -0.274334  -0.238727  0  3.528215  0
N  N211  1  0.89677621  0.82755607  0.96635795  1  -0.795113  0  -0.269525  -0.232613  0  3.485334  0
N  N212  1  0.42487329  0.62453105  0.57977134  1  -0.793844  0  -0.287301  -0.188868  0  3.58975  0
N  N213  1  0.50788357  0.41951304  0.62147098  1  -0.79503  0  -0.275852  -0.189099  0  3.543158  0
N  N214  1  0.99494104  0.07823283  0.13187523  1  -0.796461  0  -0.274089  -0.188652  0  3.50982  0
N  N215  1  0.08404016  0.89308574  0.06450825  1  -0.765435  0  -0.285352  -0.187089  0  3.572196  0
N  N216  1  0.36084034  0.59724171  0.41189216  1  -0.787821  0  -0.288771  -0.200022  0  3.577306  0
N  N217  1  0.53579746  0.50984028  0.34107081  1  -0.795601  0  -0.2858  -0.200881  0  3.542117  0
N  N218  1  0.94186475  0.00210310  0.85129626  1  -0.79072  0  -0.271758  -0.182201  0  3.544565  0
N  N219  1  0.13164386  0.94818046  0.92706566  1  -0.772314  0  -0.283283  -0.198484  0  3.547744  0
