# generated using pymatgen
data_Zn2H24C27N8
_symmetry_space_group_name_H-M   'P 1'
_cell_length_a   14.94541633
_cell_length_b   15.00890390
_cell_length_c   22.79186395
_cell_angle_alpha   89.29711116
_cell_angle_beta   90.47527001
_cell_angle_gamma   100.56962223
_symmetry_Int_Tables_number   1
_chemical_formula_structural   Zn2H24C27N8
_chemical_formula_sum   'Zn8 H96 C108 N32'
_cell_volume   5025.32238502
_cell_formula_units_Z   4
loop_
 _symmetry_equiv_pos_site_id
 _symmetry_equiv_pos_as_xyz
  1  'x, y, z'
loop_
 _atom_site_type_symbol
 _atom_site_label
 _atom_site_symmetry_multiplicity
 _atom_site_fract_x
 _atom_site_fract_y
 _atom_site_fract_z
 _atom_site_occupancy
 _atom_site_pbe_bader_charge
 _atom_site_pbe_bader_spin_density
 _atom_site_pbe_cm5_charge
 _atom_site_pbe_ddec_charge
 _atom_site_pbe_ddec_spin_density
 _atom_site_pbe_ddec_sum_bond_order
 _atom_site_pbe_magmom
Zn  Zn0  1  0.57460169  0.45099180  0.93969118  1  1.18486  0  0.744647  0.601793  0  2.489805  0
Zn  Zn1  1  0.57545889  0.44994776  0.08155973  1  1.182274  0  0.74275  0.605554  0  2.468943  0
Zn  Zn2  1  0.07329187  0.94946324  0.44133702  1  1.183915  0  0.743979  0.602524  0  2.484203  0
Zn  Zn3  1  0.07357396  0.94756589  0.58325308  1  1.185377  0  0.742891  0.605766  0  2.468614  0
Zn  Zn4  1  0.43360415  0.59316786  0.08256798  1  1.183849  0  0.738783  0.610215  0  2.431339  0
Zn  Zn5  1  0.42766691  0.58592135  0.93953724  1  1.18305  0  0.741128  0.611139  0  2.436484  0
Zn  Zn6  1  0.93251266  0.09110099  0.58364567  1  1.183689  0  0.739208  0.607374  0  2.441507  0
Zn  Zn7  1  0.92702977  0.08524909  0.44038350  1  1.1859  0  0.739992  0.612383  0  2.429744  0
H  H8  1  0.43999501  0.25882789  0.92652914  1  0.093493  0  0.112113  0.096799  0  1.028858  0
H  H9  1  0.46079833  0.92032996  0.01381903  1  0.026721  0  0.086902  0.083521  0  0.989842  0
H  H10  1  0.03663705  0.42768003  0.59076021  1  -0.020955  0  0.085683  0.078606  0  0.995663  0
H  H11  1  0.95604153  0.41831332  0.50526439  1  0.018954  0  0.087484  0.084489  0  0.987544  0
H  H12  1  0.67811392  0.93344182  0.08837977  1  0.025287  0  0.09052  0.090224  0  0.99545  0
H  H13  1  0.49545904  0.93223639  0.94059857  1  0.04112  0  0.085786  0.082531  0  1.029496  0
H  H14  1  0.15422879  0.42975373  0.59748235  1  0.013338  0  0.088555  0.083359  0  1.004785  0
H  H15  1  0.00351137  0.42859141  0.43508081  1  0.021353  0  0.085072  0.08082  0  1.034149  0
H  H16  1  0.75507963  0.11411793  0.97411219  1  0.022668  0  0.088067  0.086037  0  1.004257  0
H  H17  1  0.66813460  0.09847669  0.92065621  1  -0.005805  0  0.08454  0.081138  0  1.020236  0
H  H18  1  0.25658663  0.61092878  0.49166149  1  -0.001336  0  0.088556  0.089756  0  1.007069  0
H  H19  1  0.43252819  0.26284514  0.09965467  1  0.086682  0  0.111755  0.09553  0  1.024478  0
H  H20  1  0.18571912  0.59937828  0.42931965  1  0.003522  0  0.084728  0.082222  0  1.014412  0
H  H21  1  0.33331613  0.16408392  0.15819795  1  0.042302  0  0.095882  0.094254  0  1.01062  0
H  H22  1  0.35376253  0.17394121  0.85341357  1  0.039398  0  0.095389  0.093991  0  1.01201  0
H  H23  1  0.81706240  0.65298828  0.64616285  1  0.058282  0  0.096878  0.095939  0  1.008173  0
H  H24  1  0.85405668  0.67532461  0.35300893  1  0.036069  0  0.095933  0.094756  0  1.010858  0
H  H25  1  0.72355132  0.55991414  0.71972013  1  0.046201  0  0.095425  0.093333  0  1.011466  0
H  H26  1  0.76269028  0.58428436  0.27801827  1  0.042105  0  0.094456  0.091726  0  1.011818  0
H  H27  1  0.23997447  0.07080736  0.23157205  1  0.001797  0  0.094666  0.091601  0  1.013004  0
H  H28  1  0.26143743  0.08219934  0.77919529  1  0.062948  0  0.094981  0.091949  0  1.011452  0
H  H29  1  0.54424522  0.75427144  0.72427199  1  0.044579  0  0.095894  0.093513  0  1.010663  0
H  H30  1  0.93797766  0.75763804  0.42862592  1  0.11071  0  0.111712  0.096535  0  1.02806  0
H  H31  1  0.53222972  0.70528422  0.32184467  1  0.058653  0  0.095978  0.094054  0  1.006934  0
H  H32  1  0.04183936  0.24599870  0.21976401  1  0.050616  0  0.096232  0.094195  0  1.008823  0
H  H33  1  0.03314787  0.20758782  0.82131471  1  0.025717  0  0.095351  0.093171  0  1.007372  0
H  H34  1  0.13508803  0.33913753  0.14594253  1  0.013783  0  0.09846  0.098394  0  1.005136  0
H  H35  1  0.12607629  0.30013555  0.89588050  1  0.043265  0  0.098271  0.09946  0  1.000853  0
H  H36  1  0.63734780  0.84695446  0.65043553  1  0.032845  0  0.097349  0.096537  0  1.007945  0
H  H37  1  0.62418172  0.79702425  0.39728776  1  0.053928  0  0.098794  0.100051  0  0.999837  0
H  H38  1  0.91447174  0.68934048  0.09781897  1  0.060078  0  0.098719  0.098162  0  1.002515  0
H  H39  1  0.90791757  0.62189624  0.91444539  1  0.042478  0  0.096799  0.094762  0  1.011273  0
H  H40  1  0.41363606  0.18070534  0.60165243  1  0.045031  0  0.097966  0.097957  0  1.003092  0
H  H41  1  0.92854912  0.76074383  0.60069744  1  0.094428  0  0.112355  0.096343  0  1.023581  0
H  H42  1  0.40809205  0.12945005  0.41590126  1  0.035995  0  0.096826  0.096487  0  1.008663  0
H  H43  1  0.24667418  0.45319899  0.10412730  1  0.076869  0  0.113652  0.099743  0  1.012956  0
H  H44  1  0.24201578  0.43683655  0.91963353  1  0.089672  0  0.114529  0.100548  0  1.011654  0
H  H45  1  0.74352209  0.95218309  0.60028054  1  0.091475  0  0.114947  0.101282  0  1.015352  0
H  H46  1  0.74098228  0.93648609  0.41867130  1  0.08147  0  0.114234  0.100287  0  1.009854  0
H  H47  1  0.08067510  0.70298165  0.09861259  1  0.058267  0  0.095307  0.093745  0  1.006804  0
H  H48  1  0.07314046  0.63605079  0.91504060  1  0.045716  0  0.095304  0.092816  0  1.011468  0
H  H49  1  0.57965997  0.19506479  0.60211142  1  0.046146  0  0.095093  0.093318  0  1.008034  0
H  H50  1  0.57334200  0.14432533  0.41625323  1  0.035886  0  0.095001  0.092457  0  1.011562  0
H  H51  1  0.22610565  0.64256297  0.91509336  1  0.063368  0  0.114683  0.10072  0  1.006034  0
H  H52  1  0.59417738  0.08697936  0.10249728  1  -0.000654  0  0.084517  0.077257  0  0.993377  0
H  H53  1  0.22896238  0.65737645  0.10457874  1  0.062351  0  0.114048  0.100788  0  1.004446  0
H  H54  1  0.72528352  0.14298272  0.41664498  1  0.091805  0  0.114601  0.100541  0  1.00579  0
H  H55  1  0.72955843  0.15675060  0.60618365  1  0.081951  0  0.113842  0.10067  0  1.005417  0
H  H56  1  0.62057677  0.24384954  0.10539721  1  0.096673  0  0.112457  0.10042  0  1.010922  0
H  H57  1  0.63025348  0.25099662  0.91590410  1  0.082966  0  0.112689  0.098856  0  1.005082  0
H  H58  1  0.11644154  0.74101033  0.60712155  1  0.068403  0  0.112762  0.10052  0  1.011154  0
H  H59  1  0.12472448  0.74766196  0.41759541  1  0.054311  0  0.112803  0.099097  0  1.004349  0
H  H60  1  0.75039472  0.60438322  0.91381352  1  0.105109  0  0.114763  0.10059  0  1.012978  0
H  H61  1  0.76121522  0.59527906  0.10394372  1  0.083025  0  0.114757  0.100756  0  1.011599  0
H  H62  1  0.25023344  0.10278606  0.41601970  1  0.093111  0  0.114281  0.100182  0  1.013343  0
H  H63  1  0.47250901  0.07704234  0.02041992  1  0.027744  0  0.08644  0.082418  0  0.984172  0
H  H64  1  0.26027495  0.09249190  0.60615679  1  0.092648  0  0.114534  0.10028  0  1.013524  0
H  H65  1  0.57293561  0.78132147  0.10071561  1  0.084819  0  0.111938  0.09825  0  1.023496  0
H  H66  1  0.55886660  0.77506302  0.91097615  1  0.044679  0  0.110515  0.095307  0  1.043399  0
H  H67  1  0.07217832  0.27727532  0.60294502  1  0.094051  0  0.112073  0.098985  0  1.021174  0
H  H68  1  0.05778885  0.27426018  0.41319101  1  0.08771  0  0.110504  0.094302  0  1.040509  0
H  H69  1  0.47039241  0.67919633  0.80565655  1  0.081137  0  0.11566  0.101587  0  1.005222  0
H  H70  1  0.48806095  0.68282506  0.21612094  1  0.059918  0  0.114546  0.101033  0  1.003906  0
H  H71  1  0.97522153  0.18132113  0.30733661  1  0.091302  0  0.114442  0.100084  0  1.004172  0
H  H72  1  0.98689326  0.18151334  0.71685837  1  0.080634  0  0.114737  0.101126  0  1.004255  0
H  H73  1  0.66594621  0.48569659  0.21437131  1  0.096053  0  0.115116  0.101041  0  1.00106  0
H  H74  1  0.06806135  0.58301300  0.60121867  1  -0.00884  0  0.084494  0.077219  0  0.992114  0
H  H75  1  0.66389037  0.49707846  0.80741190  1  0.074558  0  0.114428  0.101448  0  1.003878  0
H  H76  1  0.16432574  0.98392101  0.71569902  1  0.054775  0  0.11554  0.101825  0  1.000274  0
H  H77  1  0.16488022  0.99533856  0.30998568  1  0.106351  0  0.114451  0.100634  0  1.004669  0
H  H78  1  0.70893916  0.09250582  0.08242404  1  0.031973  0  0.08698  0.081469  0  0.990473  0
H  H79  1  0.50764134  0.08909211  0.94669757  1  0.003525  0  0.083  0.07309  0  1.00271  0
H  H80  1  0.18626617  0.58849477  0.59221675  1  0.015031  0  0.086725  0.080611  0  0.987154  0
H  H81  1  0.01856047  0.58581595  0.43833164  1  0.010862  0  0.08278  0.072198  0  1.00465  0
H  H82  1  0.75565265  0.82615779  0.03389628  1  0.016846  0  0.078335  0.104893  0  1.043782  0
H  H83  1  0.79493154  0.82738724  0.96113019  1  0.016734  0  0.080958  0.108252  0  1.023541  0
H  H84  1  0.87140390  0.87034153  0.01783534  1  0.022973  0  0.08318  0.114268  0  1.001202  0
H  H85  1  0.96619928  0.57516847  0.50765771  1  0.023232  0  0.086529  0.082638  0  0.98364  0
H  H86  1  0.83320314  0.00051242  0.96428692  1  0.01658  0  0.085114  0.073906  0  0.990346  0
H  H87  1  0.78924032  0.99736662  0.03511478  1  0.005527  0  0.085919  0.077963  0  1.006306  0
H  H88  1  0.54899742  0.89881882  0.86650681  1  0.001545  0  0.079345  0.09884  0  1.045211  0
H  H89  1  0.59273050  0.01631963  0.86032555  1  -0.010606  0  0.080191  0.103476  0  1.026496  0
H  H90  1  0.63253406  0.93909447  0.81343855  1  0.037612  0  0.08427  0.111982  0  1.003301  0
H  H91  1  0.75216728  0.97729947  0.88249687  1  -0.00226  0  0.08842  0.081192  0  0.976104  0
H  H92  1  0.69755159  0.86767565  0.90170492  1  0.01073  0  0.088302  0.081424  0  1.008784  0
H  H93  1  0.38310213  0.45191390  0.44630125  1  0.004267  0  0.084359  0.109369  0  1.015524  0
H  H94  1  0.37659030  0.56038197  0.47419424  1  0.01093  0  0.080886  0.103674  0  1.021822  0
H  H95  1  0.42135306  0.48121753  0.51826051  1  0.038824  0  0.087254  0.117193  0  0.996137  0
H  H96  1  0.56037651  0.93188649  0.09344776  1  0.010299  0  0.085285  0.077693  0  0.997266  0
H  H97  1  0.27167696  0.47949636  0.55492419  1  -0.013963  0  0.086399  0.080304  0  1.006257  0
H  H98  1  0.26671361  0.37655309  0.51752406  1  0.007414  0  0.08655  0.081192  0  0.994767  0
H  H99  1  0.06935027  0.39896043  0.36645203  1  -0.003729  0  0.078405  0.097986  0  1.046265  0
H  H100  1  0.11434168  0.51651902  0.36423580  1  -0.021259  0  0.080596  0.103956  0  1.027295  0
H  H101  1  0.16213998  0.44095277  0.32040277  1  0.010968  0  0.084279  0.112271  0  1.001865  0
H  H102  1  0.26821178  0.47451922  0.39690161  1  0.044368  0  0.09037  0.086325  0  0.991582  0
H  H103  1  0.20963579  0.36537442  0.41403984  1  0.028096  0  0.087851  0.081204  0  0.994278  0
C  C104  1  0.40207780  0.31395490  0.92775869  1  0.383087  0  0.004299  -0.051624  0  3.964784  0
C  C105  1  0.61002898  0.53518089  0.81515830  1  0.444502  0  0.002304  -0.063455  0  4.009274  0
C  C106  1  0.05529419  0.26082679  0.46009670  1  0.353089  0  0.000837  -0.056959  0  3.967749  0
C  C107  1  0.78070876  0.96151138  0.99302977  1  -0.024172  0  -0.165078  -0.149149  0  3.930357  0
C  C108  1  0.80115639  0.86623878  0.00192488  1  -0.054047  0  -0.253467  -0.357598  0  3.983985  0
C  C109  1  0.68865439  0.93877694  0.90127813  1  -0.00063  0  -0.164227  -0.143449  0  3.901304  0
C  C110  1  0.61128854  0.94879723  0.85863111  1  -0.056036  0  -0.248338  -0.349913  0  3.978751  0
C  C111  1  0.27408979  0.45046639  0.51102018  1  0.02814  0  -0.165813  -0.157992  0  3.91944  0
C  C112  1  0.36833807  0.48788092  0.48567023  1  -0.067792  0  -0.247289  -0.35281  0  3.985124  0
C  C113  1  0.20190999  0.43695871  0.41177875  1  -0.042692  0  -0.16414  -0.145383  0  3.897719  0
C  C114  1  0.13278210  0.44887929  0.36366490  1  -0.018888  0  -0.247648  -0.349184  0  3.978201  0
C  C115  1  0.11448219  0.02698886  0.70737669  1  0.41014  0  0.002735  -0.061935  0  4.008536  0
C  C116  1  0.11181696  0.03453140  0.31748578  1  0.345046  0  0.001891  -0.062841  0  4.009437  0
C  C117  1  0.79821867  0.62014502  0.00830535  1  0.018827  0  -0.034126  -0.034962  0  4.063333  0
C  C118  1  0.29765135  0.11840315  0.51061406  1  -0.005351  0  -0.03746  -0.044834  0  4.07205  0
C  C119  1  0.58260849  0.82212527  0.00484486  1  -0.0657  0  -0.028159  -0.025044  0  3.956651  0
C  C120  1  0.08115080  0.31967906  0.50739378  1  -0.007186  0  -0.031123  -0.039623  0  3.977629  0
C  C121  1  0.58395535  0.60573299  0.78181073  1  -0.03867  0  -0.039281  -0.041975  0  4.101339  0
C  C122  1  0.59443361  0.59940039  0.23997905  1  -0.00902  0  -0.040279  -0.043919  0  4.108378  0
C  C123  1  0.08804950  0.10642148  0.28433463  1  0.051153  0  -0.040056  -0.043881  0  4.102471  0
C  C124  1  0.39770088  0.32023880  0.09740899  1  0.384026  0  0.006061  -0.049048  0  3.961028  0
C  C125  1  0.09346109  0.09839490  0.74081227  1  0.032444  0  -0.040252  -0.043138  0  4.106455  0
C  C126  1  0.63833261  0.06445340  0.06951574  1  -0.054514  0  -0.1609  -0.184561  0  3.880838  0
C  C127  1  0.52223115  0.05930410  0.98931632  1  -0.038079  0  -0.162052  -0.180491  0  3.876146  0
C  C128  1  0.11913764  0.56070911  0.57313120  1  -0.045194  0  -0.161279  -0.18322  0  3.882832  0
C  C129  1  0.02253789  0.55652457  0.48260160  1  -0.022337  0  -0.161657  -0.181724  0  3.87564  0
C  C130  1  0.62140834  0.95980047  0.06784759  1  1.2e-05  0  -0.162381  -0.18974  0  3.879851  0
C  C131  1  0.51472941  0.95589239  0.98493246  1  -0.049707  0  -0.164146  -0.184837  0  3.861773  0
C  C132  1  0.10292939  0.45629413  0.57120462  1  0.046839  0  -0.164215  -0.191811  0  3.890405  0
C  C133  1  0.01500239  0.45289323  0.48001448  1  -0.042113  0  -0.164844  -0.183981  0  3.863102  0
C  C134  1  0.68622329  0.07625710  0.96469453  1  -0.027682  0  -0.160194  -0.246716  0  3.832207  0
C  C135  1  0.90036219  0.81302998  0.42909927  1  0.390686  0  0.006075  -0.048976  0  3.961557  0
C  C136  1  0.19125675  0.57418834  0.47453158  1  -0.021435  0  -0.160161  -0.247412  0  3.82  0
C  C137  1  0.61928645  0.10366083  0.00902058  1  0.055762  0  -0.013136  0.132822  0  3.851525  0
C  C138  1  0.11396464  0.60058286  0.51102478  1  0.06579  0  -0.013513  0.134361  0  3.847018  0
C  C139  1  0.60471770  0.92480557  0.00434824  1  0.107173  0  -0.001578  0.084219  0  3.720795  0
C  C140  1  0.10060923  0.42226154  0.50719334  1  0.080488  0  -0.002948  0.083427  0  3.727154  0
C  C141  1  0.30283610  0.41713910  0.09938771  1  0.397103  0  0.006654  -0.048597  0  3.961746  0
C  C142  1  0.30092422  0.40455561  0.92502124  1  0.371792  0  0.006892  -0.048773  0  3.960313  0
C  C143  1  0.79971371  0.91580641  0.59712427  1  0.392946  0  0.004051  -0.05173  0  3.961533  0
C  C144  1  0.79968559  0.90409687  0.42484743  1  0.371481  0  0.007466  -0.047756  0  3.961712  0
C  C145  1  0.68745975  0.97220113  0.96542911  1  0.04158  0  -0.00779  0.09939  0  3.64115  0
C  C146  1  0.89411307  0.81831907  0.59731648  1  0.433159  0  0.007218  -0.046385  0  3.960387  0
C  C147  1  0.19057246  0.46991871  0.47504766  1  0.046225  0  -0.00761  0.105046  0  3.643141  0
C  C148  1  0.26896906  0.18240216  0.17101016  1  -0.021674  0  -0.098227  -0.133629  0  4.011818  0
C  C149  1  0.28291342  0.18097256  0.84739842  1  -0.027226  0  -0.098076  -0.133607  0  4.010078  0
C  C150  1  0.75707330  0.67588602  0.66291205  1  -0.055217  0  -0.099289  -0.134951  0  4.009103  0
C  C151  1  0.78287928  0.68134657  0.34725954  1  -0.016496  0  -0.098544  -0.133456  0  4.010841  0
C  C152  1  0.70408571  0.62310945  0.70483315  1  -0.03235  0  -0.100584  -0.13856  0  4.018701  0
C  C153  1  0.73111534  0.62981853  0.30466130  1  -0.00812  0  -0.099602  -0.135393  0  4.020824  0
C  C154  1  0.21603091  0.12950771  0.21284412  1  -0.035842  0  -0.100102  -0.13577  0  4.018572  0
C  C155  1  0.23056937  0.12897091  0.80523165  1  -0.065791  0  -0.100151  -0.135958  0  4.020883  0
C  C156  1  0.62876292  0.65168068  0.73023073  1  -0.042682  0  -0.018512  0.074833  0  4.067171  0
C  C157  1  0.51174293  0.62803768  0.81440905  1  0.425539  0  0.002018  -0.06027  0  4.001804  0
C  C158  1  0.64137843  0.64066155  0.29209090  1  -0.015207  0  -0.017089  0.076068  0  4.06655  0
C  C159  1  0.13500020  0.15285191  0.23355316  1  -0.006742  0  -0.018574  0.074441  0  4.065237  0
C  C160  1  0.14112961  0.14058392  0.79244447  1  0.03083  0  -0.017764  0.075537  0  4.068152  0
C  C161  1  0.60395281  0.73113837  0.70719467  1  -0.053368  0  -0.099164  -0.136605  0  4.018021  0
C  C162  1  0.60328276  0.69900458  0.32824987  1  -0.032189  0  -0.099483  -0.136118  0  4.013304  0
C  C163  1  0.10587412  0.22735739  0.20645165  1  -0.055125  0  -0.098823  -0.135982  0  4.016485  0
C  C164  1  0.10394761  0.20048757  0.82790407  1  -0.030814  0  -0.099342  -0.136422  0  4.015578  0
C  C165  1  0.15881852  0.28023528  0.16449492  1  -0.050279  0  -0.098298  -0.135958  0  4.008091  0
C  C166  1  0.15649323  0.25270422  0.87016822  1  -0.058281  0  -0.096941  -0.136226  0  4.005675  0
C  C167  1  0.65688791  0.78381403  0.66521392  1  -0.015658  0  -0.097139  -0.134002  0  4.009474  0
C  C168  1  0.52456002  0.62821155  0.20726040  1  0.425398  0  0.001519  -0.06125  0  4.005029  0
C  C169  1  0.65522058  0.75070210  0.37099615  1  -0.113189  0  -0.097929  -0.137302  0  4.005608  0
C  C170  1  0.24384151  0.26155254  0.14759454  1  0.045357  0  -0.013142  0.082829  0  4.050637  0
C  C171  1  0.24874411  0.24752942  0.87886909  1  -0.003081  0  -0.013043  0.085025  0  4.046275  0
C  C172  1  0.73762255  0.76007729  0.64422578  1  0.002393  0  -0.012685  0.083748  0  4.049905  0
C  C173  1  0.74777561  0.74660313  0.37940898  1  0.01776  0  -0.012877  0.083057  0  4.048215  0
C  C174  1  0.94881638  0.67687930  0.05749348  1  -0.017142  0  -0.097529  -0.136794  0  4.006129  0
C  C175  1  0.94522450  0.64087274  0.95507190  1  -0.042761  0  -0.09847  -0.135542  0  4.015044  0
C  C176  1  0.44810235  0.17208219  0.56066028  1  -0.088528  0  -0.098398  -0.13625  0  4.003992  0
C  C177  1  0.44504461  0.14478332  0.45707487  1  -0.043181  0  -0.098447  -0.135862  0  4.011713  0
C  C178  1  0.04311564  0.68454271  0.05793283  1  -0.085746  0  -0.099065  -0.137777  0  4.010783  0
C  C179  1  0.01516310  0.12899953  0.31614929  1  0.380484  0  0.002758  -0.058704  0  4.003046  0
C  C180  1  0.03918352  0.64859533  0.95549581  1  -0.031953  0  -0.099642  -0.135526  0  4.018164  0
C  C181  1  0.54243320  0.18013323  0.56092821  1  -0.021703  0  -0.100144  -0.13751  0  4.011363  0
C  C182  1  0.53911147  0.15289654  0.45734846  1  -0.009544  0  -0.099811  -0.135469  0  4.016993  0
C  C183  1  0.09027758  0.66622138  0.00759889  1  -0.011788  0  -0.017334  0.076648  0  4.062512  0
C  C184  1  0.58997756  0.16618425  0.50980232  1  0.026302  0  -0.017411  0.075619  0  4.061469  0
C  C185  1  0.24122972  0.64385229  0.96178909  1  0.419197  0  0.000957  -0.064526  0  4.01336  0
C  C186  1  0.24304851  0.65200300  0.05819274  1  0.380613  0  0.000908  -0.063501  0  4.006225  0
C  C187  1  0.74071773  0.14405751  0.46329546  1  0.365047  0  0.001757  -0.06207  0  4.011128  0
C  C188  1  0.74317468  0.15156942  0.55972312  1  0.407581  0  0.001015  -0.064884  0  4.005947  0
C  C189  1  0.89696539  0.65017623  0.00674704  1  0.019338  0  -0.009142  0.085147  0  4.043023  0
C  C190  1  0.02319406  0.12668884  0.70819811  1  0.385764  0  0.002223  -0.060346  0  4.003885  0
C  C191  1  0.39640036  0.14930509  0.50929151  1  0.021449  0  -0.01214  0.084546  0  4.04608  0
C  C192  1  0.62182077  0.26050562  0.05886988  1  0.331768  0  -0.005  -0.076926  0  4.027816  0
C  C193  1  0.62695632  0.26421869  0.96252939  1  0.36416  0  -0.003327  -0.069018  0  4.015919  0
C  C194  1  0.11768756  0.75765379  0.56059692  1  0.355775  0  -0.005741  -0.078323  0  4.031563  0
C  C195  1  0.12214532  0.76112322  0.46423098  1  0.392571  0  -0.003097  -0.070338  0  4.019275  0
C  C196  1  0.31096432  0.31531810  0.91226177  1  0.037356  0  -0.037852  -0.043161  0  4.074834  0
C  C197  1  0.30835009  0.32671170  0.11356869  1  0.035619  0  -0.037594  -0.042091  0  4.076499  0
C  C198  1  0.80956847  0.81454276  0.41294631  1  0.022885  0  -0.037793  -0.042915  0  4.077498  0
C  C199  1  0.80397557  0.82511310  0.61136187  1  -0.0155  0  -0.037267  -0.04188  0  4.073217  0
C  C200  1  0.18618377  0.65796023  0.00929652  1  0.010586  0  -0.040322  -0.042626  0  4.101979  0
C  C201  1  0.61607079  0.52873368  0.20610371  1  0.373716  0  0.002752  -0.060995  0  4.009316  0
C  C202  1  0.68594755  0.15790041  0.51103764  1  0.00532  0  -0.040518  -0.043135  0  4.100467  0
C  C203  1  0.62563523  0.20459095  0.01050822  1  0.034588  0  -0.034635  -0.043634  0  4.01772  0
C  C204  1  0.12017602  0.70146252  0.51224713  1  0.025405  0  -0.034637  -0.044079  0  4.021906  0
C  C205  1  0.73896302  0.59449127  0.96062489  1  0.359408  0  0.007061  -0.050727  0  3.957629  0
C  C206  1  0.74404939  0.59058250  0.05756771  1  0.397506  0  0.008087  -0.048728  0  3.956124  0
C  C207  1  0.23866851  0.09259554  0.46279295  1  0.40935  0  0.006314  -0.046814  0  3.958931  0
C  C208  1  0.24342256  0.08788935  0.55974587  1  0.379104  0  0.006031  -0.048639  0  3.960414  0
C  C209  1  0.56277810  0.76567019  0.05450953  1  0.358324  0  -0.002625  -0.072857  0  3.988161  0
C  C210  1  0.55598128  0.76270983  0.95796933  1  0.442253  0  5.5e-05  -0.061322  0  3.960962  0
C  C211  1  0.06250086  0.26219947  0.55662589  1  0.367812  0  -0.002395  -0.067611  0  3.989073  0
N  N212  1  0.44251138  0.39626493  0.94673899  1  -0.755618  0  -0.282506  -0.178612  0  3.631524  0
N  N213  1  0.32458081  0.63567611  0.04101529  1  -0.803584  0  -0.267866  -0.177335  0  3.528295  0
N  N214  1  0.82285491  0.13073198  0.48203622  1  -0.798702  0  -0.271225  -0.173836  0  3.548098  0
N  N215  1  0.82459183  0.13536672  0.54220406  1  -0.780685  0  -0.268171  -0.175249  0  3.526179  0
N  N216  1  0.62036926  0.34642753  0.04104942  1  -0.8179  0  -0.278184  -0.180111  0  3.556554  0
N  N217  1  0.62356159  0.34866751  0.98091136  1  -0.748786  0  -0.278165  -0.179038  0  3.554086  0
N  N218  1  0.11764053  0.84382002  0.54274768  1  -0.796643  0  -0.278569  -0.179179  0  3.559611  0
N  N219  1  0.12039306  0.84591253  0.48259528  1  -0.772483  0  -0.277597  -0.178657  0  3.553768  0
N  N220  1  0.65757632  0.55126030  0.98041662  1  -0.752952  0  -0.28281  -0.178818  0  3.629183  0
N  N221  1  0.66070860  0.54879644  0.03999136  1  -0.812233  0  -0.281091  -0.178703  0  3.625216  0
N  N222  1  0.15749999  0.04851129  0.48237180  1  -0.808716  0  -0.282874  -0.180824  0  3.630196  0
N  N223  1  0.44140980  0.40087748  0.07679690  1  -0.790161  0  -0.28105  -0.175712  0  3.626283  0
N  N224  1  0.16040963  0.04561859  0.54194175  1  -0.774476  0  -0.279539  -0.175248  0  3.62176  0
N  N225  1  0.52622216  0.68031190  0.03811390  1  -0.740091  0  -0.288923  -0.186531  0  3.638151  0
N  N226  1  0.52220320  0.67858476  0.97868447  1  -0.828125  0  -0.284438  -0.181764  0  3.635792  0
N  N227  1  0.02677546  0.17692466  0.53969073  1  -0.809596  0  -0.289682  -0.186304  0  3.63597  0
N  N228  1  0.02250510  0.17620247  0.48020066  1  -0.763365  0  -0.285762  -0.185299  0  3.633453  0
N  N229  1  0.49651427  0.57527615  0.86280657  1  -0.766613  0  -0.268798  -0.1729  0  3.536913  0
N  N230  1  0.50659250  0.57894965  0.15813262  1  -0.808627  0  -0.269496  -0.174821  0  3.533161  0
N  N231  1  0.99757920  0.07532034  0.36399667  1  -0.724091  0  -0.268112  -0.174951  0  3.532803  0
N  N232  1  0.00442645  0.07647336  0.65951891  1  -0.807831  0  -0.27008  -0.175421  0  3.533289  0
N  N233  1  0.56356205  0.51681523  0.15759977  1  -0.763717  0  -0.272454  -0.17173  0  3.556261  0
N  N234  1  0.94084581  0.89556895  0.44769982  1  -0.805229  0  -0.283965  -0.180505  0  3.63058  0
N  N235  1  0.55782421  0.51744313  0.86321438  1  -0.822849  0  -0.275364  -0.174732  0  3.562296  0
N  N236  1  0.06130965  0.01424800  0.65919398  1  -0.78063  0  -0.272584  -0.170694  0  3.558041  0
N  N237  1  0.05790363  0.01644674  0.36475351  1  -0.844888  0  -0.274132  -0.171887  0  3.554266  0
N  N238  1  0.93932504  0.89900928  0.57780865  1  -0.821284  0  -0.281079  -0.177555  0  3.62743  0
N  N239  1  0.38313309  0.46041236  0.07798433  1  -0.770639  0  -0.282163  -0.181478  0  3.634664  0
N  N240  1  0.38048599  0.45205500  0.94500021  1  -0.802103  0  -0.281168  -0.177883  0  3.621391  0
N  N241  1  0.88135043  0.95888570  0.57766340  1  -0.750881  0  -0.282521  -0.180548  0  3.634628  0
N  N242  1  0.87910833  0.95162330  0.44501133  1  -0.757344  0  -0.280433  -0.177699  0  3.625395  0
N  N243  1  0.32320085  0.63067700  0.98087476  1  -0.75993  0  -0.271703  -0.171732  0  3.552577  0
