# generated using pymatgen
data_TlH5C7O3
_symmetry_space_group_name_H-M   'P 1'
_cell_length_a   10.33420124
_cell_length_b   10.54063005
_cell_length_c   13.00203840
_cell_angle_alpha   89.99992446
_cell_angle_beta   89.99993927
_cell_angle_gamma   89.99995027
_symmetry_Int_Tables_number   1
_chemical_formula_structural   TlH5C7O3
_chemical_formula_sum   'Tl8 H40 C56 O24'
_cell_volume   1416.29893935
_cell_formula_units_Z   8
loop_
 _symmetry_equiv_pos_site_id
 _symmetry_equiv_pos_as_xyz
  1  'x, y, z'
loop_
 _atom_site_type_symbol
 _atom_site_label
 _atom_site_symmetry_multiplicity
 _atom_site_fract_x
 _atom_site_fract_y
 _atom_site_fract_z
 _atom_site_occupancy
 _atom_site_hle17_bader_spin_density
 _atom_site_hle17_ddec_charge
 _atom_site_hle17_ddec_spin_density
 _atom_site_hle17_ddec_sum_bond_order
 _atom_site_hle17_magmom
 _atom_site_hse06_10hf_bader_spin_density
 _atom_site_hse06_10hf_ddec_charge
 _atom_site_hse06_10hf_ddec_spin_density
 _atom_site_hse06_10hf_ddec_sum_bond_order
 _atom_site_hse06_10hf_magmom
 _atom_site_hse06_bader_spin_density
 _atom_site_hse06_ddec_charge
 _atom_site_hse06_ddec_spin_density
 _atom_site_hse06_ddec_sum_bond_order
 _atom_site_hse06_magmom
 _atom_site_pbe_bader_spin_density
 _atom_site_pbe_cm5_charge
 _atom_site_pbe_ddec_charge
 _atom_site_pbe_ddec_spin_density
 _atom_site_pbe_ddec_sum_bond_order
 _atom_site_pbe_magmom
Tl  Tl0  1  0.89966453  0.63361512  0.39937820  1  0  0.802183  0  0.812628  0  0  0.694735  0  1.093411  0  0  0.720891  0  1.076757  0  0  0.406987  0.675493  0  1.105715  0
Tl  Tl1  1  0.10033575  0.86638482  0.89937924  1  0  0.802174  0  0.812639  0  0  0.694715  0  1.09342  0  0  0.720872  0  1.076765  0  0  0.406988  0.675472  0  1.105732  0
Tl  Tl2  1  0.39966394  0.36638487  0.10062155  1  0  0.802178  0  0.812643  0  0  0.694723  0  1.093421  0  0  0.720882  0  1.076767  0  0  0.406943  0.675429  0  1.105743  0
Tl  Tl3  1  0.60033524  0.13361556  0.60062165  1  0  0.802177  0  0.812638  0  0  0.694724  0  1.093417  0  0  0.720882  0  1.076765  0  0  0.407004  0.675489  0  1.105734  0
Tl  Tl4  1  0.10033423  0.36638459  0.60062097  1  0  0.802174  0  0.812649  0  0  0.694721  0  1.093433  0  0  0.720877  0  1.076777  0  0  0.406961  0.675447  0  1.105744  0
Tl  Tl5  1  0.89966399  0.13361489  0.10062070  1  0  0.802168  0  0.812646  0  0  0.694715  0  1.09343  0  0  0.720872  0  1.076777  0  0  0.407043  0.675537  0  1.105735  0
Tl  Tl6  1  0.60033482  0.63361484  0.89937916  1  0  0.802173  0  0.812628  0  0  0.694719  0  1.093408  0  0  0.720875  0  1.076755  0  0  0.406984  0.675474  0  1.105717  0
Tl  Tl7  1  0.39966449  0.86638510  0.39937828  1  0  0.80218  0  0.812636  0  0  0.694723  0  1.093411  0  0  0.720881  0  1.07676  0  0  0.407005  0.675489  0  1.105732  0
H  H8  1  0.56759904  0.17332640  0.93905473  1  0  0.392392  0  0.904727  0  0  0.363586  0  0.981248  0  0  0.375713  0  0.968411  0  0  0.295497  0.355056  0  0.990046  0
H  H9  1  0.43239969  0.32667348  0.43905618  1  0  0.392398  0  0.904705  0  0  0.363594  0  0.981217  0  0  0.375723  0  0.96838  0  0  0.295511  0.355068  0  0.990008  0
H  H10  1  0.06760003  0.82667401  0.56094465  1  0  0.392391  0  0.904714  0  0  0.363586  0  0.981232  0  0  0.375714  0  0.968395  0  0  0.29551  0.355051  0  0.990028  0
H  H11  1  0.93240070  0.67332553  0.06094354  1  0  0.392383  0  0.904721  0  0  0.363573  0  0.981249  0  0  0.3757  0  0.968413  0  0  0.295498  0.355046  0  0.990034  0
H  H12  1  0.43240166  0.82667331  0.06094520  1  0  0.392401  0  0.904724  0  0  0.363586  0  0.981255  0  0  0.375716  0  0.968414  0  0  0.29548  0.355041  0  0.990054  0
H  H13  1  0.56759907  0.67332623  0.56094298  1  0  0.392377  0  0.904737  0  0  0.363566  0  0.981266  0  0  0.375695  0  0.968428  0  0  0.295496  0.355038  0  0.990058  0
H  H14  1  0.93240067  0.17332570  0.43905606  1  0  0.392368  0  0.904748  0  0  0.363559  0  0.981275  0  0  0.375686  0  0.968439  0  0  0.295493  0.355026  0  0.990067  0
H  H15  1  0.06759903  0.32667418  0.93905563  1  0  0.392385  0  0.904728  0  0  0.363578  0  0.981252  0  0  0.375706  0  0.968415  0  0  0.295505  0.35505  0  0.990043  0
H  H16  1  0.47362959  0.47741098  0.62129751  1  0  0.11799  0  0.954759  0  0  0.125523  0  1.016966  0  0  0.129453  0  1.014122  0  0  0.106621  0.122668  0  1.019103  0
H  H17  1  0.52637054  0.02258941  0.12129844  1  0  0.117932  0  0.954647  0  0  0.125459  0  1.016877  0  0  0.129389  0  1.014034  0  0  0.106596  0.122605  0  1.019011  0
H  H18  1  0.97362934  0.52258813  0.87870230  1  0  0.117985  0  0.954737  0  0  0.125518  0  1.01694  0  0  0.129449  0  1.014097  0  0  0.106616  0.122658  0  1.019082  0
H  H19  1  0.02637194  0.97741089  0.37870162  1  0  0.117915  0  0.954633  0  0  0.125429  0  1.01689  0  0  0.12936  0  1.014044  0  0  0.106586  0.122559  0  1.019053  0
H  H20  1  0.52637014  0.52258778  0.37870243  1  0  0.117989  0  0.954754  0  0  0.125523  0  1.016961  0  0  0.129454  0  1.014117  0  0  0.106615  0.12266  0  1.019102  0
H  H21  1  0.47362920  0.97741030  0.87870150  1  0  0.11791  0  0.954656  0  0  0.125432  0  1.0169  0  0  0.129363  0  1.014056  0  0  0.106606  0.122573  0  1.019046  0
H  H22  1  0.02637233  0.47741158  0.12129764  1  0  0.117916  0  0.954639  0  0  0.125436  0  1.016886  0  0  0.129367  0  1.014041  0  0  0.106568  0.122554  0  1.019049  0
H  H23  1  0.97362973  0.02258881  0.62129908  1  0  0.117907  0  0.954671  0  0  0.125431  0  1.016908  0  0  0.129362  0  1.014062  0  0  0.106584  0.122559  0  1.019055  0
H  H24  1  0.37544876  0.36152030  0.76801769  1  0  0.112206  0  0.96225  0  0  0.123055  0  1.022958  0  0  0.125492  0  1.023512  0  0  0.103658  0.121169  0  1.023085  0
H  H25  1  0.62454924  0.13847891  0.26801995  1  0  0.112219  0  0.962253  0  0  0.123077  0  1.022948  0  0  0.125513  0  1.023502  0  0  0.103667  0.121184  0  1.023081  0
H  H26  1  0.87544957  0.63847890  0.73198144  1  0  0.112214  0  0.962251  0  0  0.123072  0  1.022946  0  0  0.125509  0  1.023501  0  0  0.10366  0.121161  0  1.023091  0
H  H27  1  0.12454997  0.86152037  0.23198004  1  0  0.112255  0  0.962199  0  0  0.123077  0  1.022944  0  0  0.125514  0  1.023498  0  0  0.103674  0.121172  0  1.023077  0
H  H28  1  0.62455097  0.63847751  0.23198225  1  0  0.112204  0  0.96225  0  0  0.123055  0  1.022957  0  0  0.12549  0  1.023513  0  0  0.10365  0.121146  0  1.023086  0
H  H29  1  0.37544953  0.86151985  0.73197999  1  0  0.112259  0  0.962194  0  0  0.123085  0  1.022935  0  0  0.12552  0  1.02349  0  0  0.103684  0.121202  0  1.023052  0
H  H30  1  0.12455017  0.36152081  0.26801927  1  0  0.112252  0  0.962207  0  0  0.123071  0  1.022959  0  0  0.125507  0  1.023514  0  0  0.103673  0.121169  0  1.023102  0
H  H31  1  0.87544976  0.13847934  0.76802067  1  0  0.11224  0  0.962171  0  0  0.123072  0  1.022908  0  0  0.125508  0  1.023463  0  0  0.103667  0.121174  0  1.023046  0
H  H32  1  0.75567065  0.27741786  0.88551992  1  0  0.126314  0  0.958174  0  0  0.132657  0  1.022497  0  0  0.13696  0  1.019943  0  0  0.107133  0.129481  0  1.024525  0
H  H33  1  0.24433009  0.22258400  0.38552010  1  0  0.126307  0  0.958157  0  0  0.132647  0  1.02249  0  0  0.136947  0  1.01994  0  0  0.107142  0.129487  0  1.024508  0
H  H34  1  0.25566973  0.72258144  0.61448239  1  0  0.126332  0  0.958167  0  0  0.132665  0  1.022498  0  0  0.136968  0  1.019945  0  0  0.107127  0.129464  0  1.024531  0
H  H35  1  0.74432996  0.77741707  0.11448055  1  0  0.126302  0  0.958168  0  0  0.13264  0  1.022499  0  0  0.136941  0  1.01995  0  0  0.10713  0.129462  0  1.024517  0
H  H36  1  0.24433198  0.72258374  0.11448079  1  0  0.126326  0  0.958171  0  0  0.132645  0  1.022529  0  0  0.136943  0  1.019981  0  0  0.107127  0.12947  0  1.024553  0
H  H37  1  0.75566868  0.77741666  0.61447984  1  0  0.126299  0  0.958171  0  0  0.132638  0  1.022508  0  0  0.136938  0  1.019959  0  0  0.10715  0.12949  0  1.024527  0
H  H38  1  0.74433000  0.27741732  0.38551909  1  0  0.126309  0  0.958169  0  0  0.132645  0  1.022506  0  0  0.136945  0  1.019957  0  0  0.107132  0.129466  0  1.02454  0
H  H39  1  0.25566880  0.22258359  0.88551939  1  0  0.126325  0  0.958167  0  0  0.132648  0  1.022517  0  0  0.136949  0  1.019965  0  0  0.107139  0.129487  0  1.024538  0
H  H40  1  0.85319542  0.38778705  0.73698388  1  0  0.090685  0  0.975987  0  0  0.099519  0  1.043236  0  0  0.102393  0  1.041287  0  0  0.099566  0.096852  0  1.046055  0
H  H41  1  0.14680456  0.11221600  0.23698503  1  0  0.090692  0  0.976003  0  0  0.099514  0  1.043276  0  0  0.102387  0  1.041331  0  0  0.099581  0.096853  0  1.0461  0
H  H42  1  0.35319052  0.61221406  0.76301604  1  0  0.090699  0  0.975962  0  0  0.099519  0  1.043224  0  0  0.102393  0  1.041276  0  0  0.099577  0.096841  0  1.046061  0
H  H43  1  0.64680897  0.88778515  0.26301494  1  0  0.090709  0  0.975953  0  0  0.099534  0  1.04321  0  0  0.102408  0  1.041259  0  0  0.099592  0.096866  0  1.046036  0
H  H44  1  0.14680529  0.61221455  0.26301529  1  0  0.090694  0  0.975987  0  0  0.099528  0  1.043239  0  0  0.102403  0  1.04129  0  0  0.09958  0.096863  0  1.046063  0
H  H45  1  0.85319421  0.88778466  0.76301414  1  0  0.09067  0  0.975987  0  0  0.099471  0  1.043281  0  0  0.102345  0  1.041335  0  0  0.099558  0.096809  0  1.046095  0
H  H46  1  0.64680921  0.38778565  0.23698467  1  0  0.090721  0  0.975939  0  0  0.099544  0  1.043196  0  0  0.102419  0  1.041245  0  0  0.099597  0.096876  0  1.046026  0
H  H47  1  0.35319366  0.11221550  0.73698500  1  0  0.090653  0  0.975965  0  0  0.099458  0  1.043264  0  0  0.102332  0  1.041317  0  0  0.099559  0.096784  0  1.04609  0
C  C48  1  0.73294622  0.50024636  0.57608217  1  0  0.654326  0  3.907316  0  0  0.605513  0  4.198101  0  0  0.64041  0  4.189714  0  0  0.205195  0.582005  0  4.202251  0
C  C49  1  0.26705449  0.99975316  0.07608204  1  0  0.654341  0  3.907275  0  0  0.60553  0  4.198064  0  0  0.640424  0  4.189682  0  0  0.205188  0.582026  0  4.202221  0
C  C50  1  0.23294605  0.49975201  0.92391861  1  0  0.654422  0  3.907019  0  0  0.605578  0  4.197846  0  0  0.640472  0  4.189464  0  0  0.205189  0.582053  0  4.202009  0
C  C51  1  0.76705174  0.00024979  0.42391859  1  0  0.65442  0  3.907127  0  0  0.605586  0  4.197937  0  0  0.64048  0  4.189552  0  0  0.205204  0.582077  0  4.2021  0
C  C52  1  0.26705158  0.49975430  0.42391777  1  0  0.654421  0  3.907287  0  0  0.605611  0  4.198064  0  0  0.640508  0  4.189678  0  0  0.205201  0.582094  0  4.202236  0
C  C53  1  0.73294524  0.00024655  0.92391790  1  0  0.654352  0  3.907256  0  0  0.605535  0  4.198048  0  0  0.640427  0  4.189669  0  0  0.205202  0.582034  0  4.202208  0
C  C54  1  0.76705369  0.50024675  0.07608133  1  0  0.654374  0  3.90715  0  0  0.605556  0  4.197936  0  0  0.640445  0  4.189561  0  0  0.205186  0.582046  0  4.202089  0
C  C55  1  0.23294702  0.99974992  0.57608211  1  0  0.654372  0  3.907218  0  0  0.605536  0  4.198027  0  0  0.640429  0  4.189646  0  0  0.205208  0.582036  0  4.202179  0
C  C56  1  0.67101784  0.44022523  0.66802166  1  0  -0.147546  0  3.861613  0  0  -0.125284  0  4.095973  0  0  -0.136743  0  4.122357  0  0  -0.042422  -0.11796  0  4.07826  0
C  C57  1  0.32898126  0.05977509  0.16802195  1  0  -0.14764  0  3.861637  0  0  -0.125394  0  4.096033  0  0  -0.136841  0  4.122384  0  0  -0.04244  -0.11807  0  4.078305  0
C  C58  1  0.17101677  0.55977319  0.83197841  1  0  -0.147723  0  3.861552  0  0  -0.125466  0  4.095944  0  0  -0.136918  0  4.122311  0  0  -0.042483  -0.11814  0  4.078225  0
C  C59  1  0.82898264  0.94022781  0.33197863  1  0  -0.147725  0  3.861609  0  0  -0.125456  0  4.095976  0  0  -0.136914  0  4.122358  0  0  -0.042499  -0.118135  0  4.078274  0
C  C60  1  0.32898190  0.55977543  0.33197751  1  0  -0.147537  0  3.86155  0  0  -0.125277  0  4.095919  0  0  -0.136734  0  4.122301  0  0  -0.042404  -0.117958  0  4.07823  0
C  C61  1  0.67101847  0.94022557  0.83197722  1  0  -0.147719  0  3.861715  0  0  -0.125475  0  4.096105  0  0  -0.136918  0  4.122448  0  0  -0.042441  -0.118138  0  4.078377  0
C  C62  1  0.82898394  0.44022652  0.16802153  1  0  -0.14761  0  3.8616  0  0  -0.125336  0  4.09594  0  0  -0.13679  0  4.122316  0  0  -0.042426  -0.118021  0  4.078221  0
C  C63  1  0.17101903  0.05977380  0.66802130  1  0  -0.147574  0  3.86147  0  0  -0.12529  0  4.09581  0  0  -0.136746  0  4.122191  0  0  -0.042418  -0.117971  0  4.078078  0
C  C64  1  0.53577951  0.43469430  0.67948531  1  0  -0.093794  0  3.81315  0  0  -0.111928  0  4.056982  0  0  -0.10977  0  4.077442  0  0  -0.091201  -0.113035  0  4.043724  0
C  C65  1  0.46422054  0.06530600  0.17948701  1  0  -0.093615  0  3.812924  0  0  -0.111738  0  4.056766  0  0  -0.109579  0  4.077219  0  0  -0.091109  -0.112819  0  4.043474  0
C  C66  1  0.03577845  0.56530518  0.82051410  1  0  -0.093672  0  3.812982  0  0  -0.111802  0  4.056821  0  0  -0.109642  0  4.07727  0  0  -0.09116  -0.112913  0  4.043574  0
C  C67  1  0.96422000  0.93469393  0.32051345  1  0  -0.093549  0  3.812898  0  0  -0.111668  0  4.056701  0  0  -0.109507  0  4.077153  0  0  -0.091085  -0.112758  0  4.04347  0
C  C68  1  0.46422022  0.56530541  0.32051463  1  0  -0.093797  0  3.813166  0  0  -0.111941  0  4.057014  0  0  -0.10978  0  4.077466  0  0  -0.091211  -0.113066  0  4.043777  0
C  C69  1  0.53577920  0.93469276  0.82051370  1  0  -0.093517  0  3.812922  0  0  -0.111634  0  4.056742  0  0  -0.109476  0  4.077196  0  0  -0.0911  -0.112713  0  4.04348  0
C  C70  1  0.96422031  0.43469357  0.17948583  1  0  -0.093631  0  3.813011  0  0  -0.111757  0  4.056827  0  0  -0.109597  0  4.077281  0  0  -0.091158  -0.112862  0  4.043569  0
C  C71  1  0.03577974  0.06530578  0.67948571  1  0  -0.093633  0  3.812983  0  0  -0.111761  0  4.056799  0  0  -0.1096  0  4.077253  0  0  -0.091118  -0.112839  0  4.043525  0
C  C72  1  0.48010707  0.36891261  0.76133099  1  0  -0.223945  0  3.779278  0  0  -0.235358  0  4.020499  0  0  -0.243953  0  4.042909  0  0  -0.106572  -0.229649  0  4.006585  0
C  C73  1  0.51989094  0.13108851  0.26133258  1  0  -0.224045  0  3.779505  0  0  -0.235443  0  4.020708  0  0  -0.24404  0  4.043119  0  0  -0.106612  -0.229738  0  4.006794  0
C  C74  1  0.98010884  0.63108745  0.73866727  1  0  -0.224035  0  3.779403  0  0  -0.235442  0  4.020635  0  0  -0.244037  0  4.043046  0  0  -0.10662  -0.229739  0  4.006744  0
C  C75  1  0.01989262  0.86891085  0.23866749  1  0  -0.224033  0  3.779375  0  0  -0.23543  0  4.020636  0  0  -0.244027  0  4.043046  0  0  -0.106609  -0.229729  0  4.006725  0
C  C76  1  0.51989267  0.63108805  0.23866971  1  0  -0.223881  0  3.779357  0  0  -0.235301  0  4.020595  0  0  -0.243896  0  4.043007  0  0  -0.106553  -0.229608  0  4.006682  0
C  C77  1  0.48010783  0.86891120  0.73866736  1  0  -0.224112  0  3.779429  0  0  -0.23551  0  4.02065  0  0  -0.244107  0  4.043063  0  0  -0.106616  -0.22979  0  4.006728  0
C  C78  1  0.01989283  0.36891131  0.26133189  1  0  -0.22403  0  3.779392  0  0  -0.235411  0  4.02062  0  0  -0.244007  0  4.043032  0  0  -0.106623  -0.229734  0  4.006711  0
C  C79  1  0.98010808  0.13108790  0.76133322  1  0  -0.22402  0  3.779373  0  0  -0.235414  0  4.020617  0  0  -0.244009  0  4.043026  0  0  -0.1066  -0.2297  0  4.006708  0
C  C80  1  0.55836079  0.30750727  0.83473179  1  0  0.330623  0  3.854832  0  0  0.325389  0  4.106386  0  0  0.3389  0  4.12229  0  0  0.086393  0.315951  0  4.095185  0
C  C81  1  0.44164002  0.19249183  0.33473184  1  0  0.330736  0  3.854756  0  0  0.32546  0  4.106363  0  0  0.338969  0  4.122267  0  0  0.086443  0.316037  0  4.095179  0
C  C82  1  0.05835886  0.69249220  0.66526760  1  0  0.330816  0  3.854747  0  0  0.325548  0  4.10634  0  0  0.339055  0  4.122245  0  0  0.086448  0.316099  0  4.095133  0
C  C83  1  0.94164076  0.80750622  0.16526711  1  0  0.330668  0  3.854913  0  0  0.325395  0  4.106499  0  0  0.338904  0  4.122404  0  0  0.086411  0.315964  0  4.09527  0
C  C84  1  0.44164184  0.69249244  0.16526968  1  0  0.330598  0  3.85482  0  0  0.325345  0  4.106391  0  0  0.338852  0  4.122292  0  0  0.086368  0.315923  0  4.09518  0
C  C85  1  0.55835972  0.80750693  0.66526733  1  0  0.3307  0  3.854801  0  0  0.325471  0  4.106339  0  0  0.33898  0  4.122244  0  0  0.086457  0.316056  0  4.095153  0
C  C86  1  0.94163990  0.30750656  0.33473234  1  0  0.330708  0  3.854876  0  0  0.325439  0  4.106467  0  0  0.338947  0  4.12237  0  0  0.086417  0.316003  0  4.095253  0
C  C87  1  0.05835897  0.19249159  0.83473283  1  0  0.330707  0  3.854769  0  0  0.325447  0  4.106357  0  0  0.338956  0  4.12226  0  0  0.086437  0.316013  0  4.095167  0
C  C88  1  0.69388264  0.31902835  0.82681605  1  0  -0.234007  0  3.776325  0  0  -0.249049  0  4.024632  0  0  -0.257445  0  4.045616  0  0  -0.1088  -0.243309  0  4.01039  0
C  C89  1  0.30611818  0.18097076  0.32681699  1  0  -0.234042  0  3.776166  0  0  -0.249058  0  4.024455  0  0  -0.257459  0  4.04545  0  0  -0.10879  -0.24328  0  4.010185  0
C  C90  1  0.19387877  0.68097005  0.67318169  1  0  -0.234113  0  3.776238  0  0  -0.249121  0  4.024498  0  0  -0.257523  0  4.045493  0  0  -0.108885  -0.243399  0  4.010259  0
C  C91  1  0.80612181  0.81902931  0.17318130  1  0  -0.234038  0  3.776249  0  0  -0.249068  0  4.024552  0  0  -0.25746  0  4.045524  0  0  -0.108857  -0.243326  0  4.010295  0
C  C92  1  0.30611903  0.68097041  0.17318389  1  0  -0.234039  0  3.776178  0  0  -0.249046  0  4.024451  0  0  -0.257457  0  4.045472  0  0  -0.108815  -0.243289  0  4.010188  0
C  C93  1  0.69388155  0.81902895  0.67318218  1  0  -0.233996  0  3.776201  0  0  -0.249033  0  4.024467  0  0  -0.257437  0  4.045469  0  0  -0.108797  -0.24328  0  4.010209  0
C  C94  1  0.80612096  0.31902966  0.32681825  1  0  -0.234086  0  3.776263  0  0  -0.24911  0  4.024549  0  0  -0.25751  0  4.045543  0  0  -0.10885  -0.243359  0  4.01032  0
C  C95  1  0.19388082  0.18097040  0.82681710  1  0  -0.234037  0  3.776263  0  0  -0.249033  0  4.024509  0  0  -0.257433  0  4.045502  0  0  -0.108799  -0.243279  0  4.010245  0
C  C96  1  0.74835422  0.38255401  0.74372517  1  0  -0.073053  0  3.821787  0  0  -0.089284  0  4.061582  0  0  -0.087339  0  4.083852  0  0  -0.086856  -0.090681  0  4.047952  0
C  C97  1  0.25164575  0.11745093  0.24372392  1  0  -0.073056  0  3.821788  0  0  -0.089268  0  4.06155  0  0  -0.087326  0  4.083822  0  0  -0.086846  -0.090647  0  4.047905  0
C  C98  1  0.24835126  0.61744624  0.75627560  1  0  -0.072992  0  3.821576  0  0  -0.089207  0  4.061374  0  0  -0.087264  0  4.083643  0  0  -0.086837  -0.090616  0  4.047754  0
C  C99  1  0.75164824  0.88255298  0.25627518  1  0  -0.073055  0  3.82158  0  0  -0.08928  0  4.061388  0  0  -0.087335  0  4.083659  0  0  -0.086858  -0.090688  0  4.047776  0
C  C100  1  0.25164648  0.61744949  0.25627630  1  0  -0.073107  0  3.821767  0  0  -0.089315  0  4.061508  0  0  -0.087372  0  4.083774  0  0  -0.086891  -0.09071  0  4.047884  0
C  C101  1  0.74835302  0.88254973  0.75627524  1  0  -0.073019  0  3.821733  0  0  -0.089208  0  4.061506  0  0  -0.087267  0  4.083774  0  0  -0.086829  -0.090592  0  4.047852  0
C  C102  1  0.75164847  0.38255252  0.24372511  1  0  -0.073062  0  3.821573  0  0  -0.089291  0  4.061388  0  0  -0.087347  0  4.083655  0  0  -0.086867  -0.090693  0  4.047785  0
C  C103  1  0.24835246  0.11744958  0.74372399  1  0  -0.073078  0  3.821693  0  0  -0.089287  0  4.061468  0  0  -0.087343  0  4.083737  0  0  -0.086881  -0.090675  0  4.047814  0
O  O104  1  0.84898231  0.46953374  0.55508312  1  0  -0.657062  0  1.97418  0  0  -0.58836  0  2.211271  0  0  -0.615996  0  2.204608  0  0  -0.31331  -0.568183  0  2.214456  0
O  O105  1  0.15101694  0.03046676  0.05508282  1  0  -0.65708  0  1.974168  0  0  -0.588371  0  2.211247  0  0  -0.61601  0  2.204588  0  0  -0.313284  -0.568184  0  2.214451  0
O  O106  1  0.34898208  0.53046548  0.94491833  1  0  -0.657104  0  1.974168  0  0  -0.588387  0  2.211276  0  0  -0.616024  0  2.204616  0  0  -0.313335  -0.568268  0  2.214498  0
O  O107  1  0.65101717  0.96953533  0.44491791  1  0  -0.657117  0  1.974222  0  0  -0.588403  0  2.211313  0  0  -0.616038  0  2.204651  0  0  -0.313268  -0.568193  0  2.214508  0
O  O108  1  0.15101743  0.53046692  0.44491681  1  0  -0.657115  0  1.97422  0  0  -0.588413  0  2.211307  0  0  -0.616051  0  2.204645  0  0  -0.313308  -0.568236  0  2.214506  0
O  O109  1  0.84898182  0.96953390  0.94491712  1  0  -0.657048  0  1.97416  0  0  -0.588344  0  2.211254  0  0  -0.615982  0  2.204597  0  0  -0.313258  -0.568126  0  2.21444  0
O  O110  1  0.65101766  0.46953423  0.05508238  1  0  -0.657105  0  1.97418  0  0  -0.588391  0  2.211257  0  0  -0.616026  0  2.204599  0  0  -0.313301  -0.56821  0  2.214444  0
O  O111  1  0.34898256  0.03046532  0.55508203  1  0  -0.657099  0  1.974182  0  0  -0.588387  0  2.211272  0  0  -0.616023  0  2.204613  0  0  -0.313323  -0.568239  0  2.214493  0
O  O112  1  0.66772976  0.57904343  0.52106540  1  0  -0.657713  0  1.984583  0  0  -0.592301  0  2.208876  0  0  -0.618902  0  2.199188  0  0  -0.320538  -0.573167  0  2.214191  0
O  O113  1  0.33227199  0.92095618  0.02106606  1  0  -0.657703  0  1.984547  0  0  -0.592287  0  2.208841  0  0  -0.618886  0  2.199152  0  0  -0.320506  -0.573108  0  2.214135  0
O  O114  1  0.16772862  0.42095500  0.97893698  1  0  -0.657729  0  1.984384  0  0  -0.592301  0  2.208687  0  0  -0.6189  0  2.198999  0  0  -0.320578  -0.573181  0  2.214007  0
O  O115  1  0.83227103  0.07904577  0.47893682  1  0  -0.657702  0  1.984385  0  0  -0.592274  0  2.20867  0  0  -0.61888  0  2.198995  0  0  -0.320543  -0.573129  0  2.213978  0
O  O116  1  0.33226900  0.42095723  0.47893531  1  0  -0.657752  0  1.984567  0  0  -0.592352  0  2.20888  0  0  -0.618944  0  2.199172  0  0  -0.320552  -0.573218  0  2.2142  0
O  O117  1  0.66772677  0.07904448  0.97893387  1  0  -0.657722  0  1.984538  0  0  -0.592291  0  2.208811  0  0  -0.618902  0  2.199143  0  0  -0.320519  -0.573127  0  2.214116  0
O  O118  1  0.83227208  0.57904376  0.02106450  1  0  -0.657698  0  1.984414  0  0  -0.592292  0  2.208712  0  0  -0.618889  0  2.199026  0  0  -0.320532  -0.573148  0  2.214019  0
O  O119  1  0.16772870  0.92095489  0.52106466  1  0  -0.657701  0  1.984535  0  0  -0.592277  0  2.208826  0  0  -0.618878  0  2.199142  0  0  -0.320477  -0.573055  0  2.214098  0
O  O120  1  0.50174295  0.23805598  0.90982316  1  0  -0.539583  0  2.116014  0  0  -0.478407  0  2.332712  0  0  -0.500053  0  2.324109  0  0  -0.341373  -0.462699  0  2.337877  0
O  O121  1  0.49825582  0.26194395  0.40982385  1  0  -0.539621  0  2.115963  0  0  -0.478419  0  2.332656  0  0  -0.500066  0  2.32405  0  0  -0.341361  -0.462676  0  2.337813  0
O  O122  1  0.00174299  0.76194449  0.59017551  1  0  -0.53967  0  2.115929  0  0  -0.478485  0  2.332637  0  0  -0.500129  0  2.324032  0  0  -0.341466  -0.462832  0  2.337827  0
O  O123  1  0.99825577  0.73805690  0.09017428  1  0  -0.539618  0  2.116047  0  0  -0.478391  0  2.332715  0  0  -0.500033  0  2.324109  0  0  -0.341398  -0.462713  0  2.337879  0
O  O124  1  0.49825678  0.76194278  0.09017755  1  0  -0.539598  0  2.116022  0  0  -0.478391  0  2.332712  0  0  -0.500035  0  2.324105  0  0  -0.341372  -0.462713  0  2.33789  0
O  O125  1  0.50174488  0.73805766  0.59017455  1  0  -0.539604  0  2.116043  0  0  -0.478411  0  2.332717  0  0  -0.500057  0  2.324113  0  0  -0.341347  -0.462653  0  2.337872  0
O  O126  1  0.99825577  0.23805712  0.40982519  1  0  -0.539595  0  2.116021  0  0  -0.478392  0  2.33271  0  0  -0.500034  0  2.324106  0  0  -0.341419  -0.46273  0  2.337889  0
O  O127  1  0.00174300  0.26194375  0.90982412  1  0  -0.539617  0  2.116006  0  0  -0.478431  0  2.332709  0  0  -0.500077  0  2.324106  0  0  -0.341367  -0.462696  0  2.33787  0
