# generated using pymatgen
data_CuH7C9N2
_symmetry_space_group_name_H-M   'P 1'
_cell_length_a   27.78947878
_cell_length_b   29.77092509
_cell_length_c   30.75881038
_cell_angle_alpha   90.24653918
_cell_angle_beta   92.29695547
_cell_angle_gamma   90.65304012
_symmetry_Int_Tables_number   1
_chemical_formula_structural   CuH7C9N2
_chemical_formula_sum   'Cu12 H84 C108 N24'
_cell_volume   25424.94626453
_cell_formula_units_Z   12
loop_
 _symmetry_equiv_pos_site_id
 _symmetry_equiv_pos_as_xyz
  1  'x, y, z'
loop_
 _atom_site_type_symbol
 _atom_site_label
 _atom_site_symmetry_multiplicity
 _atom_site_fract_x
 _atom_site_fract_y
 _atom_site_fract_z
 _atom_site_occupancy
 _atom_site_pbe_bader_charge
 _atom_site_pbe_bader_spin_density
 _atom_site_pbe_cm5_charge
 _atom_site_pbe_ddec_charge
 _atom_site_pbe_ddec_spin_density
 _atom_site_pbe_ddec_sum_bond_order
 _atom_site_pbe_magmom
Cu  Cu0  1  0.14682792  0.22070051  0.78056969  1  0.541872  0  0.484785  0.203029  0  2.122991  0
Cu  Cu1  1  0.23496022  0.15727477  0.79987957  1  0.542721  0  0.48526  0.206094  0  2.11715  0
Cu  Cu2  1  0.21297852  0.23560156  0.86645629  1  0.542799  0  0.483661  0.203521  0  2.114216  0
Cu  Cu3  1  0.88975683  0.22311405  0.21978279  1  0.532901  0  0.484875  0.201588  0  2.139682  0
Cu  Cu4  1  0.80865980  0.14865821  0.21415911  1  0.542116  0  0.485817  0.206266  0  2.109486  0
Cu  Cu5  1  0.80146274  0.23847089  0.15626297  1  0.552754  0  0.485943  0.208021  0  2.112623  0
Cu  Cu6  1  0.81426213  0.75736890  0.73343325  1  0.54359  0  0.484734  0.207456  0  2.11167  0
Cu  Cu7  1  0.72673775  0.82204398  0.74019163  1  0.540699  0  0.485979  0.206473  0  2.12617  0
Cu  Cu8  1  0.75566053  0.76056986  0.82063022  1  0.54271  0  0.484894  0.205516  0  2.107305  0
Cu  Cu9  1  0.14269914  0.77884110  0.23007708  1  0.542008  0  0.483323  0.202261  0  2.121412  0
Cu  Cu10  1  0.20912567  0.86562933  0.24307590  1  0.542052  0  0.482215  0.204796  0  2.106686  0
Cu  Cu11  1  0.23946342  0.78687727  0.18064616  1  0.545139  0  0.486594  0.209895  0  2.114499  0
H  H12  1  0.09239049  0.16744501  0.70357559  1  0.086031  0  0.119954  0.109945  0  0.992391  0
H  H13  1  0.21833505  0.08444537  0.72394361  1  0.07892  0  0.119724  0.111847  0  0.987447  0
H  H14  1  0.17006222  0.32598574  0.90180368  1  0.118952  0  0.119177  0.108803  0  0.993538  0
H  H15  1  0.08024605  0.30671069  0.78466727  1  0.09829  0  0.119767  0.112229  0  0.988855  0
H  H16  1  0.32499950  0.11359062  0.84678032  1  0.102306  0  0.119258  0.108858  0  0.993158  0
H  H17  1  0.28382449  0.20724032  0.94653150  1  0.101802  0  0.119819  0.111945  0  0.988097  0
H  H18  1  0.94280564  0.19826351  0.30908564  1  0.073828  0  0.120796  0.112417  0  0.986636  0
H  H19  1  0.83773083  0.08966618  0.29818905  1  0.105266  0  0.121168  0.111933  0  0.990026  0
H  H20  1  0.83513235  0.32772527  0.10730141  1  0.083075  0  0.12045  0.110973  0  0.98985  0
H  H21  1  0.96502977  0.29285532  0.18166827  1  0.072557  0  0.120473  0.112315  0  0.987104  0
H  H22  1  0.72406626  0.09130802  0.16847202  1  0.082627  0  0.1204  0.110628  0  0.99051  0
H  H23  1  0.70260374  0.21963974  0.10501577  1  0.105951  0  0.120251  0.112398  0  0.988298  0
H  H24  1  0.86988411  0.80206605  0.65645567  1  0.053421  0  0.120283  0.111078  0  0.989781  0
H  H25  1  0.75174309  0.89432406  0.66899784  1  0.077909  0  0.120181  0.112217  0  0.986446  0
H  H26  1  0.81346857  0.68902916  0.87745010  1  0.088649  0  0.11996  0.110092  0  0.991808  0
H  H27  1  0.88517599  0.67733576  0.75542018  1  0.093408  0  0.120073  0.111597  0  0.988331  0
H  H28  1  0.63057036  0.86455059  0.77259284  1  0.094841  0  0.120048  0.111688  0  0.98794  0
H  H29  1  0.68369352  0.79876878  0.89014000  1  0.123744  0  0.12052  0.111232  0  0.990042  0
H  H30  1  0.07054494  0.79223497  0.30642406  1  0.090941  0  0.119422  0.111741  0  0.990093  0
H  H31  1  0.16077029  0.91110028  0.32405881  1  0.109449  0  0.120059  0.110443  0  0.99169  0
H  H32  1  0.22934145  0.70246494  0.11710387  1  0.097122  0  0.120237  0.111602  0  0.987382  0
H  H33  1  0.08965815  0.70065192  0.17496853  1  0.111607  0  0.120243  0.110127  0  0.991  0
H  H34  1  0.27703091  0.94425582  0.20764070  1  0.083984  0  0.120401  0.112926  0  0.986807  0
H  H35  1  0.33291796  0.82828840  0.14157007  1  0.105103  0  0.120074  0.110543  0  0.990581  0
H  H36  1  0.51977005  0.07853836  0.00236909  1  0.065005  0  0.101269  0.112761  0  1.015392  0
H  H37  1  0.55196778  0.94498419  0.05020398  1  0.042735  0  0.099487  0.080794  0  0.968306  0
H  H38  1  0.50620112  0.98050086  0.91884473  1  0.018875  0  0.099782  0.10903  0  1.017301  0
H  H39  1  0.41038013  0.99181106  0.00977956  1  0.039903  0  0.101861  0.115755  0  1.012159  0
H  H40  1  0.09401326  0.01587443  0.52400396  1  0.061689  0  0.101207  0.112309  0  1.015394  0
H  H41  1  0.97031453  0.94497737  0.46602219  1  0.056187  0  0.099713  0.080687  0  0.980458  0
H  H42  1  0.97394949  0.08308516  0.51028377  1  0.064839  0  0.100418  0.111361  0  1.013911  0
H  H43  1  0.98556532  0.98818905  0.60028122  1  0.094203  0  0.101621  0.116641  0  1.010166  0
H  H44  1  0.01070297  0.51833988  0.90000902  1  0.029414  0  0.101091  0.111827  0  1.016942  0
H  H45  1  0.95135517  0.55032894  0.02436194  1  0.030016  0  0.099202  0.079339  0  0.969762  0
H  H46  1  0.10170699  0.52663416  0.00179293  1  0.098395  0  0.100451  0.111218  0  1.013678  0
H  H47  1  0.01147620  0.42296583  0.98778778  1  0.046893  0  0.101887  0.116758  0  1.01023  0
H  H48  1  0.07004868  0.11853719  0.64108736  1  0.04576  0  0.096702  0.094816  0  0.992921  0
H  H49  1  0.09689475  0.02662193  0.60058137  1  0.046678  0  0.098981  0.098631  0  0.99181  0
H  H50  1  0.15226524  0.05192561  0.66006349  1  0.037966  0  0.098692  0.099269  0  0.992592  0
H  H51  1  0.01351623  0.09210357  0.58232491  1  0.043603  0  0.093757  0.092601  0  1.004477  0
H  H52  1  0.88801736  0.05411936  0.36551655  1  0.023707  0  0.098665  0.099998  0  0.98654  0
H  H53  1  0.96080230  0.09370902  0.43534423  1  0.047793  0  0.096739  0.090657  0  1.000527  0
H  H54  1  0.94472562  0.14302166  0.37892549  1  0.05352  0  0.097331  0.094577  0  0.995941  0
H  H55  1  0.91714496  0.99852314  0.42553199  1  0.052804  0  0.095436  0.095563  0  1.002379  0
H  H56  1  0.89092398  0.85296588  0.58791608  1  0.050465  0  0.097229  0.097369  0  0.98991  0
H  H57  1  0.89810424  0.95741568  0.58861847  1  0.047447  0  0.096088  0.091168  0  1.000417  0
H  H58  1  0.83253940  0.92919412  0.62760052  1  0.041395  0  0.098618  0.098215  0  0.991686  0
H  H59  1  0.94832809  0.88835579  0.53167646  1  0.074245  0  0.095917  0.098127  0  0.997364  0
H  H60  1  0.12124538  0.92069576  0.39499610  1  0.03559  0  0.09628  0.094071  0  0.993837  0
H  H61  1  0.01857824  0.90638000  0.42912757  1  0.035246  0  0.095166  0.090501  0  1.008299  0
H  H62  1  0.03976583  0.85330318  0.36966162  1  0.020888  0  0.096602  0.097077  0  0.994824  0
H  H63  1  0.10647890  0.96494941  0.45817208  1  0.061377  0  0.097308  0.098229  0  0.994664  0
H  H64  1  0.13378892  0.40049651  0.90731911  1  0.046062  0  0.0966  0.094487  0  0.994056  0
H  H65  1  0.03292508  0.44178124  0.88733725  1  0.072836  0  0.099319  0.099187  0  0.991101  0
H  H66  1  0.05255538  0.37821851  0.83921794  1  0.039778  0  0.098419  0.099291  0  0.992174  0
H  H67  1  0.11184010  0.45765819  0.95915737  1  0.043539  0  0.093746  0.092122  0  1.004805  0
H  H68  1  0.06429743  0.64271450  0.11599000  1  0.061602  0  0.097795  0.098486  0  0.988253  0
H  H69  1  0.11334923  0.58961515  0.04313484  1  0.015538  0  0.097637  0.093257  0  0.994733  0
H  H70  1  0.16652380  0.64000194  0.08065498  1  0.044421  0  0.09735  0.095297  0  0.997565  0
H  H71  1  0.00860576  0.58993278  0.07230589  1  0.043385  0  0.09417  0.09257  0  1.00722  0
H  H72  1  0.88378817  0.40133286  0.08706000  1  0.010414  0  0.097884  0.099059  0  0.988568  0
H  H73  1  0.99188470  0.41340097  0.06640572  1  0.075462  0  0.096269  0.090567  0  1.00145  0
H  H74  1  0.97849997  0.35553632  0.11644535  1  0.070579  0  0.098143  0.096853  0  0.993469  0
H  H75  1  0.90489750  0.47261230  0.04183259  1  0.049289  0  0.095572  0.097101  0  0.999114  0
H  H76  1  0.87283478  0.63087787  0.90708418  1  0.033761  0  0.096668  0.096053  0  0.990053  0
H  H77  1  0.95872900  0.57562424  0.87490948  1  0.0242  0  0.098864  0.09618  0  0.988869  0
H  H78  1  0.92203596  0.62211468  0.81938869  1  0.051723  0  0.09729  0.095738  0  0.996548  0
H  H79  1  0.91240528  0.58415430  0.96384660  1  0.035289  0  0.092372  0.088082  0  1.010832  0
H  H80  1  0.38869568  0.09022352  0.89562050  1  0.002525  0  0.09659  0.094141  0  0.995552  0
H  H81  1  0.41880173  0.08780615  0.99416105  1  0.059221  0  0.100267  0.101518  0  0.983845  0
H  H82  1  0.35452332  0.14424546  0.97408149  1  0.037486  0  0.098366  0.099647  0  0.99271  0
H  H83  1  0.44770154  0.03498576  0.91315480  1  0.033337  0  0.09268  0.089303  0  1.010414  0
H  H84  1  0.63026395  0.85996315  0.93046574  1  0.053233  0  0.098051  0.099157  0  0.988818  0
H  H85  1  0.54143871  0.91624759  0.90106842  1  0.052376  0  0.096802  0.091123  0  0.998282  0
H  H86  1  0.57740983  0.88176279  0.84320089  1  0.047788  0  0.096608  0.094278  0  0.997635  0
H  H87  1  0.59209965  0.90590824  0.99134825  1  0.036499  0  0.093611  0.092359  0  1.006484  0
H  H88  1  0.40442828  0.88066974  0.12353998  1  0.024297  0  0.097052  0.096856  0  0.99007  0
H  H89  1  0.40351524  0.97932307  0.09044277  1  0.055393  0  0.096598  0.091983  0  0.998257  0
H  H90  1  0.34328721  0.96367852  0.14261929  1  0.066815  0  0.098027  0.097859  0  0.99307  0
H  H91  1  0.47496915  0.90264111  0.07703572  1  0.010726  0  0.095632  0.096094  0  0.999962  0
H  H92  1  0.65737719  0.06106604  0.11556637  1  0.062924  0  0.097352  0.09754  0  0.989286  0
H  H93  1  0.57944234  0.10049890  0.05189186  1  0.034484  0  0.098575  0.095137  0  0.990863  0
H  H94  1  0.63401171  0.15592083  0.08138387  1  0.050198  0  0.097058  0.095515  0  0.996215  0
H  H95  1  0.60159042  0.00365163  0.08072638  1  0.029622  0  0.093212  0.089998  0  1.009725  0
C  C96  1  0.12621039  0.15208379  0.71373559  1  0.396239  0  0.008001  -0.050481  0  3.935813  0
C  C97  1  0.14779431  0.11277633  0.69841033  1  -0.012536  0  -0.040275  0.014913  0  4.133174  0
C  C98  1  0.19042311  0.10964986  0.72444515  1  0.432692  0  0.005745  -0.059232  0  3.952743  0
C  C99  1  0.15272119  0.31521245  0.87121559  1  0.357598  0  0.007222  -0.051937  0  3.939378  0
C  C100  1  0.11422940  0.33463792  0.84705686  1  0.051001  0  -0.039866  0.016598  0  4.133152  0
C  C101  1  0.10656302  0.30502544  0.81164545  1  0.364256  0  0.004727  -0.061604  0  3.955085  0
C  C102  1  0.30956794  0.13973879  0.86637213  1  0.409621  0  0.007223  -0.050444  0  3.938613  0
C  C103  1  0.32061550  0.15247604  0.90981840  1  0.009581  0  -0.040599  0.014231  0  4.133125  0
C  C104  1  0.28825034  0.18742784  0.91726881  1  0.385558  0  0.005407  -0.059178  0  3.951306  0
C  C105  1  0.91403539  0.17471479  0.29980867  1  0.404435  0  0.007175  -0.056512  0  3.951994  0
C  C106  1  0.89861394  0.13596724  0.32160123  1  0.094491  0  -0.040602  0.013961  0  4.137641  0
C  C107  1  0.86080534  0.11887126  0.29418006  1  0.352005  0  0.009057  -0.049563  0  3.930724  0
C  C108  1  0.86247304  0.31408066  0.12952709  1  0.42909  0  0.009051  -0.049024  0  3.934216  0
C  C109  1  0.91147079  0.32621025  0.13552235  1  0.013927  0  -0.040108  0.014321  0  4.137757  0
C  C110  1  0.92897154  0.29572458  0.16706831  1  0.433608  0  0.00706  -0.056559  0  3.951839  0
C  C111  1  0.72556099  0.12551565  0.15650506  1  0.377207  0  0.008666  -0.049686  0  3.929807  0
C  C112  1  0.69485743  0.14748906  0.12604483  1  0.085747  0  -0.039219  0.017108  0  4.13651  0
C  C113  1  0.71456374  0.19121935  0.12447202  1  0.367837  0  0.004877  -0.059906  0  3.95303  0
C  C114  1  0.83687104  0.81927390  0.66357881  1  0.423004  0  0.008435  -0.04979  0  3.934895  0
C  C115  1  0.82026195  0.86140985  0.64917117  1  0.048893  0  -0.039757  0.014457  0  4.132738  0
C  C116  1  0.77694894  0.86671740  0.67073783  1  0.419604  0  0.006191  -0.057064  0  3.951944  0
C  C117  1  0.82612415  0.69149110  0.84461512  1  0.375704  0  0.008576  -0.050095  0  3.931149  0
C  C118  1  0.86325425  0.66808888  0.82467787  1  0.058714  0  -0.039867  0.015855  0  4.135514  0
C  C119  1  0.86252508  0.68563468  0.78220212  1  0.378753  0  0.006234  -0.057582  0  3.950295  0
C  C120  1  0.64950795  0.84483745  0.79734605  1  0.367603  0  0.006406  -0.057255  0  3.952719  0
C  C121  1  0.64089641  0.84132974  0.84202769  1  0.065972  0  -0.039865  0.016141  0  4.136478  0
C  C122  1  0.67688916  0.81183551  0.85762472  1  0.355359  0  0.008265  -0.050843  0  3.933153  0
C  C123  1  0.09714423  0.81911427  0.30494110  1  0.369859  0  0.004458  -0.061643  0  3.955389  0
C  C124  1  0.10349120  0.85743238  0.33162361  1  0.073899  0  -0.040362  0.016759  0  4.13103  0
C  C125  1  0.14357360  0.87951215  0.31433465  1  0.374629  0  0.007507  -0.051774  0  3.933118  0
C  C126  1  0.19779481  0.70773638  0.13612920  1  0.361864  0  0.006931  -0.055925  0  3.94915  0
C  C127  1  0.15259986  0.68581284  0.13287112  1  0.065623  0  -0.04039  0.014025  0  4.137876  0
C  C128  1  0.12630702  0.70678049  0.16540597  1  0.387589  0  0.009007  -0.048622  0  3.930196  0
C  C129  1  0.28510894  0.91122833  0.19490281  1  0.401216  0  0.006177  -0.058583  0  3.947683  0
C  C130  1  0.32082132  0.89879923  0.16606189  1  0.035434  0  -0.040015  0.014575  0  4.130912  0
C  C131  1  0.31430217  0.85197775  0.16168443  1  0.394456  0  0.0076  -0.050108  0  3.937369  0
C  C132  1  0.47858722  0.01629577  0.97795338  1  0.03551  0  -0.003083  0.183312  0  3.897611  0
C  C133  1  0.51659128  0.04228982  0.00605429  1  -0.028873  0  -0.092929  -0.201342  0  3.77501  0
C  C134  1  0.54398867  0.01643520  0.03302107  1  -0.047702  0  -0.019555  0.082257  0  3.999682  0
C  C135  1  0.52997729  0.96625957  0.02842599  1  0.002588  0  -0.066816  -0.081478  0  3.808861  0
C  C136  1  0.50745297  0.98100095  0.95428755  1  -0.032288  0  -0.095843  -0.207625  0  3.80051  0
C  C137  1  0.53465138  0.95396389  0.98014531  1  -0.015363  0  -0.021808  0.082394  0  4.00362  0
C  C138  1  0.44948289  0.98974977  0.01089939  1  -0.048311  0  -0.093931  -0.20679  0  3.798264  0
C  C139  1  0.47604963  0.96352349  0.03792631  1  0.016216  0  -0.019861  0.08137  0  4.00759  0
C  C140  1  0.01740812  0.02846698  0.54503859  1  0.028656  0  -0.003622  0.185523  0  3.889656  0
C  C141  1  0.05645869  0.00548234  0.51928641  1  -0.016584  0  -0.091698  -0.205146  0  3.794619  0
C  C142  1  0.03996482  0.97483819  0.48952597  1  -0.057777  0  -0.020795  0.07876  0  4.025286  0
C  C143  1  0.98480617  0.96967429  0.48971898  1  -0.0563  0  -0.065183  -0.07439  0  3.796649  0
C  C144  1  0.98286880  0.04754505  0.50991142  1  -0.069471  0  -0.096113  -0.21062  0  3.800441  0
C  C145  1  0.96618453  0.01741939  0.47985613  1  -0.032216  0  -0.01697  0.086465  0  3.992555  0
C  C146  1  0.98884528  0.98969969  0.56517918  1  -0.090881  0  -0.094877  -0.209472  0  3.803562  0
C  C147  1  0.97104566  0.95902538  0.53638599  1  -0.014776  0  -0.021616  0.079944  0  4.014992  0
C  C148  1  0.04114388  0.48995296  0.96392489  1  0.056394  0  -0.003722  0.184003  0  3.899244  0
C  C149  1  0.00641900  0.51756072  0.93503518  1  -0.131962  0  -0.092827  -0.202749  0  3.784059  0
C  C150  1  0.97335681  0.54060828  0.95692488  1  0.102468  0  -0.021675  0.07873  0  4.008642  0
C  C151  1  0.97817121  0.53202355  0.00624926  1  -0.003754  0  -0.066734  -0.078336  0  3.807761  0
C  C152  1  0.06272493  0.52333083  0.99742804  1  -0.127622  0  -0.095611  -0.208261  0  3.794986  0
C  C153  1  0.03016167  0.54604733  0.02018623  1  0.012929  0  -0.018372  0.085017  0  3.99677  0
C  C154  1  0.00810456  0.45926417  0.99021666  1  -0.038747  0  -0.094187  -0.208394  0  3.800257  0
C  C155  1  0.97531170  0.48099260  0.01317747  1  -0.073754  0  -0.021179  0.081036  0  4.012585  0
C  C156  1  0.13102961  0.08229422  0.66426314  1  -0.05774  0  -0.099171  -0.130668  0  4.052457  0
C  C157  1  0.09156773  0.08823126  0.63759067  1  -0.013572  0  -0.106428  -0.101488  0  4.091411  0
C  C158  1  0.07531055  0.05688945  0.60428581  1  -0.058415  0  -0.105299  -0.09888  0  4.112491  0
C  C159  1  0.03554979  0.06221738  0.57822987  1  -0.048964  0  -0.096868  -0.148883  0  3.906144  0
C  C160  1  0.91928796  0.11979320  0.36214978  1  -0.097538  0  -0.096793  -0.12485  0  4.048324  0
C  C161  1  0.91216401  0.07917434  0.38118792  1  -0.011687  0  -0.105757  -0.106181  0  4.089817  0
C  C162  1  0.93747828  0.06729991  0.42078797  1  -0.003212  0  -0.099723  -0.081797  0  4.089549  0
C  C163  1  0.93761631  0.02650480  0.44067993  1  -0.072011  0  -0.101647  -0.150024  0  4.025822  0
C  C164  1  0.84380644  0.89442865  0.62286998  1  -0.01388  0  -0.096863  -0.125238  0  4.040928  0
C  C165  1  0.87993147  0.88730484  0.59520601  1  -0.044092  0  -0.106026  -0.104794  0  4.089327  0
C  C166  1  0.90636076  0.92372483  0.57674443  1  -0.08837  0  -0.101899  -0.089519  0  4.096753  0
C  C167  1  0.94145544  0.92067358  0.54731975  1  -0.057579  0  -0.100201  -0.147468  0  4.024329  0
C  C168  1  0.07426309  0.87102682  0.36706336  1  -0.002612  0  -0.100928  -0.13423  0  4.042643  0
C  C169  1  0.08596750  0.90407164  0.39647054  1  -0.061614  0  -0.106625  -0.100435  0  4.100294  0
C  C170  1  0.05516166  0.92039779  0.42910690  1  -0.102712  0  -0.105634  -0.098696  0  4.090356  0
C  C171  1  0.06909653  0.95290292  0.45857097  1  0.010448  0  -0.099651  -0.141636  0  4.048274  0
C  C172  1  0.08686467  0.37397327  0.85741370  1  -0.109682  0  -0.100066  -0.132108  0  4.050134  0
C  C173  1  0.09919934  0.40396586  0.88936757  1  0.02673  0  -0.106142  -0.101094  0  4.094285  0
C  C174  1  0.06786428  0.43818971  0.90470430  1  -0.057362  0  -0.104631  -0.098321  0  4.111591  0
C  C175  1  0.07735375  0.46237516  0.94132814  1  -0.100024  0  -0.09753  -0.150415  0  3.913474  0
C  C176  1  0.13832681  0.65128354  0.10191972  1  -0.055059  0  -0.098312  -0.127715  0  4.049764  0
C  C177  1  0.09372538  0.63225346  0.09573015  1  -0.009244  0  -0.106393  -0.107181  0  4.096754  0
C  C178  1  0.08313205  0.59919586  0.06287700  1  -0.140529  0  -0.099521  -0.081141  0  4.086833  0
C  C179  1  0.03933969  0.57956181  0.05362162  1  0.032816  0  -0.102484  -0.150638  0  4.029421  0
C  C180  1  0.93938329  0.35974446  0.11373651  1  -0.131151  0  -0.096399  -0.124028  0  4.044094  0
C  C181  1  0.92248632  0.39478892  0.08955545  1  0.027349  0  -0.107849  -0.10845  0  4.09061  0
C  C182  1  0.95389035  0.42292929  0.06551599  1  -0.066763  0  -0.101466  -0.086875  0  4.097412  0
C  C183  1  0.94149791  0.45939446  0.04113690  1  -0.015876  0  -0.101202  -0.148704  0  4.023123  0
C  C184  1  0.89598642  0.63488462  0.84207021  1  -0.121447  0  -0.09891  -0.129628  0  4.047591  0
C  C185  1  0.89827417  0.61878151  0.88350398  1  0.063886  0  -0.1065  -0.105842  0  4.098548  0
C  C186  1  0.93324079  0.58711650  0.89871986  1  -0.03137  0  -0.099378  -0.081971  0  4.078563  0
C  C187  1  0.93761486  0.57154148  0.94031015  1  -0.050526  0  -0.103028  -0.147915  0  4.033051  0
C  C188  1  0.35543574  0.13300241  0.94019205  1  -0.07601  0  -0.099586  -0.132104  0  4.051479  0
C  C189  1  0.38747754  0.10111566  0.92962445  1  0.064719  0  -0.106765  -0.102252  0  4.096869  0
C  C190  1  0.41939850  0.07811711  0.95977278  1  -0.133343  0  -0.104263  -0.098216  0  4.107311  0
C  C191  1  0.44799689  0.04429193  0.94765603  1  -0.003143  0  -0.095087  -0.145672  0  3.902345  0
C  C192  1  0.60478130  0.86575205  0.86436330  1  -0.048897  0  -0.09825  -0.128154  0  4.046198  0
C  C193  1  0.60288398  0.87387897  0.90791212  1  -0.059474  0  -0.106284  -0.107267  0  4.0933  0
C  C194  1  0.56810257  0.90345114  0.92499040  1  -0.069854  0  -0.100417  -0.081024  0  4.084283  0
C  C195  1  0.56664341  0.91912086  0.96663092  1  -0.011321  0  -0.102876  -0.151391  0  4.02657  0
C  C196  1  0.35311908  0.92816722  0.14361290  1  -0.098059  0  -0.097942  -0.127444  0  4.039353  0
C  C197  1  0.39254641  0.91560044  0.12187565  1  -0.00897  0  -0.106861  -0.1054  0  4.092045  0
C  C198  1  0.41810064  0.94547051  0.09434762  1  -0.022501  0  -0.1017  -0.088688  0  4.092754  0
C  C199  1  0.45728895  0.93492237  0.07128713  1  -0.055137  0  -0.100082  -0.145819  0  4.026317  0
C  C200  1  0.65373128  0.13078150  0.10068579  1  0.002152  0  -0.098777  -0.129493  0  4.047688  0
C  C201  1  0.63811837  0.08728819  0.09732778  1  -0.075096  0  -0.105779  -0.106248  0  4.098767  0
C  C202  1  0.59817870  0.07356657  0.06957596  1  -0.138174  0  -0.099921  -0.081608  0  4.081459  0
C  C203  1  0.58279859  0.03034554  0.06277776  1  0.021448  0  -0.101983  -0.148372  0  4.031981  0
N  N204  1  0.19393238  0.14436876  0.75275546  1  -0.76632  0  -0.339677  -0.143876  0  3.772912  0
N  N205  1  0.15394556  0.17063910  0.74605709  1  -0.762352  0  -0.337189  -0.137666  0  3.779896  0
N  N206  1  0.13807636  0.27092692  0.81447201  1  -0.7594  0  -0.339555  -0.141891  0  3.774385  0
N  N207  1  0.16663605  0.27727496  0.85159399  1  -0.759319  0  -0.336676  -0.138059  0  3.776199  0
N  N208  1  0.26035909  0.19483711  0.88113820  1  -0.786338  0  -0.33847  -0.142333  0  3.77131  0
N  N209  1  0.27358912  0.16500593  0.84960846  1  -0.781859  0  -0.337868  -0.140668  0  3.774667  0
N  N210  1  0.85459316  0.14543236  0.25906356  1  -0.7499  0  -0.334921  -0.139008  0  3.765478  0
N  N211  1  0.88787644  0.18000008  0.26246378  1  -0.777891  0  -0.341417  -0.142209  0  3.783307  0
N  N212  1  0.89323075  0.26806892  0.17903671  1  -0.788562  0  -0.341193  -0.14262  0  3.781106  0
N  N213  1  0.85197390  0.27925656  0.15547406  1  -0.775424  0  -0.337715  -0.142664  0  3.763675  0
N  N214  1  0.75384424  0.19481825  0.15144764  1  -0.775527  0  -0.338954  -0.143748  0  3.769109  0
N  N215  1  0.76052782  0.15395599  0.17147257  1  -0.778701  0  -0.335975  -0.138982  0  3.769204  0
N  N216  1  0.76856274  0.83071599  0.69587062  1  -0.781189  0  -0.340636  -0.144436  0  3.772881  0
N  N217  1  0.80604533  0.80136201  0.69167266  1  -0.781362  0  -0.337928  -0.143276  0  3.759735  0
N  N218  1  0.82804973  0.71688989  0.77737038  1  -0.791583  0  -0.338971  -0.143864  0  3.770049  0
N  N219  1  0.80544167  0.72049104  0.81623093  1  -0.759424  0  -0.335675  -0.138223  0  3.769828  0
N  N220  1  0.70462226  0.79930407  0.82481746  1  -0.765068  0  -0.335887  -0.138936  0  3.766149  0
N  N221  1  0.68782984  0.82007598  0.78737571  1  -0.784958  0  -0.340328  -0.144565  0  3.771144  0
N  N222  1  0.15949467  0.85611363  0.28030022  1  -0.770323  0  -0.33591  -0.139458  0  3.768686  0
N  N223  1  0.13073406  0.81845374  0.27451041  1  -0.784335  0  -0.339202  -0.141474  0  3.773349  0
N  N224  1  0.15375738  0.73849989  0.18597840  1  -0.788899  0  -0.336481  -0.138428  0  3.772915  0
N  N225  1  0.19822116  0.73920089  0.16776435  1  -0.774825  0  -0.339874  -0.145318  0  3.76873  0
N  N226  1  0.27761763  0.83796751  0.18576573  1  -0.779652  0  -0.338997  -0.145294  0  3.76347  0
N  N227  1  0.25964477  0.87476622  0.20672744  1  -0.774822  0  -0.337569  -0.141455  0  3.767356  0
