# generated using pymatgen
data_ZnH25C24NO6
_symmetry_space_group_name_H-M   'P 1'
_cell_length_a   13.86610991
_cell_length_b   14.05283588
_cell_length_c   15.23901730
_cell_angle_alpha   89.13318690
_cell_angle_beta   90.86790707
_cell_angle_gamma   97.15416973
_symmetry_Int_Tables_number   1
_chemical_formula_structural   ZnH25C24NO6
_chemical_formula_sum   'Zn2 H50 C48 N2 O12'
_cell_volume   2945.72830820
_cell_formula_units_Z   2
loop_
 _symmetry_equiv_pos_site_id
 _symmetry_equiv_pos_as_xyz
  1  'x, y, z'
loop_
 _atom_site_type_symbol
 _atom_site_label
 _atom_site_symmetry_multiplicity
 _atom_site_fract_x
 _atom_site_fract_y
 _atom_site_fract_z
 _atom_site_occupancy
 _atom_site_pbe_bader_charge
 _atom_site_pbe_bader_spin_density
 _atom_site_pbe_cm5_charge
 _atom_site_pbe_ddec_charge
 _atom_site_pbe_ddec_spin_density
 _atom_site_pbe_ddec_sum_bond_order
 _atom_site_pbe_magmom
Zn  Zn0  1  0.50659495  0.40156766  0.50713078  1  1.294014  0  0.674763  0.840635  0  2.401416  0
Zn  Zn1  1  0.49369362  0.60315707  0.49486199  1  1.294565  0  0.673866  0.840236  0  2.389755  0
H  H2  1  0.96813647  0.39025171  0.50365246  1  0.081522  0  0.112722  0.110455  0  0.975299  0
H  H3  1  0.39485940  0.24403110  0.41751377  1  0.136634  0  0.133211  0.115102  0  0.973878  0
H  H4  1  0.64213457  0.94091498  0.55971209  1  0.070958  0  0.112108  0.119642  0  1.000173  0
H  H5  1  0.39074751  0.06745594  0.40056551  1  0.073892  0  0.110369  0.116644  0  1.017229  0
H  H6  1  0.53591782  0.24109262  0.26868998  1  0.043203  0  0.092943  0.057  0  0.982793  0
H  H7  1  0.53576689  0.25479826  0.15211010  1  0.039245  0  0.095451  0.052165  0  0.995088  0
H  H8  1  0.36701913  0.14916582  0.25683957  1  0.013152  0  0.089899  0.081516  0  0.985058  0
H  H9  1  0.37195980  0.16102781  0.14172580  1  0.050745  0  0.092516  0.086823  0  0.970151  0
H  H10  1  0.51910220  0.06910941  0.14108420  1  0.024131  0  0.086171  0.112259  0  1.000173  0
H  H11  1  0.41671986  0.99971616  0.18795617  1  0.008095  0  0.085705  0.114988  0  1.019485  0
H  H12  1  0.51166611  0.05491835  0.25672005  1  0.018902  0  0.080315  0.102988  0  1.021631  0
H  H13  1  0.03426177  0.60843737  0.50598701  1  0.110393  0  0.120006  0.124828  0  0.955416  0
H  H14  1  0.49801644  0.74133093  0.74755615  1  0.064016  0  0.091584  0.051645  0  0.993626  0
H  H15  1  0.42681268  0.75962392  0.84167740  1  -0.007526  0  0.086509  0.040468  0  0.985206  0
H  H16  1  0.35545020  0.74894883  0.65006966  1  0.014979  0  0.093852  0.097121  0  0.972434  0
H  H17  1  0.27981561  0.75947580  0.74061742  1  0.0279  0  0.093936  0.088538  0  0.965229  0
H  H18  1  0.37436508  0.91834773  0.77973319  1  -0.014505  0  0.082331  0.104776  0  1.007664  0
H  H19  1  0.33272074  0.92212613  0.66920756  1  0.026193  0  0.084149  0.112506  0  1.004149  0
H  H20  1  0.45582377  0.90782333  0.69264703  1  0.008013  0  0.075083  0.096084  0  1.035119  0
H  H21  1  0.74794390  0.65909430  0.06730638  1  0.033965  0  0.084876  0.112172  0  1.003158  0
H  H22  1  0.69071360  0.63469444  0.96358778  1  0.060903  0  0.085342  0.114491  0  1.028849  0
H  H23  1  0.72296171  0.75526590  0.99663602  1  -0.010174  0  0.082759  0.10844  0  1.003239  0
H  H24  1  0.45577465  0.35826032  0.05082895  1  0.077205  0  0.106857  0.121164  0  0.997338  0
H  H25  1  0.54464186  0.70685625  0.01238802  1  0.007801  0  0.086696  0.076464  0  1.011991  0
H  H26  1  0.60063763  0.73566873  0.11470203  1  0.002272  0  0.087719  0.077674  0  0.987394  0
H  H27  1  0.77478304  0.47756369  0.93252737  1  0.036044  0  0.084523  0.111309  0  1.003131  0
H  H28  1  0.71908081  0.47539274  0.03677730  1  0.01882  0  0.085598  0.11479  0  1.026569  0
H  H29  1  0.78033944  0.37792683  0.00510516  1  0.026443  0  0.08332  0.108765  0  1.003387  0
H  H30  1  0.60035104  0.33528910  0.99201381  1  0.04531  0  0.085174  0.074833  0  1.015848  0
H  H31  1  0.65623231  0.33186765  0.88944607  1  0.014732  0  0.087163  0.076128  0  0.997323  0
H  H32  1  0.31182712  0.64966130  0.31232052  1  0.090569  0  0.115094  0.094741  0  0.941605  0
H  H33  1  0.43017868  0.71277163  0.30760281  1  0.087631  0  0.102461  0.072806  0  1.004025  0
H  H34  1  0.23796700  0.79758323  0.27440214  1  0.025596  0  0.092827  0.087592  0  0.969604  0
H  H35  1  0.41862962  0.61206383  0.94744810  1  0.026082  0  0.105166  0.119213  0  0.999982  0
H  H36  1  0.35344496  0.86737616  0.27747776  1  0.010309  0  0.083094  0.067333  0  1.018672  0
H  H37  1  0.40828223  0.77900279  0.14930038  1  -0.002747  0  0.085799  0.111948  0  1.013175  0
H  H38  1  0.29944070  0.82798553  0.12188746  1  0.018962  0  0.087497  0.112937  0  1.004494  0
H  H39  1  0.29572212  0.70370982  0.14645683  1  0.045827  0  0.090841  0.119263  0  0.992994  0
H  H40  1  0.76846458  0.32827637  0.59186373  1  0.11313  0  0.1104  0.086476  0  0.969959  0
H  H41  1  0.74720916  0.20351360  0.56718990  1  0.021911  0  0.099646  0.055816  0  0.990295  0
H  H42  1  0.74276609  0.28814283  0.75157537  1  0.037983  0  0.097532  0.094754  0  0.977216  0
H  H43  1  0.72524311  0.16443792  0.72779145  1  0.034244  0  0.088964  0.077518  0  0.981017  0
H  H44  1  0.89682449  0.17762548  0.66746364  1  -0.011471  0  0.08571  0.108152  0  1.004033  0
H  H45  1  0.89762207  0.21475622  0.77817390  1  0.0601  0  0.092449  0.121561  0  0.994292  0
H  H46  1  0.56811356  0.63855403  0.23291840  1  0.074703  0  0.100303  0.103863  0  1.013116  0
H  H47  1  0.91359991  0.30170515  0.69241247  1  0.057115  0  0.091189  0.118926  0  0.997924  0
H  H48  1  0.59981264  0.40517670  0.76922774  1  0.062731  0  0.101084  0.107712  0  1.013165  0
H  H49  1  0.35956350  0.92593621  0.43085903  1  0.098008  0  0.117201  0.136262  0  1.000474  0
H  H50  1  0.62021729  0.07798420  0.59794284  1  0.070901  0  0.112462  0.128953  0  1.016738  0
H  H51  1  0.62558981  0.76308199  0.55156891  1  0.156943  0  0.129437  0.109399  0  0.978302  0
C  C52  1  0.50567592  0.48824919  0.33196201  1  1.566572  0  0.218222  0.619688  0  4.153984  0
C  C53  1  0.57012635  0.21077156  0.55723866  1  1.139291  0  0.227669  0.413704  0  4.063787  0
C  C54  1  0.56945935  0.80353493  0.52485839  1  0.466402  0  0.06099  0.128957  0  3.917306  0
C  C55  1  0.44368363  0.20328890  0.45506216  1  0.531859  0  0.063567  0.131011  0  3.920312  0
C  C56  1  0.57722281  0.90259261  0.52962845  1  -0.039089  0  -0.086869  -0.196815  0  3.963138  0
C  C57  1  0.44159862  0.10510878  0.44703781  1  -0.045745  0  -0.090416  -0.204428  0  3.967721  0
C  C58  1  0.50197665  0.95099027  0.49510043  1  0.039269  0  0.015471  0.125743  0  3.990602  0
C  C59  1  0.50551147  0.05652821  0.49861498  1  -0.051661  0  0.012762  0.125931  0  3.997707  0
C  C60  1  0.31229267  0.46453525  0.49883940  1  1.666789  0  0.217586  0.661013  0  4.250899  0
C  C61  1  0.69030651  0.54138198  0.50360202  1  1.7259  0  0.214439  0.659974  0  4.257703  0
C  C62  1  0.79546532  0.55204798  0.50452464  1  0.009527  0  -0.044446  -0.185814  0  3.95514  0
C  C63  1  0.50053022  0.51503923  0.66873076  1  1.587749  0  0.220956  0.62443  0  4.147594  0
C  C64  1  0.20715436  0.45124655  0.50025513  1  0.185329  0  -0.037048  -0.168093  0  3.935265  0
C  C65  1  0.98312969  0.54255019  0.50547144  1  0.054107  0  -0.064806  -0.049595  0  4.055825  0
C  C66  1  0.01900244  0.45633991  0.50408559  1  0.084958  0  -0.064584  -0.044934  0  4.06635  0
C  C67  1  0.11905891  0.45029705  0.50190263  1  -0.426781  0  -0.043934  -0.030165  0  4.179399  0
C  C68  1  0.88318219  0.54952641  0.50524198  1  -0.375414  0  -0.044982  -0.027575  0  4.190493  0
C  C69  1  0.48496274  0.41940404  0.09058686  1  -0.045616  0  -0.101898  -0.2565  0  4.004158  0
C  C70  1  0.46280500  0.56963718  0.90878052  1  -0.01866  0  -0.100757  -0.249291  0  3.994836  0
C  C71  1  0.47907486  0.41053626  0.18180934  1  0.513541  0  0.082804  0.238952  0  4.068476  0
C  C72  1  0.45494163  0.57390317  0.81747356  1  0.497542  0  0.080338  0.232203  0  4.07557  0
C  C73  1  0.50973335  0.49042285  0.23385715  1  -0.037664  0  -0.026169  -0.127065  0  3.970452  0
C  C74  1  0.55336478  0.58672147  0.10066289  1  -0.02378  0  -0.016771  0.049639  0  3.941037  0
C  C75  1  0.50613940  0.51511673  0.76686530  1  0.007421  0  -0.021659  -0.115457  0  3.970154  0
C  C76  1  0.54517807  0.57683407  0.19161153  1  0.045649  0  -0.088894  -0.143819  0  3.992958  0
C  C77  1  0.56299094  0.45261624  0.80971038  1  -0.036268  0  -0.090562  -0.147427  0  3.981696  0
C  C78  1  0.48855279  0.24475884  0.21003174  1  0.40916  0  -0.066175  0.044393  0  3.90074  0
C  C79  1  0.41705448  0.15425672  0.20103605  1  -0.016716  0  -0.169214  -0.136586  0  4.003536  0
C  C80  1  0.46882066  0.06460421  0.19658302  1  -0.053304  0  -0.244869  -0.354371  0  3.988929  0
C  C81  1  0.42392021  0.73025867  0.77450129  1  0.434956  0  -0.068532  0.045304  0  3.917018  0
C  C82  1  0.35419963  0.77868969  0.71635964  1  0.010971  0  -0.166974  -0.128453  0  3.971674  0
C  C83  1  0.38061788  0.88760549  0.71437852  1  -0.013421  0  -0.247118  -0.350292  0  3.996685  0
C  C84  1  0.59510351  0.68260754  0.06188927  1  0.029967  0  -0.162646  -0.138786  0  4.001136  0
C  C85  1  0.57328882  0.44844173  0.90098561  1  -0.009481  0  -0.015737  0.052886  0  3.935469  0
C  C86  1  0.69499834  0.68280375  0.01997092  1  -0.067811  0  -0.244081  -0.350113  0  3.963912  0
C  C87  1  0.63904797  0.38072228  0.94113022  1  -0.016849  0  -0.162023  -0.135003  0  3.995642  0
C  C88  1  0.73376326  0.43086982  0.98114292  1  -0.076929  0  -0.245289  -0.351795  0  3.966428  0
C  C89  1  0.35377824  0.72057066  0.32052679  1  0.346736  0  -0.059892  0.043413  0  3.824924  0
C  C90  1  0.31562660  0.79596207  0.26130708  1  -0.012875  0  -0.171125  -0.141979  0  4.003244  0
C  C91  1  0.33057716  0.77553619  0.16442304  1  -0.032356  0  -0.241118  -0.350881  0  3.975793  0
C  C92  1  0.73167742  0.25830960  0.61420033  1  0.387142  0  -0.056988  0.041058  0  3.849974  0
C  C93  1  0.76397364  0.23405165  0.70659712  1  -0.016449  0  -0.166549  -0.136649  0  3.994199  0
C  C94  1  0.87399609  0.23188831  0.71135944  1  -0.092689  0  -0.238985  -0.351184  0  3.972285  0
C  C95  1  0.52226157  0.50532942  0.04902885  1  -0.008358  0  -0.003262  0.050905  0  3.96466  0
C  C96  1  0.52171665  0.50873559  0.95140913  1  -0.043869  0  -0.005948  0.04293  0  3.965148  0
C  C97  1  0.42237786  0.89501328  0.45674232  1  0.00583  0  -0.083112  -0.275377  0  3.906074  0
C  C98  1  0.57101338  0.11122587  0.55421603  1  -0.003429  0  -0.092747  -0.296808  0  3.931483  0
C  C99  1  0.42105830  0.79568534  0.45130817  1  1.075931  0  0.226687  0.416092  0  4.06434  0
N  N100  1  0.49318686  0.75049805  0.48603519  1  -1.22408  0  -0.316129  -0.29272  0  3.452895  0
N  N101  1  0.50669069  0.25523968  0.50914787  1  -1.239746  0  -0.320925  -0.285237  0  3.46424  0
O  O102  1  0.52477244  0.41342758  0.37296396  1  -1.159894  0  -0.314103  -0.543801  0  2.320842  0
O  O103  1  0.39081736  0.62908486  0.77755592  1  -1.084781  0  -0.207399  -0.240385  0  2.501914  0
O  O104  1  0.34430075  0.74212930  0.41357815  1  -1.084574  0  -0.194825  -0.258594  0  2.476572  0
O  O105  1  0.62875719  0.26879537  0.60988651  1  -1.076117  0  -0.166845  -0.211906  0  2.52679  0
O  O106  1  0.51516112  0.59542166  0.62830974  1  -1.168169  0  -0.31587  -0.551285  0  2.315873  0
O  O107  1  0.48482030  0.56508114  0.36678941  1  -1.175879  0  -0.316119  -0.562649  0  2.378988  0
O  O108  1  0.48409859  0.43275813  0.63401815  1  -1.158132  0  -0.317297  -0.5436  0  2.323409  0
O  O109  1  0.35584941  0.39202602  0.48403537  1  -1.157435  0  -0.313794  -0.549553  0  2.263591  0
O  O110  1  0.64766833  0.61407881  0.48420453  1  -1.153162  0  -0.315874  -0.551585  0  2.251204  0
O  O111  1  0.35054909  0.55024971  0.51271374  1  -1.134818  0  -0.308339  -0.531512  0  2.289937  0
O  O112  1  0.65104153  0.45689398  0.52272386  1  -1.140108  0  -0.308354  -0.540269  0  2.301677  0
O  O113  1  0.43578687  0.32602573  0.21862030  1  -1.070856  0  -0.206117  -0.237751  0  2.509074  0
