# generated using pymatgen
data_CoH26C34(N7Cl)2
_symmetry_space_group_name_H-M   'P 1'
_cell_length_a   8.29133339
_cell_length_b   8.69394374
_cell_length_c   11.94441490
_cell_angle_alpha   81.75426859
_cell_angle_beta   87.96973653
_cell_angle_gamma   66.97907951
_symmetry_Int_Tables_number   1
_chemical_formula_structural   CoH26C34(N7Cl)2
_chemical_formula_sum   'Co1 H26 C34 N14 Cl2'
_cell_volume   784.04323677
_cell_formula_units_Z   1
loop_
 _symmetry_equiv_pos_site_id
 _symmetry_equiv_pos_as_xyz
  1  'x, y, z'
loop_
 _atom_site_type_symbol
 _atom_site_label
 _atom_site_symmetry_multiplicity
 _atom_site_fract_x
 _atom_site_fract_y
 _atom_site_fract_z
 _atom_site_occupancy
 _atom_site_hle17_ddec_charge
 _atom_site_hle17_ddec_spin_density
 _atom_site_hle17_ddec_sum_bond_order
 _atom_site_hle17_magmom
 _atom_site_hse06_10hf_ddec_charge
 _atom_site_hse06_10hf_ddec_spin_density
 _atom_site_hse06_10hf_ddec_sum_bond_order
 _atom_site_hse06_10hf_magmom
 _atom_site_hse06_ddec_charge
 _atom_site_hse06_ddec_spin_density
 _atom_site_hse06_ddec_sum_bond_order
 _atom_site_hse06_magmom
 _atom_site_pbe_cm5_charge
 _atom_site_pbe_ddec_charge
 _atom_site_pbe_ddec_spin_density
 _atom_site_pbe_ddec_sum_bond_order
 _atom_site_pbe_magmom
Co  Co0  1  0.00000120  0.00000108  0.49999955  1  0.502024  1.113368  2.564631  0.972  0.484946  1.016161  2.967168  0.93  0.550499  1.016599  2.905204  0.944  0.582877  0.449771  1.006203  3.002198  0.904
H  H1  1  0.16846168  0.62657945  0.58449309  1  0.064062  -9.4e-05  0.984309  0.001  0.064237  -0.000209  1.062545  0.0  0.067286  -0.000157  1.056954  0.0  0.119827  0.061719  -0.000235  1.066942  0.0
H  H2  1  0.83153667  0.37342057  0.41550668  1  0.063996  -9.5e-05  0.984364  0.001  0.064214  -0.000209  1.06257  0.0  0.067264  -0.000157  1.05698  0.0  0.119803  0.061695  -0.000235  1.066971  0.0
H  H3  1  0.26354731  0.38007359  0.30360128  1  0.085544  0.000656  0.963971  0.001  0.090708  0.000591  1.032761  0.0  0.094006  0.00047  1.028897  0.0  0.106219  0.088112  0.000717  1.0357  0.0
H  H4  1  0.73645466  0.61992642  0.69639831  1  0.085502  0.000656  0.963997  0.001  0.090676  0.000591  1.032778  0.0  0.093974  0.00047  1.028913  0.0  0.106212  0.088079  0.000717  1.035721  0.0
H  H5  1  0.05210262  0.92565988  0.27065334  1  0.093201  -0.000257  0.966767  0.0  0.098437  -0.000277  1.035084  0.0  0.101369  -0.000204  1.031162  0.0  0.116416  0.095973  -0.000323  1.038443  0.0
H  H6  1  0.94790324  0.07434266  0.72934744  1  0.093268  -0.000257  0.96666  0.0  0.098439  -0.000277  1.035052  0.0  0.101372  -0.000204  1.031128  0.0  0.116407  0.095975  -0.000323  1.038408  0.0
H  H7  1  0.88390930  0.90028395  0.13338289  1  0.086938  -0.000147  0.971963  0.0  0.097139  -6.7e-05  1.036268  0.0  0.098813  -4e-05  1.037297  0.0  0.096636  0.095984  -9.3e-05  1.035576  0.0
H  H8  1  0.11609682  0.09972362  0.86661477  1  0.086936  -0.000147  0.97198  0.0  0.097145  -6.7e-05  1.036261  0.0  0.098818  -4e-05  1.037289  0.0  0.096599  0.095989  -9.3e-05  1.035569  0.0
H  H9  1  0.82401057  0.91067427  0.93010848  1  0.094664  5e-05  0.960297  0.0  0.097271  6.7e-05  1.033337  0.0  0.100646  4.7e-05  1.031199  0.0  0.098128  0.094792  8.6e-05  1.034973  0.0
H  H10  1  0.17599551  0.08933329  0.06988835  1  0.094662  5e-05  0.960267  0.0  0.097247  6.7e-05  1.03332  0.0  0.100623  4.7e-05  1.031181  0.0  0.098104  0.094768  8.6e-05  1.034959  0.0
H  H11  1  0.01471558  0.68514022  0.82459138  1  0.096729  0.000174  1.006611  0.0  0.103518  0.000302  1.075056  0.0  0.107034  0.000216  1.072901  0.0  0.087504  0.100824  0.000388  1.076577  0.0
H  H12  1  0.98528430  0.31485602  0.17540876  1  0.096735  0.000174  1.006611  0.0  0.103522  0.000302  1.075057  0.0  0.107036  0.000216  1.072905  0.0  0.087488  0.100826  0.000388  1.076581  0.0
H  H13  1  0.33965296  0.43931968  0.12345423  1  0.092261  -3.3e-05  0.982001  0.0  0.102068  3.8e-05  1.050923  0.0  0.104542  2.8e-05  1.049762  0.0  0.10203  0.100251  5.1e-05  1.051902  0.0
H  H14  1  0.66033720  0.56067407  0.87654920  1  0.092319  -3.4e-05  0.982018  0.0  0.102092  3.8e-05  1.050968  0.0  0.104565  2.8e-05  1.04981  0.0  0.102026  0.100287  5.1e-05  1.051936  0.0
H  H15  1  0.61055236  0.14028101  0.66367221  1  0.109625  -0.000212  0.961398  0.0  0.11798  -0.000193  1.029557  0.0  0.119603  -0.000148  1.028926  0.0  0.109686  0.116418  -0.000234  1.030387  0.0
H  H16  1  0.38944813  0.85972280  0.33632785  1  0.109656  -0.000212  0.961444  0.0  0.118013  -0.000192  1.029598  0.0  0.119635  -0.000147  1.028963  0.0  0.109687  0.116438  -0.000234  1.03044  0.0
H  H17  1  0.40574169  0.29787939  0.60337287  1  0.111058  1.9e-05  0.943742  0.0  0.117234  7e-06  1.014526  0.0  0.120084  1e-05  1.011556  0.0  0.118862  0.11523  4e-06  1.016517  0.0
H  H18  1  0.59425865  0.70212190  0.39662833  1  0.111066  1.9e-05  0.943755  0.0  0.117258  7e-06  1.014522  0.0  0.12011  9e-06  1.011554  0.0  0.118856  0.115254  4e-06  1.016512  0.0
H  H19  1  0.52843012  0.92420040  0.84056622  1  0.106447  0.000177  0.952756  0.0  0.110517  0.000128  1.025461  0.0  0.11402  0.000111  1.021233  0.0  0.109636  0.107805  0.00015  1.028883  0.0
H  H20  1  0.47156613  0.07580216  0.15943587  1  0.106453  0.000177  0.952673  0.0  0.110516  0.000128  1.0254  0.0  0.114021  0.000111  1.021174  0.0  0.109628  0.107803  0.00015  1.028823  0.0
H  H21  1  0.39366296  0.71169642  0.84732877  1  0.101696  -0.000221  0.983413  0.0  0.105218  -1.2e-05  1.054759  0.0  0.108065  -2.2e-05  1.0545  0.0  0.103601  0.103256  3e-06  1.055019  0.0
H  H22  1  0.60633535  0.28830360  0.15267017  1  0.101725  -0.000221  0.983377  0.0  0.105243  -1.2e-05  1.054733  0.0  0.108089  -2.1e-05  1.054473  0.0  0.103605  0.10328  3e-06  1.054993  0.0
H  H23  1  0.18541878  0.73936992  0.69485106  1  0.074127  -0.000225  1.019845  0.0  0.078571  -0.000217  1.092629  0.0  0.08081  -0.000172  1.089033  0.0  0.105711  0.076771  -0.000232  1.095425  0.0
H  H24  1  0.81458544  0.26063007  0.30514507  1  0.07415  -0.000225  1.01981  0.0  0.078585  -0.000217  1.092627  0.0  0.080823  -0.000172  1.089031  0.0  0.1057  0.076798  -0.000232  1.09539  0.0
H  H25  1  0.24490343  0.16372547  0.52393269  1  0.09779  -0.000254  0.986962  0.0  0.098001  -0.00026  1.061843  0.0  0.101004  -0.000204  1.058682  0.0  0.105848  0.095503  -0.000294  1.064558  0.0
H  H26  1  0.75509975  0.83627454  0.47606684  1  0.097807  -0.000254  0.986926  0.0  0.098012  -0.00026  1.061803  0.0  0.101015  -0.000204  1.058641  0.0  0.105842  0.095514  -0.000294  1.064518  0.0
C  C27  1  0.17088238  0.63538282  0.49289024  1  0.273263  -0.015414  3.672431  -0.011  0.225337  -0.005276  3.946968  -0.003  0.242821  -0.004311  3.956544  -0.003  0.171822  0.213574  -0.005881  3.941212  -0.004
C  C28  1  0.82911741  0.36461972  0.50711000  1  0.273362  -0.015414  3.672508  -0.011  0.225358  -0.005277  3.947077  -0.003  0.242842  -0.004311  3.956653  -0.003  0.171909  0.213594  -0.005882  3.941325  -0.004
C  C29  1  0.22038434  0.50037226  0.33646314  1  0.131202  -0.018903  3.642206  -0.012  0.096385  -0.005659  3.89597  -0.003  0.109859  -0.003623  3.905668  -0.002  0.062583  0.086573  -0.007668  3.890457  -0.005
C  C30  1  0.77961420  0.49963028  0.66353633  1  0.131273  -0.018907  3.642113  -0.012  0.096459  -0.005661  3.895906  -0.003  0.109935  -0.003623  3.9056  -0.002  0.062603  0.086642  -0.007671  3.890393  -0.005
C  C31  1  0.14652203  0.65536183  0.26549511  1  -0.029717  0.00457  3.759993  0.007  -0.011739  0.000633  3.995534  0.001  -0.019585  0.000767  4.016927  0.001  0.001594  -0.007081  0.000619  3.982237  0.001
C  C32  1  0.85347697  0.34463944  0.73450365  1  -0.029732  0.004571  3.759819  0.007  -0.011781  0.000633  3.995449  0.001  -0.019632  0.000767  4.016847  0.001  0.001608  -0.007123  0.000619  3.982152  0.001
C  C33  1  0.09746599  0.79953030  0.31860787  1  0.106837  -0.018523  3.623576  -0.012  0.066709  -0.006187  3.87709  -0.004  0.08058  -0.004483  3.889666  -0.003  0.056806  0.05686  -0.007607  3.870039  -0.005
C  C34  1  0.90253537  0.20046846  0.68139358  1  0.10681  -0.018527  3.623513  -0.012  0.066738  -0.006188  3.877033  -0.004  0.080612  -0.004483  3.889608  -0.003  0.056797  0.056888  -0.007608  3.869982  -0.005
C  C35  1  0.11562199  0.66751021  0.14330011  1  0.053122  -0.002042  3.807346  -0.002  0.06635  -0.000253  4.04581  0.0  0.065593  -0.00036  4.071789  0.0  -0.010615  0.067024  -0.000234  4.028196  0.0
C  C36  1  0.88437812  0.33248855  0.85670056  1  0.053177  -0.002044  3.807268  -0.002  0.066315  -0.000255  4.045861  0.0  0.065558  -0.000361  4.071839  0.0  -0.010661  0.06699  -0.000234  4.028249  0.0
C  C37  1  0.97174703  0.80183241  0.08711421  1  -0.089258  0.001131  3.700659  0.001  -0.112674  0.000132  3.947059  0.0  -0.114877  0.000179  3.969449  0.0  -0.083761  -0.110965  0.000122  3.931568  0.0
C  C38  1  0.02825589  0.19817390  0.91288209  1  -0.089285  0.001132  3.700696  0.001  -0.112637  0.00013  3.947072  0.0  -0.114838  0.00018  3.969461  0.0  -0.083741  -0.110925  0.000122  3.931575  0.0
C  C39  1  0.93718220  0.80729753  0.97295436  1  -0.059694  -0.001332  3.752305  -0.001  -0.068078  -7.7e-05  4.002725  0.0  -0.071157  -0.000167  4.02505  0.0  -0.090124  -0.066051  -5.6e-05  3.987705  0.0
C  C40  1  0.06282076  0.19270877  0.02704277  1  -0.059746  -0.001335  3.752202  -0.001  -0.068128  -7.4e-05  4.002618  0.0  -0.071207  -0.000167  4.024942  0.0  -0.090077  -0.066103  -5.6e-05  3.9876  0.0
C  C41  1  0.04583948  0.68032944  0.91322113  1  -0.083194  0.001309  3.708405  0.002  -0.108374  0.000456  3.950818  0.0  -0.110639  0.000397  3.973003  0.0  -0.084675  -0.106747  0.000571  3.936027  0.001
C  C42  1  0.95415934  0.31966931  0.08677793  1  -0.083095  0.00131  3.708393  0.002  -0.108278  0.000456  3.950781  0.0  -0.110542  0.000397  3.972966  0.0  -0.084642  -0.106655  0.000571  3.935991  0.001
C  C43  1  0.19321669  0.54873632  0.96694729  1  0.004372  -0.001148  3.810529  -0.001  0.027339  -9.1e-05  4.038918  0.0  0.024804  -0.000181  4.062683  0.0  -0.00618  0.029018  -6.9e-05  4.022832  0.0
C  C44  1  0.80677825  0.45125742  0.03305506  1  0.00433  -0.00115  3.810768  -0.001  0.027318  -9.7e-05  4.039083  0.0  0.024784  -0.000182  4.062844  0.0  -0.006144  0.029003  -6.9e-05  4.022989  0.0
C  C45  1  0.22594219  0.54242466  0.08201080  1  -0.116811  0.001195  3.681557  0.001  -0.151221  0.000272  3.930167  0.0  -0.153642  0.000271  3.95124  0.0  -0.080545  -0.149436  0.00034  3.915832  0.0
C  C46  1  0.77405001  0.45757287  0.91799125  1  -0.116903  0.001196  3.6817  0.001  -0.151264  0.000276  3.930326  0.0  -0.153683  0.000272  3.951397  0.0  -0.080543  -0.149493  0.00034  3.915984  0.0
C  C47  1  0.31355138  0.41879177  0.90454252  1  0.255723  4.5e-05  3.786076  0.0  0.237854  7e-06  4.058597  0.0  0.246337  8e-06  4.074976  0.0  0.221683  0.232112  1.1e-05  4.047532  0.0
C  C48  1  0.68644352  0.58120195  0.09545899  1  0.25565  4.6e-05  3.786288  0.0  0.237809  7e-06  4.058765  0.0  0.246292  9e-06  4.075145  0.0  0.221666  0.232065  1.1e-05  4.047699  0.0
C  C49  1  0.46776112  0.19735492  0.67381574  1  -0.099637  -0.000618  3.618259  -0.001  -0.160404  -0.000146  3.861347  0.0  -0.157835  -0.000139  3.87132  0.0  -0.043647  -0.161779  -0.000154  3.854777  0.0
C  C50  1  0.53224066  0.80264257  0.32618416  1  -0.099728  -0.000618  3.618379  -0.001  -0.160521  -0.000147  3.86146  0.0  -0.157956  -0.000139  3.871436  0.0  -0.043638  -0.161884  -0.000154  3.854895  0.0
C  C51  1  0.39664410  0.06075454  0.68099129  1  0.0436  0.003306  3.721252  0.005  0.068236  0.000572  3.956694  0.001  0.061844  0.000641  3.980457  0.001  -0.002134  0.072202  0.000661  3.941321  0.001
C  C52  1  0.60335908  0.93924547  0.31900824  1  0.043597  0.003306  3.721273  0.005  0.068218  0.000573  3.956709  0.001  0.061828  0.000641  3.980471  0.001  -0.002175  0.072185  0.000661  3.941335  0.001
C  C53  1  0.44188478  0.93010445  0.77208701  1  -0.047791  -0.01237  3.694116  -0.008  -0.07777  -0.003909  3.944978  -0.003  -0.070725  -0.00278  3.958712  -0.002  -0.066829  -0.083117  -0.005093  3.936591  -0.003
C  C54  1  0.55811602  0.06989557  0.22791347  1  -0.047772  -0.01237  3.694032  -0.008  -0.077742  -0.003909  3.944874  -0.003  -0.070701  -0.00278  3.958612  -0.002  -0.066802  -0.083089  -0.005092  3.936487  -0.003
C  C55  1  0.36841576  0.81087810  0.77546522  1  -0.118524  0.003215  3.754493  0.004  -0.126637  0.000489  4.007023  0.001  -0.135225  0.000598  4.027602  0.001  -0.086874  -0.121069  0.000518  3.993676  0.001
C  C56  1  0.63158274  0.18912443  0.22453341  1  -0.118506  0.003215  3.754475  0.004  -0.126619  0.00049  4.007  0.001  -0.135207  0.000598  4.027579  0.001  -0.086848  -0.121053  0.000518  3.993656  0.001
C  C57  1  0.25279979  0.82477178  0.68944943  1  0.104521  -0.011523  3.685121  -0.008  0.071396  -0.00431  3.938802  -0.003  0.081733  -0.003419  3.955072  -0.002  0.039183  0.063936  -0.005017  3.929314  -0.003
C  C58  1  0.74720265  0.17522696  0.31054945  1  0.104488  -0.011523  3.685193  -0.008  0.071357  -0.004311  3.93888  -0.003  0.08169  -0.003419  3.955161  -0.002  0.039216  0.063899  -0.005017  3.929397  -0.003
C  C59  1  0.28224923  0.06503286  0.59687564  1  0.0661  -0.01226  3.615353  -0.008  0.031026  -0.003941  3.863667  -0.003  0.040562  -0.003158  3.879473  -0.002  0.040142  0.024104  -0.004688  3.854388  -0.003
C  C60  1  0.71775390  0.93496715  0.40312306  1  0.066099  -0.01226  3.615362  -0.008  0.031068  -0.003941  3.86363  -0.003  0.040605  -0.003158  3.879435  -0.002  0.040169  0.024147  -0.004688  3.854352  -0.003
N  N61  1  0.10534686  0.79128748  0.43236807  1  -0.274058  -0.011902  3.373901  -0.006  -0.220867  -0.008051  3.652735  -0.005  -0.250232  -0.007517  3.670416  -0.005  -0.33249  -0.203678  -0.007326  3.641446  -0.005
N  N62  1  0.89465632  0.20871253  0.56763146  1  -0.274202  -0.011902  3.373996  -0.006  -0.220951  -0.008051  3.652787  -0.005  -0.250316  -0.007517  3.670464  -0.005  -0.332551  -0.203762  -0.007326  3.641499  -0.005
N  N63  1  0.23384324  0.49135205  0.44892873  1  -0.323761  0.002308  3.051681  0.006  -0.282913  0.00018  3.320358  0.001  -0.298719  0.000447  3.330357  0.001  -0.31193  -0.272171  6.6e-05  3.313835  0.001
N  N64  1  0.76615990  0.50864796  0.55106997  1  -0.323726  0.002308  3.051687  0.006  -0.282859  0.00018  3.320396  0.001  -0.298666  0.000447  3.330395  0.001  -0.311938  -0.272116  6.6e-05  3.313873  0.001
N  N65  1  0.29548323  0.41021199  0.79426897  1  -0.302958  -0.000186  2.795872  0.0  -0.289968  0.0  3.060632  0.0  -0.297034  -1.9e-05  3.07407  0.0  -0.194985  -0.285139  1.2e-05  3.051614  0.0
N  N66  1  0.70451182  0.58978426  0.20573140  1  -0.302877  -0.000187  2.795942  0.0  -0.289888  2e-06  3.060668  0.0  -0.296955  -1.9e-05  3.074105  0.0  -0.194965  -0.28506  1.2e-05  3.051652  0.0
N  N67  1  0.43652174  0.27350131  0.77818430  1  0.213975  6.5e-05  3.526559  0.0  0.26559  2.1e-05  3.804402  0.0  0.260996  2.2e-05  3.826805  0.0  -0.006677  0.268528  2.4e-05  3.789183  0.0
N  N68  1  0.56347720  0.72649746  0.22181726  1  0.213926  6.5e-05  3.52663  0.0  0.265546  2e-05  3.804459  0.0  0.260953  2.1e-05  3.826862  0.0  -0.006724  0.268483  2.4e-05  3.789239  0.0
N  N69  1  0.53753780  0.19933297  0.87125611  1  -0.097778  -5.1e-05  2.865563  0.0  -0.092892  -4.4e-05  3.151238  0.0  -0.089162  -2.2e-05  3.160565  0.0  -0.06571  -0.095118  -6.9e-05  3.144942  0.0
N  N70  1  0.46246114  0.80066580  0.12874545  1  -0.097811  -5e-05  2.865612  0.0  -0.092918  -4.6e-05  3.151281  0.0  -0.089186  -2.3e-05  3.160602  0.0  -0.065728  -0.095144  -6.9e-05  3.144985  0.0
N  N71  1  0.46155390  0.29028346  0.95174851  1  -0.260235  -0.000248  2.931234  0.0  -0.24087  -6.3e-05  3.218158  0.0  -0.248942  -6.1e-05  3.229241  0.0  -0.190335  -0.235245  -6.8e-05  3.210513  0.0
N  N72  1  0.53843952  0.70971406  0.04825348  1  -0.26012  -0.000249  2.93126  0.0  -0.240774  -6.2e-05  3.218166  0.0  -0.248845  -6.2e-05  3.229248  0.0  -0.190282  -0.235149  -6.8e-05  3.210521  0.0
N  N73  1  0.20823460  0.94997607  0.60093783  1  -0.236355  -0.008416  3.347661  -0.004  -0.18302  -0.005896  3.618191  -0.004  -0.211477  -0.006193  3.640344  -0.004  -0.327714  -0.165637  -0.004143  3.603644  -0.002
N  N74  1  0.79176756  0.05002646  0.39906145  1  -0.236416  -0.008416  3.347797  -0.004  -0.183105  -0.005896  3.618347  -0.004  -0.211561  -0.006193  3.640495  -0.004  -0.327769  -0.165723  -0.004143  3.603802  -0.002
Cl  Cl75  1  0.14093259  0.14108087  0.34536448  1  -0.578089  0.041484  0.929944  0.066  -0.55216  0.033166  1.182721  0.049  -0.578401  0.024868  1.164451  0.038  -0.280131  -0.528213  0.042043  1.193029  0.061
Cl  Cl76  1  0.85906993  0.85891788  0.65463607  1  -0.578088  0.041482  0.929903  0.066  -0.552161  0.033165  1.18268  0.049  -0.57841  0.024867  1.164421  0.038  -0.280133  -0.528214  0.042042  1.192993  0.061
