# generated using pymatgen
data_CuH12C20(NO)6
_symmetry_space_group_name_H-M   'P 1'
_cell_length_a   8.72277737
_cell_length_b   10.54531063
_cell_length_c   12.02173005
_cell_angle_alpha   73.16695856
_cell_angle_beta   74.58005111
_cell_angle_gamma   70.86502952
_symmetry_Int_Tables_number   1
_chemical_formula_structural   CuH12C20(NO)6
_chemical_formula_sum   'Cu2 H24 C40 N12 O12'
_cell_volume   981.91617820
_cell_formula_units_Z   2
loop_
 _symmetry_equiv_pos_site_id
 _symmetry_equiv_pos_as_xyz
  1  'x, y, z'
loop_
 _atom_site_type_symbol
 _atom_site_label
 _atom_site_symmetry_multiplicity
 _atom_site_fract_x
 _atom_site_fract_y
 _atom_site_fract_z
 _atom_site_occupancy
 _atom_site_pbe_cm5_charge
 _atom_site_pbe_ddec_charge
 _atom_site_pbe_ddec_spin_density
 _atom_site_pbe_ddec_sum_bond_order
 _atom_site_pbe_magmom
Cu  Cu0  1  0.63849138  0.32743204  0.44977036  1  0.766865  0.698048  -0.003495  2.41355  -0.011
Cu  Cu1  1  0.36158496  0.67262104  0.55016222  1  0.76603  0.697363  0.003489  2.413183  0.011
H  H2  1  0.14224408  0.26625534  0.60998644  1  0.112378  0.128209  -3e-06  1.030797  0.0
H  H3  1  0.85776496  0.73373499  0.39000624  1  0.112333  0.128132  3e-06  1.030839  0.0
H  H4  1  0.33620968  0.08932212  0.50221624  1  0.116082  0.120495  1e-06  0.996618  0.0
H  H5  1  0.66380141  0.91067638  0.49776394  1  0.116059  0.1205  -1e-06  0.996572  0.0
H  H6  1  0.23554967  0.01772725  0.35761349  1  0.112153  0.124762  0.0  1.022461  0.0
H  H7  1  0.76444699  0.98227535  0.64236927  1  0.112155  0.124749  0.0  1.022486  0.0
H  H8  1  0.94285585  0.12188740  0.33260716  1  0.121477  0.09468  -7e-06  1.018008  0.0
H  H9  1  0.05714300  0.87809768  0.66737722  1  0.1215  0.094731  7e-06  1.018107  0.0
H  H10  1  0.59498199  0.61240776  0.73976951  1  0.157605  0.130806  -2e-06  0.980755  0.0
H  H11  1  0.40501174  0.38756385  0.26021103  1  0.157714  0.131042  1e-06  0.980828  0.0
H  H12  1  0.28769280  0.44847025  0.71246614  1  0.109867  0.065692  1e-06  1.058097  0.0
H  H13  1  0.71231202  0.55152942  0.28753659  1  0.109836  0.065628  -2e-06  1.058197  0.0
H  H14  1  0.21756137  0.39384314  0.93159121  1  0.11618  0.12675  0.0  0.974163  0.0
H  H15  1  0.78242971  0.60618023  0.06841304  1  0.116226  0.12688  -1e-06  0.9741  0.0
H  H16  1  0.93293719  0.36075568  0.03213350  1  0.110209  0.12205  -1e-06  1.026868  0.0
H  H17  1  0.06705645  0.63927077  0.96786696  1  0.110209  0.122039  1e-06  1.026809  0.0
H  H18  1  0.73427355  0.38977510  0.90387464  1  0.120687  0.141  -1e-06  0.980307  0.0
H  H19  1  0.26572449  0.61023796  0.09612843  1  0.120698  0.14104  1e-06  0.980261  0.0
H  H20  1  0.53629904  0.01401737  0.34840468  1  0.106864  0.108083  -2e-06  1.040502  0.0
H  H21  1  0.46369099  0.98597303  0.65160748  1  0.106858  0.108066  3e-06  1.040527  0.0
H  H22  1  0.63231382  0.84397095  0.04507141  1  0.111857  0.116227  1e-06  1.030945  0.0
H  H23  1  0.36768269  0.15604308  0.95492256  1  0.11184  0.116137  -1e-06  1.030995  0.0
H  H24  1  0.82107597  0.18331518  0.02071916  1  0.110332  0.112356  -1e-06  1.057642  0.0
H  H25  1  0.17889762  0.81670710  0.97928461  1  0.110376  0.112456  1e-06  1.057872  0.0
C  C26  1  0.93963024  0.28528809  0.52951116  1  0.124019  0.150414  -9e-06  4.011133  0.0
C  C27  1  0.06038557  0.71468158  0.47047724  1  0.124275  0.150379  9e-06  4.01093  0.0
C  C28  1  0.10115459  0.23066421  0.54964369  1  -0.071958  -0.130034  -1.6e-05  3.893355  0.0
C  C29  1  0.89885700  0.76932200  0.45034957  1  -0.07199  -0.129919  1.6e-05  3.893493  0.0
C  C30  1  0.20957558  0.13266393  0.48781371  1  -0.055965  -0.008936  9e-06  3.915923  0.0
C  C31  1  0.79043687  0.86733049  0.51217227  1  -0.056207  -0.009405  -8e-06  3.916239  0.0
C  C32  1  0.15468633  0.09331971  0.40774654  1  -0.0726  -0.107682  -2.1e-05  3.918555  0.0
C  C33  1  0.84530608  0.90667778  0.59224585  1  -0.072516  -0.107466  2.4e-05  3.918492  0.0
C  C34  1  0.99070649  0.15106823  0.39343132  1  0.060764  0.11579  -7e-06  3.914723  0.0
C  C35  1  0.00927523  0.84893650  0.60656875  1  0.060673  0.115549  7e-06  3.914303  0.0
C  C36  1  0.81146847  0.39302934  0.57993801  1  0.254718  0.228235  -3e-06  3.934713  0.0
C  C37  1  0.18854072  0.60693531  0.42007128  1  0.254538  0.227976  8e-06  3.934305  0.0
C  C38  1  0.64433793  0.54651732  0.67718803  1  0.188529  0.136194  -1.3e-05  3.83222  0.0
C  C39  1  0.35567023  0.45344312  0.32281090  1  0.188406  0.13578  1.5e-05  3.832829  0.0
C  C40  1  0.91085265  0.43539239  0.74397312  1  0.217974  0.300959  -0.0  4.026312  0.0
C  C41  1  0.08915147  0.56460213  0.25603108  1  0.217982  0.300661  0.0  4.026751  0.0
C  C42  1  0.16575551  0.43593115  0.75758224  1  0.053287  0.117457  -1e-06  3.951605  0.0
C  C43  1  0.83424795  0.56407266  0.24242301  1  0.053319  0.117474  1e-06  3.951838  0.0
C  C44  1  0.12600499  0.40429720  0.88093214  1  -0.070243  -0.102437  1e-06  3.93028  0.0
C  C45  1  0.87398948  0.59571588  0.11907329  1  -0.070283  -0.102634  -1e-06  3.93028  0.0
C  C46  1  0.96977063  0.38740989  0.93610976  1  -0.065008  -0.026665  -0.0  3.942104  0.0
C  C47  1  0.03021977  0.61260830  0.06389180  1  -0.064958  -0.026513  1e-06  3.941861  0.0
C  C48  1  0.85722505  0.40401618  0.86584533  1  -0.077032  -0.194274  -1e-06  3.933972  0.0
C  C49  1  0.14277111  0.59599175  0.13416193  1  -0.077041  -0.194294  1e-06  3.934013  0.0
C  C50  1  0.67415380  0.11427237  0.19004161  1  -0.017835  -0.022612  -4e-05  3.962598  0.0
C  C51  1  0.32583372  0.88575107  0.80997412  1  -0.017907  -0.022122  4e-05  3.962081  0.0
C  C52  1  0.59083168  0.01531298  0.25579824  1  -0.068954  -0.086577  -1e-06  3.899641  0.0
C  C53  1  0.40915973  0.98469496  0.74421244  1  -0.068878  -0.086649  2e-06  3.899612  0.0
C  C54  1  0.57545009  0.91732528  0.20522084  1  -0.014134  -0.013397  5e-06  3.933984  0.0
C  C55  1  0.42454742  0.08267849  0.79478224  1  -0.014158  -0.013405  -5e-06  3.934055  0.0
C  C56  1  0.64593404  0.91760670  0.08646363  1  -0.069393  -0.130353  2e-06  3.94658  0.0
C  C57  1  0.35405415  0.08240734  0.91353611  1  -0.069407  -0.130259  -2e-06  3.946723  0.0
C  C58  1  0.73582500  0.01233492  0.02318992  1  0.076276  0.066963  -4e-06  3.940043  0.0
C  C59  1  0.26415691  0.98768739  0.97681471  1  0.076295  0.066809  4e-06  3.940381  0.0
C  C60  1  0.75022108  0.11125554  0.07254609  1  -0.070803  -0.122917  -5e-06  3.928984  0.0
C  C61  1  0.24975150  0.88876267  0.92746642  1  -0.070973  -0.123359  5e-06  3.929044  0.0
C  C62  1  0.68284177  0.22325364  0.24466168  1  0.193127  0.53263  -1.9e-05  4.258705  0.0
C  C63  1  0.31714505  0.77674320  0.75538770  1  0.193192  0.532465  1.7e-05  4.258047  0.0
C  C64  1  0.48749611  0.80910670  0.28072063  1  0.184188  0.559386  2e-06  4.273652  0.0
C  C65  1  0.51250819  0.19089090  0.71928107  1  0.184184  0.559424  -2e-06  4.273725  0.0
N  N66  1  0.88528091  0.24358028  0.45356398  1  -0.328118  -0.251697  -0.000266  3.566126  -0.001
N  N67  1  0.11471081  0.75641207  0.54643070  1  -0.328338  -0.251649  0.000266  3.564976  0.001
N  N68  1  0.67130939  0.44627444  0.53850264  1  -0.240671  -0.19413  -0.000209  3.600143  -0.001
N  N69  1  0.32871689  0.55364187  0.46152334  1  -0.240648  -0.194005  0.000204  3.598817  0.001
N  N70  1  0.56909226  0.54057878  0.59771708  1  -0.233994  -0.122939  0.000159  3.611888  0.001
N  N71  1  0.43090771  0.45934141  0.40228472  1  -0.233981  -0.122937  -0.000165  3.611846  -0.001
N  N72  1  0.79757007  0.45607401  0.66845662  1  -0.188775  -0.053791  -0.0  3.701443  0.0
N  N73  1  0.20245067  0.54389882  0.33153749  1  -0.18879  -0.053409  1e-06  3.701216  0.0
N  N74  1  0.05934146  0.45162383  0.68888114  1  -0.31602  -0.327213  1e-06  3.351018  0.0
N  N75  1  0.94066622  0.54836345  0.31111925  1  -0.316091  -0.327193  -3e-06  3.351374  0.0
N  N76  1  0.82183302  0.00547454  0.90132599  1  0.059459  0.526753  -1e-06  4.187622  0.0
N  N77  1  0.17814465  0.99454978  0.09867313  1  0.059363  0.526574  1e-06  4.187491  0.0
O  O78  1  0.72810557  0.32614724  0.18109011  1  -0.320275  -0.547199  -6e-06  2.150704  0.0
O  O79  1  0.27189281  0.67387205  0.81891628  1  -0.320028  -0.546832  7e-06  2.151717  0.0
O  O80  1  0.63582519  0.19969727  0.35930804  1  -0.324267  -0.523978  -0.000386  2.354154  -0.002
O  O81  1  0.36420514  0.80034789  0.64069542  1  -0.324682  -0.524282  0.000391  2.352085  0.002
O  O82  1  0.47226167  0.79645362  0.39249267  1  -0.355808  -0.596547  1.2e-05  2.284177  0.0
O  O83  1  0.52775247  0.20354297  0.60750821  1  -0.355744  -0.596599  -1e-05  2.283642  0.0
O  O84  1  0.44175456  0.74341438  0.22965316  1  -0.352928  -0.569324  1e-06  2.102126  0.0
O  O85  1  0.55825092  0.25657603  0.77035350  1  -0.352932  -0.569324  -2e-06  2.10221  0.0
O  O86  1  0.80827471  0.91566233  0.85922269  1  -0.133372  -0.347892  1e-06  1.942818  0.0
O  O87  1  0.19172368  0.08435692  0.14077955  1  -0.133367  -0.347788  -1e-06  1.942479  0.0
O  O88  1  0.90593134  0.08720598  0.84712489  1  -0.135983  -0.342645  -0.0  1.952353  0.0
O  O89  1  0.09403988  0.91282348  0.15287332  1  -0.135901  -0.342511  1e-06  1.952222  0.0
