# generated using pymatgen
data_LuH9C9NO8
_symmetry_space_group_name_H-M   'P 1'
_cell_length_a   5.28437736
_cell_length_b   8.38005419
_cell_length_c   15.81726202
_cell_angle_alpha   105.59950069
_cell_angle_beta   93.58097140
_cell_angle_gamma   93.60706203
_symmetry_Int_Tables_number   1
_chemical_formula_structural   LuH9C9NO8
_chemical_formula_sum   'Lu2 H18 C18 N2 O16'
_cell_volume   671.00482177
_cell_formula_units_Z   2
loop_
 _symmetry_equiv_pos_site_id
 _symmetry_equiv_pos_as_xyz
  1  'x, y, z'
loop_
 _atom_site_type_symbol
 _atom_site_label
 _atom_site_symmetry_multiplicity
 _atom_site_fract_x
 _atom_site_fract_y
 _atom_site_fract_z
 _atom_site_occupancy
 _atom_site_pbe_bader_charge
 _atom_site_pbe_bader_spin_density
 _atom_site_pbe_cm5_charge
 _atom_site_pbe_ddec_charge
 _atom_site_pbe_ddec_spin_density
 _atom_site_pbe_ddec_sum_bond_order
 _atom_site_pbe_magmom
Lu  Lu0  1  0.96876787  0.36984607  0.24071295  1  2.167958  0  1.326632  1.645358  0  2.799538  0
Lu  Lu1  1  0.03122583  0.63016666  0.75928844  1  2.167925  0  1.326709  1.645427  0  2.799392  0
H  H2  1  0.24516522  0.08265053  0.01809220  1  0.09894  0  0.120273  0.081014  0  1.025048  0
H  H3  1  0.75485279  0.91736042  0.98190687  1  0.099115  0  0.120297  0.081053  0  1.025089  0
H  H4  1  0.08400030  0.20203883  0.78400508  1  0.112085  0  0.131844  0.101191  0  0.97116  0
H  H5  1  0.91600608  0.79795988  0.21599580  1  0.112073  0  0.131815  0.101192  0  0.971117  0
H  H6  1  0.78604678  0.41145132  0.93943249  1  0.165176  0  0.12053  0.132831  0  1.002315  0
H  H7  1  0.21395906  0.58856617  0.06056286  1  0.16419  0  0.120539  0.132906  0  1.002362  0
H  H8  1  0.63468906  0.58917628  0.43961018  1  0.088543  0  0.112664  0.141122  0  0.978802  0
H  H9  1  0.36529402  0.41077543  0.56040623  1  0.087634  0  0.1128  0.141322  0  0.978478  0
H  H10  1  0.40157713  0.67399093  0.51092668  1  0.065593  0  0.09997  0.107584  0  0.998114  0
H  H11  1  0.59840459  0.32595333  0.48908736  1  0.064948  0  0.10005  0.107612  0  0.998251  0
H  H12  1  0.82150093  0.20607237  0.36865416  1  0.628079  0  0.336909  0.410768  0  0.865842  0
H  H13  1  0.17851713  0.79392861  0.63133905  1  0.628032  0  0.336831  0.41072  0  0.865789  0
H  H14  1  0.55914169  0.26087631  0.33123331  1  0.665047  0  0.30064  0.397315  0  0.940809  0
H  H15  1  0.44085648  0.73911883  0.66876878  1  0.664959  0  0.300606  0.397283  0  0.940858  0
H  H16  1  0.05537211  0.03020452  0.14106217  1  0.640726  0  0.286101  0.335738  0  1.03333  0
H  H17  1  0.94463633  0.96981664  0.85893629  1  0.640663  0  0.286036  0.335671  0  1.033396  0
H  H18  1  0.32909028  0.15066054  0.15743215  1  0.659329  0  0.300869  0.396461  0  0.938522  0
H  H19  1  0.67092143  0.84935807  0.84256158  1  0.659483  0  0.300815  0.396313  0  0.938768  0
C  C20  1  0.69380457  0.27979051  0.07567489  1  1.583941  0  0.201612  0.554221  0  4.219137  0
C  C21  1  0.30622082  0.72023027  0.92432005  1  1.583761  0  0.201784  0.55442  0  4.218746  0
C  C22  1  0.53516463  0.25154413  0.99061352  1  -0.048921  0  -0.01257  -0.090286  0  3.97315  0
C  C23  1  0.46484025  0.74845714  0.00938327  1  -0.048757  0  -0.012336  -0.089765  0  3.97294  0
C  C24  1  0.30659705  0.15055118  0.97220931  1  0.54704  0  0.066512  0.101599  0  3.908401  0
C  C25  1  0.69342665  0.84945963  0.02779174  1  0.546788  0  0.066425  0.101373  0  3.908451  0
C  C26  1  0.21715213  0.21539116  0.84153477  1  0.484895  0  0.079291  0.111701  0  3.880602  0
C  C27  1  0.78284431  0.78460530  0.15846242  1  0.484709  0  0.079224  0.11167  0  3.880248  0
C  C28  1  0.44521172  0.31578052  0.85291669  1  0.054991  0  -0.005833  -0.092046  0  3.962169  0
C  C29  1  0.55478793  0.68422336  0.14707974  1  0.054912  0  -0.005762  -0.092005  0  3.962187  0
C  C30  1  0.60836585  0.33239559  0.92817083  1  -0.050386  0  -0.045125  -0.046046  0  3.876911  0
C  C31  1  0.39163460  0.66761330  0.07181939  1  -0.049279  0  -0.045344  -0.046509  0  3.877559  0
C  C32  1  0.50502305  0.41164473  0.78823768  1  1.617493  0  0.246425  0.635377  0  4.16354  0
C  C33  1  0.49497650  0.58836914  0.21176018  1  1.617531  0  0.246287  0.635197  0  4.163674  0
C  C34  1  0.26219645  0.47817820  0.39851066  1  1.528359  0  0.206558  0.628677  0  4.127567  0
C  C35  1  0.73778141  0.52178740  0.60149879  1  1.530079  0  0.206577  0.628761  0  4.127691  0
C  C36  1  0.46570851  0.55749750  0.47132632  1  -0.054624  0  -0.158228  -0.276331  0  3.914354  0
C  C37  1  0.53426021  0.44244831  0.52868770  1  -0.0261  0  -0.158528  -0.27662  0  3.914428  0
N  N38  1  0.15198857  0.13147356  0.89903943  1  -1.234523  0  -0.301986  -0.229824  0  3.416767  0
N  N39  1  0.84802375  0.86853752  0.10095828  1  -1.234428  0  -0.301828  -0.229705  0  3.416504  0
O  O40  1  0.61943445  0.21562679  0.13625529  1  -1.195433  0  -0.337265  -0.574837  0  2.258836  0
O  O41  1  0.38058132  0.78439295  0.86374374  1  -1.195859  0  -0.337383  -0.574795  0  2.2588  0
O  O42  1  0.89981132  0.37218961  0.08919896  1  -1.180892  0  -0.339336  -0.560454  0  2.254494  0
O  O43  1  0.10020839  0.62783131  0.91079526  1  -1.180408  0  -0.339512  -0.560728  0  2.254283  0
O  O44  1  0.31984086  0.44860227  0.74386246  1  -1.19561  0  -0.383448  -0.592416  0  2.336862  0
O  O45  1  0.68015145  0.55140302  0.25613403  1  -1.195424  0  -0.383497  -0.59238  0  2.336969  0
O  O46  1  0.73655728  0.45306763  0.78317225  1  -1.193635  0  -0.374971  -0.572781  0  2.355456  0
O  O47  1  0.26343746  0.54696127  0.21683464  1  -1.193679  0  -0.374811  -0.572618  0  2.355332  0
O  O48  1  0.28915564  0.33306964  0.34597730  1  -1.202946  0  -0.357764  -0.603831  0  2.24417  0
O  O49  1  0.71082765  0.66690587  0.65402294  1  -1.204351  0  -0.357742  -0.603883  0  2.244267  0
O  O50  1  0.06833064  0.55222286  0.38527106  1  -1.179768  0  -0.354476  -0.572085  0  2.173194  0
O  O51  1  0.93165994  0.44776119  0.61473561  1  -1.179859  0  -0.354445  -0.572044  0  2.173389  0
O  O52  1  0.73453804  0.22245958  0.31608051  1  -1.272363  0  -0.615573  -0.772515  0  2.076525  0
O  O53  1  0.26546885  0.77755287  0.68391793  1  -1.272288  0  -0.615463  -0.772433  0  2.076369  0
O  O54  1  0.15211708  0.14026811  0.17502775  1  -1.312724  0  -0.650258  -0.797523  0  2.186388  0
O  O55  1  0.84788156  0.85975206  0.82496089  1  -1.31274  0  -0.650136  -0.797417  0  2.186637  0
