# generated using pymatgen
data_HgH16C22(BrN2)2
_symmetry_space_group_name_H-M   'P 1'
_cell_length_a   5.07774720
_cell_length_b   13.35476646
_cell_length_c   15.64710918
_cell_angle_alpha   95.93070209
_cell_angle_beta   89.99987698
_cell_angle_gamma   89.99979108
_symmetry_Int_Tables_number   1
_chemical_formula_structural   HgH16C22(BrN2)2
_chemical_formula_sum   'Hg2 H32 C44 Br4 N8'
_cell_volume   1055.38452540
_cell_formula_units_Z   2
loop_
 _symmetry_equiv_pos_site_id
 _symmetry_equiv_pos_as_xyz
  1  'x, y, z'
loop_
 _atom_site_type_symbol
 _atom_site_label
 _atom_site_symmetry_multiplicity
 _atom_site_fract_x
 _atom_site_fract_y
 _atom_site_fract_z
 _atom_site_occupancy
 _atom_site_hle17_bader_spin_density
 _atom_site_hle17_ddec_charge
 _atom_site_hle17_ddec_spin_density
 _atom_site_hle17_ddec_sum_bond_order
 _atom_site_hle17_magmom
 _atom_site_hse06_10hf_bader_spin_density
 _atom_site_hse06_10hf_ddec_charge
 _atom_site_hse06_10hf_ddec_spin_density
 _atom_site_hse06_10hf_ddec_sum_bond_order
 _atom_site_hse06_10hf_magmom
 _atom_site_hse06_bader_spin_density
 _atom_site_hse06_ddec_charge
 _atom_site_hse06_ddec_spin_density
 _atom_site_hse06_ddec_sum_bond_order
 _atom_site_hse06_magmom
 _atom_site_pbe_bader_spin_density
 _atom_site_pbe_cm5_charge
 _atom_site_pbe_ddec_charge
 _atom_site_pbe_ddec_spin_density
 _atom_site_pbe_ddec_sum_bond_order
 _atom_site_pbe_magmom
Hg  Hg0  1  0.53185511  0.00000143  0.25000415  1  0  0.672769  0  2.090367  0  0  0.510519  0  2.592051  0  0  0.558964  0  2.562698  0  0  0.471986  0.47785  0  2.611331  0
Hg  Hg1  1  0.46814516  0.99999727  0.74999894  1  0  0.672722  0  2.090339  0  0  0.510473  0  2.592019  0  0  0.558922  0  2.562667  0  0  0.471972  0.477811  0  2.611279  0
H  H2  1  0.76522157  0.03643218  0.43980146  1  0  0.069894  0  0.979222  0  0  0.073846  0  1.054593  0  0  0.076619  0  1.051862  0  0  0.094608  0.07181  0  1.056615  0
H  H3  1  0.76521046  0.96356777  0.06019760  1  0  0.070001  0  0.979055  0  0  0.073919  0  1.054455  0  0  0.07671  0  1.051676  0  0  0.094679  0.071881  0  1.056481  0
H  H4  1  0.23478460  0.96356651  0.56019908  1  0  0.069903  0  0.979183  0  0  0.073851  0  1.054554  0  0  0.076637  0  1.051789  0  0  0.094609  0.071816  0  1.056575  0
H  H5  1  0.23478784  0.03643317  0.93979993  1  0  0.069897  0  0.979183  0  0  0.073843  0  1.054556  0  0  0.076624  0  1.051804  0  0  0.094603  0.071808  0  1.056577  0
H  H6  1  0.09503775  0.13676350  0.53158930  1  0  0.103607  0  0.972793  0  0  0.108997  0  1.044291  0  0  0.112774  0  1.042073  0  0  0.093629  0.106271  0  1.046058  0
H  H7  1  0.09503278  0.86323713  0.96840989  1  0  0.103596  0  0.972826  0  0  0.108985  0  1.04432  0  0  0.112762  0  1.042103  0  0  0.093612  0.106258  0  1.046087  0
H  H8  1  0.90496842  0.86323593  0.46840874  1  0  0.103579  0  0.972806  0  0  0.108964  0  1.044314  0  0  0.11274  0  1.042096  0  0  0.093611  0.106237  0  1.046081  0
H  H9  1  0.90496945  0.13676230  0.03158879  1  0  0.103649  0  0.972782  0  0  0.109005  0  1.044327  0  0  0.11278  0  1.042113  0  0  0.09364  0.106278  0  1.046094  0
H  H10  1  0.25819269  0.30408795  0.31565418  1  0  0.113335  0  0.934944  0  0  0.123577  0  0.99399  0  0  0.127649  0  0.991774  0  0  0.109926  0.120667  0  0.995702  0
H  H11  1  0.25818925  0.69591124  0.18434389  1  0  0.113362  0  0.934904  0  0  0.123601  0  0.993959  0  0  0.127661  0  0.991757  0  0  0.109951  0.120691  0  0.995672  0
H  H12  1  0.74179970  0.69591299  0.68434208  1  0  0.113345  0  0.934991  0  0  0.12358  0  0.994048  0  0  0.127644  0  0.991843  0  0  0.109935  0.120672  0  0.995758  0
H  H13  1  0.74180117  0.30408593  0.81565396  1  0  0.11339  0  0.934983  0  0  0.123645  0  0.994002  0  0  0.127706  0  0.991799  0  0  0.109959  0.120737  0  0.995712  0
H  H14  1  0.91585521  0.19764020  0.23275117  1  0  0.069684  0  0.956935  0  0  0.074421  0  1.028476  0  0  0.077446  0  1.025242  0  0  0.100736  0.072236  0  1.03081  0
H  H15  1  0.91586201  0.80235954  0.26724904  1  0  0.069705  0  0.956883  0  0  0.074459  0  1.028396  0  0  0.077483  0  1.025162  0  0  0.100745  0.072274  0  1.03073  0
H  H16  1  0.08412340  0.80236000  0.76724949  1  0  0.069659  0  0.956795  0  0  0.074414  0  1.028305  0  0  0.077435  0  1.025078  0  0  0.100744  0.07223  0  1.030639  0
H  H17  1  0.08413235  0.19763839  0.73274888  1  0  0.069644  0  0.956854  0  0  0.074408  0  1.028337  0  0  0.07743  0  1.025108  0  0  0.100749  0.072225  0  1.030671  0
H  H18  1  0.37763280  0.27637299  0.55419390  1  0  0.051303  0  0.968239  0  0  0.060545  0  1.038203  0  0  0.063923  0  1.034255  0  0  0.097397  0.058035  0  1.041171  0
H  H19  1  0.37763721  0.72362873  0.94580583  1  0  0.051283  0  0.968248  0  0  0.060507  0  1.038231  0  0  0.063887  0  1.034282  0  0  0.097388  0.05802  0  1.041176  0
H  H20  1  0.62236550  0.72362719  0.44580421  1  0  0.051381  0  0.968334  0  0  0.060583  0  1.038302  0  0  0.063962  0  1.034354  0  0  0.097429  0.058092  0  1.041251  0
H  H21  1  0.62236503  0.27636844  0.05419266  1  0  0.051292  0  0.968269  0  0  0.060522  0  1.038264  0  0  0.063901  0  1.034317  0  0  0.097389  0.058033  0  1.041211  0
H  H22  1  0.70800530  0.31142778  0.61974664  1  0  0.092749  0  0.987862  0  0  0.102656  0  1.052676  0  0  0.105761  0  1.050845  0  0  0.090023  0.100417  0  1.054065  0
H  H23  1  0.70800260  0.68857120  0.88025326  1  0  0.092743  0  0.987839  0  0  0.10262  0  1.052681  0  0  0.105727  0  1.050851  0  0  0.090018  0.100381  0  1.054074  0
H  H24  1  0.29199694  0.68857090  0.38025134  1  0  0.092742  0  0.987852  0  0  0.102653  0  1.052664  0  0  0.105759  0  1.050833  0  0  0.090014  0.100413  0  1.054056  0
H  H25  1  0.29199963  0.31142974  0.11974811  1  0  0.092747  0  0.987859  0  0  0.102669  0  1.052651  0  0  0.105775  0  1.050821  0  0  0.090016  0.100429  0  1.054044  0
H  H26  1  0.04277252  0.40748144  0.70769128  1  0  0.085118  0  0.95911  0  0  0.09936  0  1.014613  0  0  0.101251  0  1.015094  0  0  0.098162  0.098015  0  1.014302  0
H  H27  1  0.04276741  0.59251551  0.79230827  1  0  0.085114  0  0.958997  0  0  0.099345  0  1.014528  0  0  0.101235  0  1.015009  0  0  0.098142  0.097999  0  1.014218  0
H  H28  1  0.95722774  0.59251499  0.29230778  1  0  0.085088  0  0.959058  0  0  0.099326  0  1.014586  0  0  0.101215  0  1.015069  0  0  0.098151  0.09798  0  1.014274  0
H  H29  1  0.95722695  0.40748167  0.20769086  1  0  0.085141  0  0.959054  0  0  0.099376  0  1.014567  0  0  0.101266  0  1.015049  0  0  0.09817  0.098031  0  1.014255  0
H  H30  1  0.29792064  0.54412510  0.64789445  1  0  0.096287  0  0.959259  0  0  0.102368  0  1.027042  0  0  0.106329  0  1.024394  0  0  0.100633  0.099565  0  1.02892  0
H  H31  1  0.29792039  0.45587223  0.85210559  1  0  0.096301  0  0.959225  0  0  0.102383  0  1.027011  0  0  0.106347  0  1.024358  0  0  0.10062  0.09958  0  1.02889  0
H  H32  1  0.70208356  0.45587434  0.35210743  1  0  0.096284  0  0.959284  0  0  0.102357  0  1.027079  0  0  0.106318  0  1.02443  0  0  0.100608  0.099554  0  1.028958  0
H  H33  1  0.70207396  0.54412345  0.14789340  1  0  0.096302  0  0.959242  0  0  0.1024  0  1.027007  0  0  0.10636  0  1.024359  0  0  0.100621  0.099597  0  1.028887  0
C  C34  1  0.87954766  0.09622157  0.41483089  1  0  0.123583  0  3.730143  0  0  0.093101  0  3.980856  0  0  0.100283  0  3.999848  0  0  0.034079  0.08846  0  3.967849  0
C  C35  1  0.87954089  0.90377822  0.08516935  1  0  0.12356  0  3.729919  0  0  0.093124  0  3.980654  0  0  0.100309  0  3.999656  0  0  0.034056  0.088483  0  3.967644  0
C  C36  1  0.12045655  0.90377561  0.58516887  1  0  0.123612  0  3.730024  0  0  0.093149  0  3.980726  0  0  0.100336  0  3.999721  0  0  0.03407  0.088509  0  3.96772  0
C  C37  1  0.12045937  0.09622197  0.91482940  1  0  0.123608  0  3.730105  0  0  0.093141  0  3.980795  0  0  0.100325  0  3.999792  0  0  0.034097  0.0885  0  3.967787  0
C  C38  1  0.06194842  0.15240121  0.46543997  1  0  -0.144401  0  3.693423  0  0  -0.162428  0  3.939161  0  0  -0.170053  0  3.96056  0  0  -0.084095  -0.157477  0  3.924763  0
C  C39  1  0.06194648  0.84760128  0.03455980  1  0  -0.144439  0  3.693327  0  0  -0.162448  0  3.939038  0  0  -0.170074  0  3.960435  0  0  -0.08407  -0.157499  0  3.924645  0
C  C40  1  0.93805775  0.84759898  0.53455878  1  0  -0.144399  0  3.69342  0  0  -0.162416  0  3.939154  0  0  -0.170044  0  3.960559  0  0  -0.084084  -0.157466  0  3.924758  0
C  C41  1  0.93805379  0.15239966  0.96543901  1  0  -0.144531  0  3.693391  0  0  -0.162526  0  3.939127  0  0  -0.170149  0  3.960522  0  0  -0.084122  -0.157576  0  3.924734  0
C  C42  1  0.20480877  0.22826753  0.43044823  1  0  0.092468  0  3.775455  0  0  0.106724  0  4.008438  0  0  0.109967  0  4.0295  0  0  0.007218  0.10472  0  3.994017  0
C  C43  1  0.20481323  0.77173474  0.06955078  1  0  0.092504  0  3.775403  0  0  0.106757  0  4.008378  0  0  0.110004  0  4.029438  0  0  0.007244  0.10475  0  3.993968  0
C  C44  1  0.79518756  0.77173340  0.56954930  1  0  0.092493  0  3.775422  0  0  0.106729  0  4.008404  0  0  0.109974  0  4.029463  0  0  0.007213  0.104722  0  3.993992  0
C  C45  1  0.79518506  0.22826469  0.93044790  1  0  0.092545  0  3.775429  0  0  0.106789  0  4.008442  0  0  0.110034  0  4.029501  0  0  0.007238  0.104782  0  3.994032  0
C  C46  1  0.15287058  0.24534229  0.34499516  1  0  -0.132701  0  3.68501  0  0  -0.15429  0  3.935955  0  0  -0.160497  0  3.955151  0  0  -0.07657  -0.150251  0  3.92311  0
C  C47  1  0.15287268  0.75466006  0.15500390  1  0  -0.13267  0  3.684978  0  0  -0.154253  0  3.935925  0  0  -0.160452  0  3.955129  0  0  -0.076543  -0.150213  0  3.923079  0
C  C48  1  0.84711984  0.75466015  0.65500314  1  0  -0.132644  0  3.684986  0  0  -0.154211  0  3.935933  0  0  -0.16041  0  3.955132  0  0  -0.07651  -0.150172  0  3.923089  0
C  C49  1  0.84711971  0.24533862  0.84499408  1  0  -0.132763  0  3.685031  0  0  -0.154368  0  3.936023  0  0  -0.160564  0  3.955223  0  0  -0.076552  -0.15033  0  3.923181  0
C  C50  1  0.96405752  0.18679811  0.29911726  1  0  0.110422  0  3.748205  0  0  0.08046  0  4.004341  0  0  0.087533  0  4.022171  0  0  0.034579  0.075817  0  3.992208  0
C  C51  1  0.96405678  0.81320230  0.20088298  1  0  0.110386  0  3.748169  0  0  0.080434  0  4.004323  0  0  0.087507  0  4.02215  0  0  0.034585  0.07579  0  3.99219  0
C  C52  1  0.03593290  0.81320208  0.70088340  1  0  0.110413  0  3.748044  0  0  0.080451  0  4.004202  0  0  0.087524  0  4.022028  0  0  0.034562  0.075807  0  3.992071  0
C  C53  1  0.03593758  0.18679562  0.79911366  1  0  0.110445  0  3.748084  0  0  0.080486  0  4.004219  0  0  0.087559  0  4.022046  0  0  0.034534  0.075841  0  3.992088  0
C  C54  1  0.39449872  0.28644529  0.48543593  1  0  0.12491  0  3.686973  0  0  0.094603  0  3.943925  0  0  0.102398  0  3.95571  0  0  0.0756  0.089421  0  3.935827  0
C  C55  1  0.39449624  0.71355596  0.01456350  1  0  0.124905  0  3.686945  0  0  0.094606  0  3.943916  0  0  0.102397  0  3.955701  0  0  0.075582  0.089408  0  3.93581  0
C  C56  1  0.60550351  0.71355565  0.51456161  1  0  0.124756  0  3.687059  0  0  0.094505  0  3.943982  0  0  0.102298  0  3.955768  0  0  0.075545  0.08931  0  3.935879  0
C  C57  1  0.60550009  0.28644197  0.98543505  1  0  0.125028  0  3.686855  0  0  0.094678  0  3.943905  0  0  0.102471  0  3.955693  0  0  0.075605  0.089482  0  3.935802  0
C  C58  1  0.75260771  0.39555894  0.50994845  1  0  0.167728  0  3.785945  0  0  0.166941  0  4.035363  0  0  0.169839  0  4.059718  0  0  0.092854  0.165023  0  4.018789  0
C  C59  1  0.75261101  0.60444072  0.99005148  1  0  0.167764  0  3.786041  0  0  0.16698  0  4.03544  0  0  0.169878  0  4.059795  0  0  0.092848  0.165061  0  4.018867  0
C  C60  1  0.24739256  0.60444049  0.49005023  1  0  0.167702  0  3.786074  0  0  0.166932  0  4.035474  0  0  0.169831  0  4.059829  0  0  0.092816  0.165015  0  4.018901  0
C  C61  1  0.24738728  0.39555721  0.00994835  1  0  0.167589  0  3.786057  0  0  0.166831  0  4.035471  0  0  0.169726  0  4.059829  0  0  0.092774  0.164914  0  4.018894  0
C  C62  1  0.80963874  0.37301053  0.59300658  1  0  -0.145379  0  3.732837  0  0  -0.163327  0  3.977777  0  0  -0.16832  0  4.001174  0  0  -0.093103  -0.159878  0  3.961805  0
C  C63  1  0.80963844  0.62698906  0.90699458  1  0  -0.145353  0  3.732932  0  0  -0.163274  0  3.977873  0  0  -0.168268  0  4.00127  0  0  -0.093078  -0.159822  0  3.961894  0
C  C64  1  0.19036350  0.62698891  0.40699402  1  0  -0.145328  0  3.732851  0  0  -0.163281  0  3.977782  0  0  -0.168274  0  4.001177  0  0  -0.093041  -0.159829  0  3.961803  0
C  C65  1  0.19036183  0.37301038  0.09300602  1  0  -0.145264  0  3.732749  0  0  -0.163217  0  3.977678  0  0  -0.168209  0  4.001076  0  0  -0.093068  -0.159765  0  3.961699  0
C  C66  1  0.00375928  0.42665109  0.64272757  1  0  -0.072106  0  3.810602  0  0  -0.08198  0  4.058908  0  0  -0.084889  0  4.083439  0  0  -0.096036  -0.079836  0  4.042033  0
C  C67  1  0.00375983  0.57334667  0.85727335  1  0  -0.072097  0  3.810525  0  0  -0.08196  0  4.058818  0  0  -0.084869  0  4.083353  0  0  -0.096012  -0.079816  0  4.041946  0
C  C68  1  0.99624295  0.57334684  0.35727226  1  0  -0.072075  0  3.810449  0  0  -0.081942  0  4.058762  0  0  -0.084851  0  4.083294  0  0  -0.096036  -0.079798  0  4.041889  0
C  C69  1  0.99623650  0.42664976  0.14272699  1  0  -0.07217  0  3.81045  0  0  -0.08204  0  4.058777  0  0  -0.084948  0  4.083307  0  0  -0.096049  -0.079896  0  4.041906  0
C  C70  1  0.14586929  0.50250923  0.61022122  1  0  -0.094777  0  3.747552  0  0  -0.121349  0  4.006397  0  0  -0.124629  0  4.028752  0  0  -0.088739  -0.118985  0  3.991093  0
C  C71  1  0.14586642  0.49748907  0.88977837  1  0  -0.094804  0  3.747571  0  0  -0.121353  0  4.006404  0  0  -0.124636  0  4.028763  0  0  -0.088737  -0.11899  0  3.991101  0
C  C72  1  0.85413689  0.49748946  0.38977931  1  0  -0.09475  0  3.747597  0  0  -0.121322  0  4.006433  0  0  -0.124602  0  4.028788  0  0  -0.08873  -0.118959  0  3.991131  0
C  C73  1  0.85412597  0.50250810  0.11022076  1  0  -0.094776  0  3.747568  0  0  -0.121359  0  4.006403  0  0  -0.124639  0  4.028759  0  0  -0.088741  -0.118996  0  3.991102  0
C  C74  1  0.90061994  0.47309113  0.47432279  1  0  0.004084  0  3.724681  0  0  0.017073  0  3.949413  0  0  0.01561  0  3.974349  0  0  -0.000481  0.018021  0  3.932549  0
C  C75  1  0.90061329  0.52690712  0.02567794  1  0  0.004027  0  3.724649  0  0  0.017017  0  3.949406  0  0  0.015552  0  3.974341  0  0  -0.00053  0.017965  0  3.932542  0
C  C76  1  0.09938624  0.52690831  0.52567780  1  0  0.004087  0  3.724708  0  0  0.01706  0  3.949448  0  0  0.015596  0  3.974383  0  0  -0.00054  0.018008  0  3.932584  0
C  C77  1  0.09938304  0.47309006  0.97432183  1  0  0.004133  0  3.724625  0  0  0.017065  0  3.94942  0  0  0.015602  0  3.974357  0  0  -0.000529  0.018013  0  3.932555  0
Br  Br78  1  0.39932969  0.10579357  0.13048730  1  0  -0.435987  0  1.052733  0  0  -0.376412  0  1.366034  0  0  -0.395735  0  1.347374  0  0  -0.209784  -0.363077  0  1.378764  0
Br  Br79  1  0.39925811  0.89425443  0.36954682  1  0  -0.435988  0  1.052727  0  0  -0.376415  0  1.366014  0  0  -0.395733  0  1.347355  0  0  -0.209784  -0.363081  0  1.378744  0
Br  Br80  1  0.60073951  0.89426167  0.86955069  1  0  -0.435989  0  1.052694  0  0  -0.376426  0  1.36599  0  0  -0.39575  0  1.34733  0  0  -0.209797  -0.363093  0  1.378718  0
Br  Br81  1  0.60073822  0.10573521  0.63044846  1  0  -0.435976  0  1.052678  0  0  -0.376417  0  1.365981  0  0  -0.395737  0  1.347324  0  0  -0.209784  -0.363083  0  1.378705  0
N  N82  1  0.83178848  0.11306333  0.33316297  1  0  -0.298359  0  3.275625  0  0  -0.218315  0  3.53814  0  0  -0.239326  0  3.560707  0  0  -0.315652  -0.203989  0  3.52241  0
N  N83  1  0.83178134  0.88693728  0.16683737  1  0  -0.298399  0  3.275567  0  0  -0.2184  0  3.538121  0  0  -0.239417  0  3.560696  0  0  -0.315679  -0.204074  0  3.522392  0
N  N84  1  0.16820982  0.88693611  0.66683763  1  0  -0.298322  0  3.275477  0  0  -0.218323  0  3.538045  0  0  -0.239336  0  3.560614  0  0  -0.315618  -0.203998  0  3.522317  0
N  N85  1  0.16821499  0.11306215  0.83316131  1  0  -0.298304  0  3.275517  0  0  -0.218281  0  3.538044  0  0  -0.239294  0  3.560612  0  0  -0.315607  -0.203956  0  3.522315  0
N  N86  1  0.56696676  0.34420272  0.45561372  1  0  -0.317906  0  3.103703  0  0  -0.281872  0  3.374843  0  0  -0.293466  0  3.391622  0  0  -0.300991  -0.273953  0  3.363353  0
N  N87  1  0.56697251  0.65579827  0.04438685  1  0  -0.317912  0  3.103567  0  0  -0.281882  0  3.37471  0  0  -0.293473  0  3.391486  0  0  -0.300986  -0.273965  0  3.363227  0
N  N88  1  0.43303154  0.65579822  0.54438573  1  0  -0.317885  0  3.103534  0  0  -0.281869  0  3.374656  0  0  -0.293462  0  3.391434  0  0  -0.300981  -0.273953  0  3.363173  0
N  N89  1  0.43302578  0.34419966  0.95561235  1  0  -0.317914  0  3.103528  0  0  -0.281857  0  3.374685  0  0  -0.29345  0  3.391465  0  0  -0.300914  -0.27394  0  3.3632  0
