# generated using pymatgen
data_CdH12C12N3O5
_symmetry_space_group_name_H-M   'P 1'
_cell_length_a   9.57025780
_cell_length_b   9.96896986
_cell_length_c   9.84879000
_cell_angle_alpha   81.76470117
_cell_angle_beta   79.74808474
_cell_angle_gamma   65.93644770
_symmetry_Int_Tables_number   1
_chemical_formula_structural   CdH12C12N3O5
_chemical_formula_sum   'Cd2 H24 C24 N6 O10'
_cell_volume   841.65706199
_cell_formula_units_Z   2
loop_
 _symmetry_equiv_pos_site_id
 _symmetry_equiv_pos_as_xyz
  1  'x, y, z'
loop_
 _atom_site_type_symbol
 _atom_site_label
 _atom_site_symmetry_multiplicity
 _atom_site_fract_x
 _atom_site_fract_y
 _atom_site_fract_z
 _atom_site_occupancy
 _atom_site_pbe_bader_charge
 _atom_site_pbe_bader_spin_density
 _atom_site_pbe_cm5_charge
 _atom_site_pbe_ddec_charge
 _atom_site_pbe_ddec_spin_density
 _atom_site_pbe_ddec_sum_bond_order
 _atom_site_pbe_magmom
Cd  Cd0  1  0.95744799  0.72165274  0.55447430  1  1.298819  0  0.773869  0.978796  0  2.115787  0
Cd  Cd1  1  0.04254977  0.27834789  0.44552483  1  1.298796  0  0.773865  0.97881  0  2.115825  0
H  H2  1  0.18359634  0.99985131  0.78732223  1  0.076519  0  0.102074  0.094485  0  1.024469  0
H  H3  1  0.82137790  0.87383489  0.00898808  1  0.111431  0  0.109034  0.11843  0  0.985552  0
H  H4  1  0.49638721  0.66701473  0.66676472  1  0.084083  0  0.101294  0.104949  0  1.007219  0
H  H5  1  0.72215825  0.41607603  0.31411603  1  0.092187  0  0.100305  0.101557  0  1.029852  0
H  H6  1  0.44976389  0.43556604  0.89345254  1  0.068674  0  0.095528  0.095452  0  1.01707  0
H  H7  1  0.42585392  0.39262043  0.07330782  1  0.045508  0  0.097961  0.097613  0  0.970506  0
H  H8  1  0.18570541  0.58278926  0.98040896  1  0.067952  0  0.121348  0.106026  0  0.955156  0
H  H9  1  0.28272840  0.70403522  0.93037616  1  0.076141  0  0.114425  0.097817  0  0.988781  0
H  H10  1  0.24013799  0.84547815  0.37629417  1  0.190252  0  0.134528  0.116496  0  1.005242  0
H  H11  1  0.04998154  0.58746820  0.23209264  1  0.19997  0  0.146176  0.134223  0  0.990705  0
H  H12  1  0.69429828  0.96936744  0.46224983  1  0.606438  0  0.316395  0.395692  0  0.888318  0
H  H13  1  0.82924321  0.03080083  0.42645449  1  0.65484  0  0.283783  0.384612  0  0.96384  0
H  H14  1  0.81639990  0.00015040  0.21267703  1  0.076533  0  0.102038  0.094421  0  1.024501  0
H  H15  1  0.17862102  0.12616809  0.99100757  1  0.111399  0  0.109036  0.118436  0  0.985597  0
H  H16  1  0.50361512  0.33298254  0.33323606  1  0.083979  0  0.101309  0.104988  0  1.007247  0
H  H17  1  0.27784745  0.58391583  0.68588274  1  0.092109  0  0.100317  0.101528  0  1.029914  0
H  H18  1  0.55023659  0.56443564  0.10654808  1  0.06856  0  0.095537  0.095468  0  1.017053  0
H  H19  1  0.57414900  0.60737795  0.92669275  1  0.04551  0  0.097954  0.097612  0  0.970559  0
H  H20  1  0.81429588  0.41720783  0.01959607  1  0.068003  0  0.121367  0.106089  0  0.95509  0
H  H21  1  0.71726621  0.29596515  0.06962859  1  0.076062  0  0.114405  0.097807  0  0.988797  0
H  H22  1  0.75985873  0.15452229  0.62370922  1  0.18973  0  0.134548  0.116463  0  1.005258  0
H  H23  1  0.95001777  0.41253107  0.76791248  1  0.199974  0  0.146169  0.134177  0  0.990708  0
H  H24  1  0.30570495  0.03062788  0.53774490  1  0.60648  0  0.316362  0.395687  0  0.888279  0
H  H25  1  0.17075725  0.96920093  0.57354408  1  0.65478  0  0.283772  0.384615  0  0.963845  0
C  C26  1  0.00468759  0.85080148  0.76602878  1  1.52635  0  0.19647  0.555071  0  4.230516  0
C  C27  1  0.00303327  0.92810461  0.88624641  1  -0.033491  0  -0.01538  -0.033941  0  3.983576  0
C  C28  1  0.10314006  0.00014716  0.88068782  1  -0.041691  0  -0.087281  -0.101295  0  3.991405  0
C  C29  1  0.89967025  0.92875025  0.00665147  1  -0.046236  0  -0.081206  -0.093098  0  3.97028  0
C  C30  1  0.75380199  0.59243330  0.47986470  1  1.539688  0  0.19778  0.570756  0  4.233839  0
C  C31  1  0.62095330  0.54733102  0.48840786  1  -0.006871  0  -0.019225  -0.033687  0  3.974172  0
C  C32  1  0.49637926  0.59414136  0.59413629  1  -0.015164  0  -0.086337  -0.092068  0  3.965869  0
C  C33  1  0.62357746  0.45306852  0.39438133  1  -0.080374  0  -0.086482  -0.095428  0  3.983184  0
C  C34  1  0.43217907  0.48041035  0.99371735  1  -0.0452  0  -0.162986  -0.17116  0  3.941722  0
C  C35  1  0.27731490  0.61188263  0.00382244  1  0.306507  0  -0.043642  -0.086995  0  3.883672  0
C  C36  1  0.21781142  0.77933102  0.31098552  1  0.956208  0  0.14566  0.144866  0  3.978449  0
C  C37  1  0.11903433  0.64890043  0.23963647  1  0.980572  0  0.162529  0.078259  0  3.904462  0
C  C38  1  0.99531756  0.14919923  0.23396915  1  1.526505  0  0.196532  0.555208  0  4.230411  0
C  C39  1  0.99696508  0.07189705  0.11375455  1  -0.033223  0  -0.015385  -0.034013  0  3.983578  0
C  C40  1  0.89686052  0.99985685  0.11930948  1  -0.041789  0  -0.08725  -0.101227  0  3.991455  0
C  C41  1  0.10033173  0.07125047  0.99334596  1  -0.046301  0  -0.08121  -0.093089  0  3.970243  0
C  C42  1  0.24619284  0.40757189  0.52013036  1  1.539863  0  0.197709  0.570597  0  4.233957  0
C  C43  1  0.37904868  0.45266969  0.51158956  1  -0.006932  0  -0.019238  -0.03369  0  3.97405  0
C  C44  1  0.50362245  0.40585505  0.40585858  1  -0.014582  0  -0.08634  -0.09208  0  3.965945  0
C  C45  1  0.37642109  0.54692773  0.60561711  1  -0.07986  0  -0.086479  -0.095298  0  3.983126  0
C  C46  1  0.56781989  0.51959237  0.00628441  1  -0.020233  0  -0.162956  -0.17118  0  3.941641  0
C  C47  1  0.72268487  0.38811555  0.99618272  1  0.306486  0  -0.043635  -0.08705  0  3.883617  0
C  C48  1  0.78218694  0.22067055  0.68901748  1  0.956806  0  0.145585  0.144808  0  3.978376  0
C  C49  1  0.88096392  0.35109883  0.76036882  1  0.980901  0  0.162495  0.078273  0  3.904516  0
N  N50  1  0.22693449  0.66810922  0.14062807  1  -0.824165  0  -0.132297  0.170044  0  3.733709  0
N  N51  1  0.29127441  0.75123267  0.18425841  1  -0.671881  0  -0.220702  -0.260905  0  3.088246  0
N  N52  1  0.11026870  0.71855193  0.34921076  1  -1.234474  0  -0.354688  -0.347276  0  3.544068  0
N  N53  1  0.77306588  0.33189002  0.85937790  1  -0.824177  0  -0.132281  0.170047  0  3.733729  0
N  N54  1  0.70872535  0.24876560  0.81574471  1  -0.671941  0  -0.220678  -0.260842  0  3.088082  0
N  N55  1  0.88973012  0.28144858  0.65079126  1  -1.234772  0  -0.354667  -0.34726  0  3.544021  0
O  O56  1  0.08431557  0.86516700  0.65010625  1  -1.192582  0  -0.321669  -0.56786  0  2.242547  0
O  O57  1  0.92590764  0.77146701  0.78267383  1  -1.118529  0  -0.332368  -0.541891  0  2.153054  0
O  O58  1  0.73660515  0.69079389  0.55895952  1  -1.144342  0  -0.334854  -0.554634  0  2.231325  0
O  O59  1  0.87675501  0.53102290  0.39801063  1  -1.197137  0  -0.341694  -0.606052  0  2.274481  0
O  O60  1  0.78212558  0.97175758  0.49680140  1  -1.242847  0  -0.578361  -0.758877  0  2.06079  0
O  O61  1  0.91569203  0.13483045  0.34989061  1  -1.192656  0  -0.321731  -0.567961  0  2.24243  0
O  O62  1  0.07409143  0.22853801  0.21732564  1  -1.118617  0  -0.332378  -0.541914  0  2.153114  0
O  O63  1  0.26338579  0.30921824  0.44102731  1  -1.144271  0  -0.334756  -0.554552  0  2.2314  0
O  O64  1  0.12324593  0.46897763  0.60199105  1  -1.197413  0  -0.341702  -0.605977  0  2.274552  0
O  O65  1  0.21787092  0.02824844  0.50320042  1  -1.242865  0  -0.578304  -0.758882  0  2.06077  0
