# generated using pymatgen
data_AgH3C7S(NO)2
_symmetry_space_group_name_H-M   'P 1'
_cell_length_a   5.10423737
_cell_length_b   10.45237629
_cell_length_c   14.69767696
_cell_angle_alpha   89.99926130
_cell_angle_beta   90.00221613
_cell_angle_gamma   100.08611507
_symmetry_Int_Tables_number   1
_chemical_formula_structural   AgH3C7S(NO)2
_chemical_formula_sum   'Ag4 H12 C28 S4 N8 O8'
_cell_volume   772.02338084
_cell_formula_units_Z   4
loop_
 _symmetry_equiv_pos_site_id
 _symmetry_equiv_pos_as_xyz
  1  'x, y, z'
loop_
 _atom_site_type_symbol
 _atom_site_label
 _atom_site_symmetry_multiplicity
 _atom_site_fract_x
 _atom_site_fract_y
 _atom_site_fract_z
 _atom_site_occupancy
 _atom_site_hle17_bader_spin_density
 _atom_site_hle17_ddec_charge
 _atom_site_hle17_ddec_spin_density
 _atom_site_hle17_ddec_sum_bond_order
 _atom_site_hle17_magmom
 _atom_site_hse06_10hf_bader_spin_density
 _atom_site_hse06_10hf_ddec_charge
 _atom_site_hse06_10hf_ddec_spin_density
 _atom_site_hse06_10hf_ddec_sum_bond_order
 _atom_site_hse06_10hf_magmom
 _atom_site_hse06_bader_spin_density
 _atom_site_hse06_ddec_charge
 _atom_site_hse06_ddec_spin_density
 _atom_site_hse06_ddec_sum_bond_order
 _atom_site_hse06_magmom
 _atom_site_pbe_bader_spin_density
 _atom_site_pbe_cm5_charge
 _atom_site_pbe_ddec_charge
 _atom_site_pbe_ddec_spin_density
 _atom_site_pbe_ddec_sum_bond_order
 _atom_site_pbe_magmom
Ag  Ag0  1  0.76939859  0.43732214  0.44042877  1  0  0.533181  0  1.45489  0  0  0.390499  0  1.920263  0  0  0.418045  0  1.871963  0  0  0.462554  0.371535  0  1.953857  0
Ag  Ag1  1  0.23067184  0.06266941  0.94042767  1  0  0.533181  0  1.454501  0  0  0.390377  0  1.919852  0  0  0.417925  0  1.871553  0  0  0.462537  0.371402  0  1.953448  0
Ag  Ag2  1  0.23066246  0.56270828  0.55957365  1  0  0.53318  0  1.454697  0  0  0.390448  0  1.920121  0  0  0.418001  0  1.871821  0  0  0.462551  0.371478  0  1.953718  0
Ag  Ag3  1  0.76925637  0.93730482  0.05956794  1  0  0.533259  0  1.4545  0  0  0.390601  0  1.919813  0  0  0.418151  0  1.871513  0  0  0.462625  0.371628  0  1.953409  0
H  H4  1  0.80613810  0.95602954  0.27013805  1  0  0.132715  0  0.974522  0  0  0.138352  0  1.04224  0  0  0.142829  0  1.038279  0  0  0.107939  0.135  0  1.045304  0
H  H5  1  0.19388562  0.54395573  0.77011636  1  0  0.132647  0  0.974726  0  0  0.138444  0  1.042274  0  0  0.142904  0  1.038372  0  0  0.107957  0.135102  0  1.045308  0
H  H6  1  0.19389973  0.04396247  0.72985553  1  0  0.132764  0  0.974625  0  0  0.138448  0  1.042292  0  0  0.142928  0  1.038319  0  0  0.107997  0.135107  0  1.045327  0
H  H7  1  0.80609778  0.45602933  0.22987993  1  0  0.132695  0  0.97477  0  0  0.138433  0  1.042342  0  0  0.142897  0  1.038419  0  0  0.107992  0.13509  0  1.045375  0
H  H8  1  0.43646586  0.15971860  0.47887389  1  0  0.097883  0  0.963768  0  0  0.102558  0  1.036238  0  0  0.105668  0  1.033347  0  0  0.101689  0.100302  0  1.038362  0
H  H9  1  0.56363908  0.34029070  0.97886613  1  0  0.097917  0  0.963738  0  0  0.102499  0  1.03633  0  0  0.10561  0  1.033436  0  0  0.101683  0.100291  0  1.038408  0
H  H10  1  0.56368652  0.84033658  0.52110200  1  0  0.097979  0  0.963465  0  0  0.102527  0  1.036118  0  0  0.105638  0  1.033229  0  0  0.101646  0.100341  0  1.038151  0
H  H11  1  0.43624753  0.65966170  0.02112336  1  0  0.098079  0  0.963601  0  0  0.102533  0  1.036304  0  0  0.105641  0  1.033417  0  0  0.101639  0.100365  0  1.038327  0
H  H12  1  0.74649054  0.01022775  0.43433783  1  0  0.095536  0  0.940936  0  0  0.110519  0  0.992119  0  0  0.112995  0  0.992062  0  0  0.104621  0.108805  0  0.992365  0
H  H13  1  0.25359155  0.48979389  0.93432961  1  0  0.095495  0  0.941036  0  0  0.110556  0  0.992147  0  0  0.113026  0  0.992094  0  0  0.104638  0.108846  0  0.992392  0
H  H14  1  0.25359431  0.98982379  0.56565302  1  0  0.095605  0  0.940909  0  0  0.110603  0  0.99207  0  0  0.113076  0  0.992013  0  0  0.104616  0.10889  0  0.992317  0
H  H15  1  0.74632260  0.51015863  0.06566669  1  0  0.095573  0  0.940956  0  0  0.11068  0  0.992023  0  0  0.113157  0  0.991957  0  0  0.104721  0.108966  0  0.992272  0
C  C16  1  0.13388417  0.28586241  0.36276099  1  0  0.618084  0  3.981096  0  0  0.568673  0  4.269347  0  0  0.602238  0  4.267209  0  0  0.182813  0.545717  0  4.27004  0
C  C17  1  0.86611126  0.21413087  0.86275865  1  0  0.618205  0  3.981494  0  0  0.568766  0  4.269732  0  0  0.602332  0  4.267602  0  0  0.182957  0.545809  0  4.270423  0
C  C18  1  0.86614943  0.71415828  0.63724688  1  0  0.618138  0  3.981714  0  0  0.568722  0  4.269957  0  0  0.602286  0  4.26782  0  0  0.182965  0.545766  0  4.270651  0
C  C19  1  0.13384176  0.78585971  0.13725261  1  0  0.618325  0  3.981547  0  0  0.568853  0  4.269877  0  0  0.602417  0  4.267739  0  0  0.183029  0.545894  0  4.270569  0
C  C20  1  0.67395438  0.02203667  0.29133983  1  0  -0.109074  0  3.668587  0  0  -0.138522  0  3.933152  0  0  -0.137737  0  3.950678  0  0  -0.078581  -0.13822  0  3.921461  0
C  C21  1  0.32611421  0.47797205  0.79132867  1  0  -0.108633  0  3.66872  0  0  -0.138254  0  3.933477  0  0  -0.137457  0  3.950916  0  0  -0.078402  -0.137957  0  3.921813  0
C  C22  1  0.32609836  0.97797131  0.70865579  1  0  -0.108795  0  3.668151  0  0  -0.13832  0  3.932784  0  0  -0.137524  0  3.950281  0  0  -0.078452  -0.138019  0  3.921109  0
C  C23  1  0.67384475  0.52199859  0.20867103  1  0  -0.108691  0  3.668147  0  0  -0.138178  0  3.932861  0  0  -0.137386  0  3.950321  0  0  -0.078327  -0.137875  0  3.921188  0
C  C24  1  0.32275792  0.19511346  0.34276616  1  0  -0.08997  0  3.778731  0  0  -0.068625  0  4.011316  0  0  -0.078057  0  4.033935  0  0  -0.019479  -0.062271  0  3.996205  0
C  C25  1  0.67724933  0.30488649  0.84275668  1  0  -0.08997  0  3.77885  0  0  -0.068592  0  4.011308  0  0  -0.078026  0  4.033939  0  0  -0.019508  -0.062236  0  3.996208  0
C  C26  1  0.67728135  0.80491610  0.65723081  1  0  -0.089516  0  3.777892  0  0  -0.068247  0  4.01042  0  0  -0.077674  0  4.033042  0  0  -0.019473  -0.061897  0  3.995326  0
C  C27  1  0.32272001  0.69509705  0.15724370  1  0  -0.089834  0  3.778581  0  0  -0.068435  0  4.010937  0  0  -0.077847  0  4.033567  0  0  -0.019467  -0.062093  0  3.995842  0
C  C28  1  0.36140088  0.16577325  0.25121829  1  0  -0.041343  0  3.771576  0  0  -0.037339  0  4.020006  0  0  -0.0355  0  4.041779  0  0  0.006494  -0.038598  0  4.006108  0
C  C29  1  0.63864029  0.33422853  0.75121167  1  0  -0.04178  0  3.772195  0  0  -0.037675  0  4.020528  0  0  -0.035849  0  4.042313  0  0  0.006373  -0.038932  0  4.006629  0
C  C30  1  0.63862658  0.83422605  0.74878957  1  0  -0.041926  0  3.771718  0  0  -0.037702  0  4.019904  0  0  -0.035867  0  4.041678  0  0  0.006423  -0.038963  0  4.006011  0
C  C31  1  0.36138641  0.66576689  0.24879007  1  0  -0.041924  0  3.772264  0  0  -0.0377  0  4.020454  0  0  -0.035919  0  4.04229  0  0  0.006323  -0.038927  0  4.006512  0
C  C32  1  0.53330998  0.08026709  0.22542565  1  0  0.15189  0  3.805002  0  0  0.147578  0  4.057975  0  0  0.146482  0  4.081986  0  0  0.094722  0.147705  0  4.042213  0
C  C33  1  0.46675371  0.41974740  0.72541657  1  0  0.151818  0  3.80499  0  0  0.147375  0  4.058045  0  0  0.146295  0  4.082049  0  0  0.094766  0.1475  0  4.042285  0
C  C34  1  0.46670964  0.91972228  0.77456929  1  0  0.151884  0  3.805092  0  0  0.147451  0  4.057992  0  0  0.146354  0  4.082008  0  0  0.094594  0.14758  0  4.04223  0
C  C35  1  0.53326149  0.58024949  0.27458789  1  0  0.152098  0  3.80493  0  0  0.147553  0  4.057993  0  0  0.146486  0  4.082005  0  0  0.094764  0.147669  0  4.042226  0
C  C36  1  0.46289548  0.13700328  0.40749169  1  0  -0.043837  0  3.690153  0  0  -0.071217  0  3.946158  0  0  -0.067137  0  3.962205  0  0  -0.074936  -0.074084  0  3.935614  0
C  C37  1  0.53713978  0.36301485  0.90748971  1  0  -0.043848  0  3.690071  0  0  -0.07115  0  3.946115  0  0  -0.067075  0  3.962167  0  0  -0.074951  -0.074054  0  3.93554  0
C  C38  1  0.53717247  0.86303222  0.59249440  1  0  -0.044017  0  3.689971  0  0  -0.071291  0  3.946011  0  0  -0.067222  0  3.962064  0  0  -0.074884  -0.074196  0  3.935435  0
C  C39  1  0.46274673  0.63694715  0.09250114  1  0  -0.044124  0  3.690086  0  0  -0.071376  0  3.946212  0  0  -0.0673  0  3.962257  0  0  -0.074893  -0.074306  0  3.935629  0
C  C40  1  0.63669208  0.05209371  0.38183044  1  0  -0.053495  0  3.73274  0  0  -0.069338  0  3.991293  0  0  -0.074272  0  4.013214  0  0  -0.086218  -0.066526  0  3.976919  0
C  C41  1  0.36338740  0.44793800  0.88181904  1  0  -0.053552  0  3.7333  0  0  -0.069467  0  3.991903  0  0  -0.0744  0  4.013849  0  0  -0.086295  -0.06666  0  3.977545  0
C  C42  1  0.36339218  0.94793475  0.61815225  1  0  -0.053725  0  3.73303  0  0  -0.069583  0  3.991585  0  0  -0.074522  0  4.013532  0  0  -0.086282  -0.066782  0  3.977232  0
C  C43  1  0.63647627  0.55200772  0.11816977  1  0  -0.053682  0  3.732942  0  0  -0.069664  0  3.991573  0  0  -0.074597  0  4.013511  0  0  -0.086529  -0.06686  0  3.977227  0
S  S44  1  0.22150167  0.21949267  0.15671878  1  0  0.310271  0  2.625994  0  0  0.298763  0  2.964368  0  0  0.304938  0  2.965319  0  0  0.248604  0.293428  0  2.965229  0
S  S45  1  0.77847056  0.28049814  0.65669627  1  0  0.310374  0  2.625769  0  0  0.298871  0  2.964134  0  0  0.305041  0  2.965082  0  0  0.248717  0.293532  0  2.965005  0
S  S46  1  0.77847361  0.78049110  0.84330201  1  0  0.310397  0  2.625865  0  0  0.298859  0  2.964193  0  0  0.30504  0  2.965138  0  0  0.24866  0.293515  0  2.965069  0
S  S47  1  0.22159473  0.71952380  0.34330479  1  0  0.310438  0  2.625854  0  0  0.298891  0  2.964163  0  0  0.305087  0  2.965135  0  0  0.248769  0.293541  0  2.965017  0
N  N48  1  0.54169583  0.06446907  0.13229812  1  0  -0.142629  0  3.266645  0  0  -0.086347  0  3.562978  0  0  -0.091981  0  3.572892  0  0  -0.20413  -0.08218  0  3.556161  0
N  N49  1  0.45829070  0.43553705  0.63228337  1  0  -0.142756  0  3.266502  0  0  -0.086248  0  3.562706  0  0  -0.091885  0  3.572609  0  0  -0.204156  -0.082083  0  3.555896  0
N  N50  1  0.45827126  0.93552303  0.86769750  1  0  -0.142543  0  3.266594  0  0  -0.085934  0  3.562614  0  0  -0.091562  0  3.572537  0  0  -0.203941  -0.081771  0  3.555796  0
N  N51  1  0.54176686  0.56448555  0.36771837  1  0  -0.14313  0  3.266813  0  0  -0.086638  0  3.563086  0  0  -0.092271  0  3.572992  0  0  -0.204327  -0.082474  0  3.556277  0
N  N52  1  0.39014095  0.13044180  0.08800430  1  0  -0.213911  0  3.029973  0  0  -0.167108  0  3.341326  0  0  -0.169502  0  3.345303  0  0  -0.192748  -0.165307  0  3.338833  0
N  N53  1  0.60979539  0.36953811  0.58798563  1  0  -0.213715  0  3.029746  0  0  -0.167081  0  3.341166  0  0  -0.16947  0  3.345144  0  0  -0.192825  -0.165282  0  3.33867  0
N  N54  1  0.60978047  0.86953792  0.91200764  1  0  -0.213895  0  3.030038  0  0  -0.167312  0  3.341491  0  0  -0.169714  0  3.345476  0  0  -0.1929  -0.165512  0  3.338999  0
N  N55  1  0.39027614  0.63049561  0.41201747  1  0  -0.213478  0  3.029833  0  0  -0.166833  0  3.341212  0  0  -0.169235  0  3.345206  0  0  -0.19268  -0.165038  0  3.338724  0
O  O56  1  0.03389309  0.33222500  0.29388202  1  0  -0.611714  0  1.98177  0  0  -0.55462  0  2.219814  0  0  -0.582988  0  2.215519  0  0  -0.312412  -0.534251  0  2.222451  0
O  O57  1  0.96609352  0.16775459  0.79388592  1  0  -0.611863  0  1.981637  0  0  -0.554784  0  2.219759  0  0  -0.583134  0  2.215398  0  0  -0.312558  -0.534409  0  2.222398  0
O  O58  1  0.96611023  0.66779160  0.70613196  1  0  -0.6119  0  1.98189  0  0  -0.554809  0  2.219963  0  0  -0.583184  0  2.215675  0  0  -0.312525  -0.534433  0  2.222598  0
O  O59  1  0.03387252  0.83224228  0.20612943  1  0  -0.611943  0  1.981666  0  0  -0.554799  0  2.219689  0  0  -0.58317  0  2.215391  0  0  -0.312583  -0.534429  0  2.222331  0
O  O60  1  0.08567199  0.30950123  0.44595548  1  0  -0.633587  0  2.041154  0  0  -0.563789  0  2.308598  0  0  -0.59599  0  2.300402  0  0  -0.340937  -0.541019  0  2.313262  0
O  O61  1  0.91431747  0.19049590  0.94594964  1  0  -0.633542  0  2.041252  0  0  -0.563748  0  2.308683  0  0  -0.595946  0  2.300489  0  0  -0.340978  -0.540981  0  2.313349  0
O  O62  1  0.91435539  0.69052785  0.55406395  1  0  -0.633621  0  2.041939  0  0  -0.56387  0  2.309504  0  0  -0.596061  0  2.301302  0  0  -0.340999  -0.541108  0  2.314178  0
O  O63  1  0.08561281  0.80946879  0.05406367  1  0  -0.633644  0  2.041582  0  0  -0.563835  0  2.308979  0  0  -0.596028  0  2.300786  0  0  -0.341  -0.54107  0  2.313647  0
