# generated using pymatgen
data_CdH14(C11N6)2
_symmetry_space_group_name_H-M   'P 1'
_cell_length_a   6.90304098
_cell_length_b   6.90304284
_cell_length_c   22.79023774
_cell_angle_alpha   93.51827968
_cell_angle_beta   93.51825327
_cell_angle_gamma   108.68693400
_symmetry_Int_Tables_number   1
_chemical_formula_structural   CdH14(C11N6)2
_chemical_formula_sum   'Cd2 H28 C44 N24'
_cell_volume   1023.03337180
_cell_formula_units_Z   2
loop_
 _symmetry_equiv_pos_site_id
 _symmetry_equiv_pos_as_xyz
  1  'x, y, z'
loop_
 _atom_site_type_symbol
 _atom_site_label
 _atom_site_symmetry_multiplicity
 _atom_site_fract_x
 _atom_site_fract_y
 _atom_site_fract_z
 _atom_site_occupancy
 _atom_site_hle17_bader_spin_density
 _atom_site_hle17_ddec_charge
 _atom_site_hle17_ddec_spin_density
 _atom_site_hle17_ddec_sum_bond_order
 _atom_site_hle17_magmom
 _atom_site_hse06_10hf_bader_charge
 _atom_site_hse06_10hf_bader_spin_density
 _atom_site_hse06_10hf_ddec_charge
 _atom_site_hse06_10hf_ddec_spin_density
 _atom_site_hse06_10hf_ddec_sum_bond_order
 _atom_site_hse06_10hf_magmom
 _atom_site_hse06_bader_spin_density
 _atom_site_hse06_ddec_charge
 _atom_site_hse06_ddec_spin_density
 _atom_site_hse06_ddec_sum_bond_order
 _atom_site_hse06_magmom
 _atom_site_pbe_bader_spin_density
 _atom_site_pbe_cm5_charge
 _atom_site_pbe_ddec_charge
 _atom_site_pbe_ddec_spin_density
 _atom_site_pbe_ddec_sum_bond_order
 _atom_site_pbe_magmom
Cd  Cd0  1  0.57042338  0.42957558  0.75000005  1  0  0.989712  0  1.774506  0  1.259905  0  0.758018  0  2.231543  0  0  0.813373  0  2.190455  0  0  0.788701  0.719497  0  2.259171  0
Cd  Cd1  1  0.42957718  0.57042761  0.24999977  1  0  0.989694  0  1.774499  0  1.259915  0  0.757995  0  2.231546  0  0  0.813349  0  2.19046  0  0  0.788686  0.719479  0  2.25917  0
H  H2  1  0.20279003  0.05852238  0.89899631  1  0  0.065628  0  0.935386  0  0.034495  0  0.078483  0  0.992714  0  0  0.080719  0  0.991256  0  0  0.10895  0.076809  0  0.993938  0
H  H3  1  0.94148177  0.79721319  0.60100400  1  0  0.065629  0  0.93536  0  0.034507  0  0.078469  0  0.992706  0  0  0.080702  0  0.991254  0  0  0.10896  0.076796  0  0.99393  0
H  H4  1  0.79721494  0.94148092  0.10100317  1  0  0.065642  0  0.935406  0  0.034519  0  0.0785  0  0.992727  0  0  0.080736  0  0.99127  0  0  0.10896  0.076827  0  0.99395  0
H  H5  1  0.05851783  0.20278690  0.39899617  1  0  0.065617  0  0.93539  0  0.03451  0  0.07846  0  0.99273  0  0  0.080694  0  0.991277  0  0  0.108948  0.076785  0  0.993954  0
H  H6  1  0.00060020  0.92848066  0.80207582  1  0  0.114956  0  0.946666  0  0.095544  0  0.121654  0  1.012655  0  0  0.125838  0  1.009916  0  0  0.106852  0.118686  0  1.014683  0
H  H7  1  0.07152376  0.99940414  0.69792416  1  0  0.114917  0  0.946707  0  0.09565  0  0.121622  0  1.012689  0  0  0.125805  0  1.009952  0  0  0.106854  0.118656  0  1.014716  0
H  H8  1  0.99940282  0.07152105  0.19792403  1  0  0.114963  0  0.946659  0  0.095644  0  0.121664  0  1.012639  0  0  0.125848  0  1.009902  0  0  0.106863  0.118695  0  1.014666  0
H  H9  1  0.92848166  0.00060067  0.30207580  1  0  0.114927  0  0.946714  0  0.095531  0  0.121614  0  1.012716  0  0  0.125797  0  1.009978  0  0  0.106838  0.118645  0  1.014742  0
H  H10  1  0.52518352  0.14045606  0.86861830  1  0  0.099562  0  0.959893  0  0.064218  0  0.108167  0  1.025007  0  0  0.111321  0  1.023894  0  0  0.103062  0.105839  0  1.026075  0
H  H11  1  0.85953897  0.47481296  0.63138209  1  0  0.099608  0  0.959879  0  0.064211  0  0.108188  0  1.025007  0  0  0.111342  0  1.023894  0  0  0.103071  0.105863  0  1.026074  0
H  H12  1  0.47481565  0.85954255  0.13138095  1  0  0.099609  0  0.959861  0  0.064214  0  0.108193  0  1.02499  0  0  0.111348  0  1.023877  0  0  0.103067  0.105868  0  1.026055  0
H  H13  1  0.14045677  0.52518401  0.36861794  1  0  0.099578  0  0.959873  0  0.064213  0  0.108184  0  1.024984  0  0  0.111338  0  1.02387  0  0  0.103061  0.105858  0  1.026051  0
H  H14  1  0.74003274  0.25116865  0.96363304  1  0  0.069039  0  0.981754  0  0.123322  0  0.070098  0  1.0576  0  0  0.073511  0  1.054329  0  0  0.104233  0.067648  0  1.059936  0
H  H15  1  0.74882562  0.25996377  0.53636821  1  0  0.069047  0  0.981758  0  0.123328  0  0.070101  0  1.057606  0  0  0.073509  0  1.054337  0  0  0.104235  0.067652  0  1.059939  0
H  H16  1  0.25996691  0.74882687  0.03636704  1  0  0.069074  0  0.981701  0  0.123298  0  0.070089  0  1.05759  0  0  0.0735  0  1.05432  0  0  0.104228  0.067641  0  1.059923  0
H  H17  1  0.25116620  0.74003000  0.46363298  1  0  0.069075  0  0.981708  0  0.123332  0  0.070102  0  1.057577  0  0  0.073516  0  1.054305  0  0  0.104237  0.067654  0  1.059909  0
H  H18  1  0.33718258  0.82434164  0.57508519  1  0  0.089612  0  0.928287  0  0.097052  0  0.099212  0  0.98982  0  0  0.102087  0  0.988091  0  0  0.120266  0.097123  0  0.991212  0
H  H19  1  0.17565674  0.66281457  0.92491447  1  0  0.089579  0  0.928287  0  0.097061  0  0.099176  0  0.989824  0  0  0.102051  0  0.988095  0  0  0.12025  0.097086  0  0.991217  0
H  H20  1  0.66281174  0.17565533  0.42491393  1  0  0.08958  0  0.92829  0  0.097071  0  0.099177  0  0.989816  0  0  0.102051  0  0.988089  0  0  0.120233  0.097088  0  0.991206  0
H  H21  1  0.82434383  0.33718400  0.07508613  1  0  0.089577  0  0.928255  0  0.097064  0  0.099175  0  0.989785  0  0  0.10205  0  0.988058  0  0  0.120245  0.097085  0  0.991178  0
H  H22  1  0.27046094  0.22525224  0.51180167  1  0  0.087564  0  0.984562  0  0.185754  0  0.081714  0  1.066027  0  0  0.086695  0  1.062061  0  0  0.108173  0.07813  0  1.068852  0
H  H23  1  0.77474722  0.72953931  0.98819892  1  0  0.08757  0  0.98454  0  0.185746  0  0.081726  0  1.066008  0  0  0.086709  0  1.062042  0  0  0.108177  0.078142  0  1.068838  0
H  H24  1  0.72953965  0.77474635  0.48819850  1  0  0.087583  0  0.984547  0  0.18577  0  0.08172  0  1.066013  0  0  0.086709  0  1.062043  0  0  0.108177  0.078139  0  1.068837  0
H  H25  1  0.22525283  0.27046230  0.01180173  1  0  0.087571  0  0.984562  0  0.185758  0  0.081714  0  1.066021  0  0  0.086698  0  1.062054  0  0  0.108172  0.078131  0  1.068847  0
H  H26  1  0.41686786  0.16735960  0.61192756  1  0  0.076516  0  0.998692  0  0.168406  0  0.07511  0  1.078497  0  0  0.07861  0  1.076055  0  0  0.11063  0.07253  0  1.080411  0
H  H27  1  0.83264199  0.58313614  0.88807271  1  0  0.076505  0  0.998653  0  0.168388  0  0.075062  0  1.078493  0  0  0.078561  0  1.076051  0  0  0.110582  0.072478  0  1.080412  0
H  H28  1  0.58313468  0.83264058  0.38807224  1  0  0.076537  0  0.99869  0  0.168389  0  0.075131  0  1.078487  0  0  0.078631  0  1.076044  0  0  0.11064  0.072552  0  1.080399  0
H  H29  1  0.16735850  0.41686698  0.11192843  1  0  0.07655  0  0.998644  0  0.168394  0  0.075111  0  1.078475  0  0  0.07861  0  1.076034  0  0  0.11062  0.072528  0  1.08039  0
C  C30  1  0.05112662  0.07446898  0.89070368  1  0  0.109476  0  3.754922  0  0.583684  0  0.084824  0  4.017655  0  0  0.089364  0  4.035582  0  0  0.037591  0.081931  0  4.005378  0
C  C31  1  0.92553229  0.94887414  0.60929652  1  0  0.109446  0  3.754773  0  0.583679  0  0.084814  0  4.017506  0  0  0.089353  0  4.03543  0  0  0.037576  0.081922  0  4.005232  0
C  C32  1  0.94887449  0.92553119  0.10929565  1  0  0.109474  0  3.754851  0  0.583648  0  0.084824  0  4.017574  0  0  0.089363  0  4.035502  0  0  0.037572  0.081931  0  4.005295  0
C  C33  1  0.07446684  0.05112442  0.39070361  1  0  0.109449  0  3.75491  0  0.583711  0  0.084806  0  4.01765  0  0  0.089346  0  4.035574  0  0  0.03758  0.081916  0  4.005371  0
C  C34  1  0.93914297  0.00243152  0.83639586  1  0  -0.134296  0  3.694763  0  -0.025768  0  -0.159255  0  3.953429  0  0  -0.164076  0  3.971939  0  0  -0.082801  -0.156091  0  3.94096  0
C  C35  1  0.99757287  0.06086226  0.66360533  1  0  -0.134239  0  3.694741  0  -0.025832  0  -0.159157  0  3.953441  0  0  -0.163978  0  3.971951  0  0  -0.082816  -0.155994  0  3.940972  0
C  C36  1  0.06085953  0.99756862  0.16360482  1  0  -0.134261  0  3.694662  0  -0.025773  0  -0.159239  0  3.953357  0  0  -0.164058  0  3.97186  0  0  -0.082825  -0.156071  0  3.940882  0
C  C37  1  0.00242961  0.93914247  0.33639501  1  0  -0.134225  0  3.694715  0  -0.025819  0  -0.159185  0  3.95341  0  0  -0.164004  0  3.971917  0  0  -0.082816  -0.156018  0  3.940935  0
C  C38  1  0.74621685  0.02770871  0.82691767  1  0  0.049305  0  3.777088  0  -0.038756  0  0.063458  0  4.014074  0  0  0.065654  0  4.034683  0  0  0.006576  0.062046  0  4.000038  0
C  C39  1  0.97229185  0.25378286  0.67308245  1  0  0.049347  0  3.77691  0  -0.03878  0  0.063356  0  4.014114  0  0  0.065549  0  4.034727  0  0  0.006575  0.06195  0  4.000076  0
C  C40  1  0.25378619  0.97229303  0.17308174  1  0  0.049237  0  3.777108  0  -0.038773  0  0.06339  0  4.014068  0  0  0.065586  0  4.034681  0  0  0.006567  0.061977  0  4.000028  0
C  C41  1  0.02770636  0.74621265  0.32691715  1  0  0.049315  0  3.777083  0  -0.038759  0  0.063441  0  4.014059  0  0  0.065634  0  4.03467  0  0  0.006638  0.062034  0  4.000021  0
C  C42  1  0.67519185  0.12007031  0.87354341  1  0  -0.152171  0  3.718139  0  -0.028206  0  -0.173739  0  3.968734  0  0  -0.180207  0  3.990658  0  0  -0.087985  -0.169433  0  3.954032  0
C  C43  1  0.87993009  0.32481150  0.62645723  1  0  -0.15222  0  3.718046  0  -0.028202  0  -0.173711  0  3.968685  0  0  -0.180175  0  3.990597  0  0  -0.087971  -0.169405  0  3.953981  0
C  C44  1  0.32481265  0.87993146  0.12645603  1  0  -0.152217  0  3.718081  0  -0.028235  0  -0.173785  0  3.968691  0  0  -0.180246  0  3.990594  0  0  -0.088006  -0.169476  0  3.953983  0
C  C45  1  0.12006511  0.67518848  0.37354328  1  0  -0.152222  0  3.718158  0  -0.028202  0  -0.173791  0  3.968741  0  0  -0.180262  0  3.990675  0  0  -0.087999  -0.169482  0  3.954034  0
C  C46  1  0.79758702  0.18393351  0.92665792  1  0  0.11203  0  3.749616  0  0.503581  0  0.09099  0  4.006796  0  0  0.095489  0  4.024644  0  0  0.036977  0.088139  0  3.9946  0
C  C47  1  0.81606261  0.20240955  0.57334204  1  0  0.112016  0  3.749606  0  0.503618  0  0.090966  0  4.006799  0  0  0.095473  0  4.024639  0  0  0.036973  0.088118  0  3.994599  0
C  C48  1  0.20241122  0.81606203  0.07334125  1  0  0.11203  0  3.749568  0  0.50373  0  0.091033  0  4.006728  0  0  0.095537  0  4.024572  0  0  0.036983  0.088183  0  3.994528  0
C  C49  1  0.18393120  0.79758585  0.42665791  1  0  0.111993  0  3.749573  0  0.503209  0  0.090992  0  4.006735  0  0  0.095491  0  4.024579  0  0  0.036966  0.088144  0  3.994537  0
C  C50  1  0.62555827  0.96194004  0.76989164  1  0  0.306384  0  3.770743  0  0.962573  0  0.275577  0  4.039412  0  0  0.28837  0  4.055873  0  0  0.206575  0.267185  0  4.027884  0
C  C51  1  0.03806077  0.37444571  0.73010909  1  0  0.306355  0  3.770549  0  0.962627  0  0.275564  0  4.039284  0  0  0.288358  0  4.055747  0  0  0.206544  0.267167  0  4.027762  0
C  C52  1  0.37444674  0.03806330  0.23010696  1  0  0.306324  0  3.770732  0  0.962572  0  0.275554  0  4.039343  0  0  0.288346  0  4.055807  0  0  0.206577  0.267162  0  4.027815  0
C  C53  1  0.96193979  0.62555747  0.26989074  1  0  0.306352  0  3.770676  0  0.962601  0  0.275622  0  4.039247  0  0  0.288416  0  4.055709  0  0  0.206546  0.267225  0  4.027724  0
C  C54  1  0.49193112  0.80066613  0.68739723  1  0  0.241501  0  3.860531  0  0.995538  0  0.217082  0  4.131871  0  0  0.22552  0  4.151137  0  0  0.1928  0.211653  0  4.118579  0
C  C55  1  0.19933064  0.50806776  0.81260286  1  0  0.241683  0  3.86052  0  0.99573  0  0.217188  0  4.131963  0  0  0.225629  0  4.151225  0  0  0.192849  0.21176  0  4.118665  0
C  C56  1  0.50806801  0.19933243  0.31260290  1  0  0.241538  0  3.860494  0  0.995683  0  0.217093  0  4.131871  0  0  0.225531  0  4.151137  0  0  0.192786  0.211661  0  4.118578  0
C  C57  1  0.80066754  0.49193235  0.18739640  1  0  0.241679  0  3.86047  0  0.995413  0  0.217143  0  4.131955  0  0  0.225582  0  4.151221  0  0  0.192814  0.211713  0  4.118659  0
C  C58  1  0.43210955  0.64302207  0.63826766  1  0  0.125134  0  3.781276  0  0.56855  0  0.125237  0  4.023506  0  0  0.129831  0  4.042585  0  0  0.124681  0.121883  0  4.010766  0
C  C59  1  0.35697770  0.56788879  0.86173379  1  0  0.125221  0  3.781153  0  0.568297  0  0.125328  0  4.023433  0  0  0.129922  0  4.04251  0  0  0.124681  0.12197  0  4.010694  0
C  C60  1  0.56788666  0.35697643  0.36173240  1  0  0.125164  0  3.781287  0  0.568392  0  0.125281  0  4.02349  0  0  0.129875  0  4.042568  0  0  0.124714  0.121929  0  4.010746  0
C  C61  1  0.64302287  0.43210978  0.13826681  1  0  0.125179  0  3.781321  0  0.568451  0  0.125331  0  4.023554  0  0  0.129924  0  4.042633  0  0  0.124704  0.121977  0  4.01081  0
C  C62  1  0.35291073  0.67532518  0.58274098  1  0  0.051431  0  3.678962  0  0.526618  0  0.017125  0  3.943781  0  0  0.018203  0  3.959292  0  0  0.056235  0.016284  0  3.933513  0
C  C63  1  0.32467506  0.64708374  0.91725953  1  0  0.05145  0  3.679142  0  0.52693  0  0.017165  0  3.943944  0  0  0.018239  0  3.95946  0  0  0.056266  0.016324  0  3.933674  0
C  C64  1  0.64708406  0.32467334  0.41725818  1  0  0.051439  0  3.679019  0  0.526784  0  0.017164  0  3.943818  0  0  0.018241  0  3.95933  0  0  0.056274  0.016324  0  3.933547  0
C  C65  1  0.67532645  0.35291329  0.08274194  1  0  0.051451  0  3.678932  0  0.526631  0  0.017188  0  3.94372  0  0  0.018264  0  3.959235  0  0  0.056274  0.016348  0  3.933448  0
C  C66  1  0.31881329  0.34772811  0.54787012  1  0  0.068772  0  3.677991  0  0.508335  0  0.047698  0  3.936804  0  0  0.04831  0  3.953361  0  0  0.045027  0.047164  0  3.925979  0
C  C67  1  0.65227435  0.68118503  0.95213006  1  0  0.068738  0  3.677955  0  0.508419  0  0.047624  0  3.936818  0  0  0.048243  0  3.95335  0  0  0.044993  0.047083  0  3.926002  0
C  C68  1  0.68118489  0.65227200  0.45212914  1  0  0.068733  0  3.678043  0  0.508446  0  0.047686  0  3.936855  0  0  0.04829  0  3.953401  0  0  0.045008  0.047152  0  3.926029  0
C  C69  1  0.34772669  0.31881507  0.04787059  1  0  0.068759  0  3.678108  0  0.508427  0  0.047718  0  3.936899  0  0  0.048327  0  3.953452  0  0  0.045028  0.047183  0  3.926074  0
C  C70  1  0.39961451  0.31411330  0.60246879  1  0  0.081058  0  3.704879  0  0.424439  0  0.055721  0  3.953101  0  0  0.058379  0  3.972146  0  0  0.04918  0.053864  0  3.940457  0
C  C71  1  0.68588642  0.60038608  0.89753181  1  0  0.081182  0  3.70472  0  0.424438  0  0.0559  0  3.952944  0  0  0.058557  0  3.97199  0  0  0.049296  0.054074  0  3.940239  0
C  C72  1  0.60038509  0.68588679  0.39753138  1  0  0.080999  0  3.704913  0  0.424409  0  0.055669  0  3.953116  0  0  0.058327  0  3.97216  0  0  0.049149  0.053799  0  3.940496  0
C  C73  1  0.31411172  0.39961399  0.10246833  1  0  0.081065  0  3.704816  0  0.424393  0  0.055778  0  3.95303  0  0  0.058436  0  3.972077  0  0  0.049223  0.053924  0  3.94038  0
N  N74  1  0.98455166  0.16479541  0.93547203  1  0  -0.315342  0  3.096716  0  -1.236767  0  -0.273313  0  3.35919  0  0  -0.284819  0  3.375735  0  0  -0.318731  -0.265266  0  3.34764  0
N  N75  1  0.83520336  0.01544838  0.56452805  1  0  -0.315351  0  3.096685  0  -1.236736  0  -0.273311  0  3.359153  0  0  -0.284817  0  3.375695  0  0  -0.318727  -0.265265  0  3.347605  0
N  N76  1  0.01544994  0.83520170  0.06452768  1  0  -0.315399  0  3.096772  0  -1.236847  0  -0.273369  0  3.359224  0  0  -0.284877  0  3.375768  0  0  -0.318719  -0.265322  0  3.347674  0
N  N77  1  0.16479283  0.98455009  0.43547246  1  0  -0.315324  0  3.096739  0  -1.236354  0  -0.273294  0  3.359197  0  0  -0.284798  0  3.375738  0  0  -0.318712  -0.265248  0  3.347648  0
N  N78  1  0.60429325  0.78551293  0.73704358  1  0  -0.484923  0  3.104107  0  -1.229878  0  -0.421569  0  3.376747  0  0  -0.443363  0  3.392151  0  0  -0.348734  -0.406694  0  3.365838  0
N  N79  1  0.21448516  0.39570843  0.76295791  1  0  -0.485013  0  3.10415  0  -1.22993  0  -0.421631  0  3.37683  0  0  -0.443426  0  3.392233  0  0  -0.348772  -0.406762  0  3.365936  0
N  N80  1  0.39570682  0.21448870  0.26295664  1  0  -0.484917  0  3.104036  0  -1.229925  0  -0.42157  0  3.376678  0  0  -0.443365  0  3.392082  0  0  -0.348712  -0.406699  0  3.36578  0
N  N81  1  0.78551734  0.60429632  0.23704199  1  0  -0.485004  0  3.104119  0  -1.229939  0  -0.421649  0  3.376792  0  0  -0.443442  0  3.392194  0  0  -0.348761  -0.406779  0  3.365897  0
N  N82  1  0.44456614  0.97460366  0.68867510  1  0  -0.268938  0  2.963607  0  -0.693385  0  -0.246707  0  3.238435  0  0  -0.25572  0  3.256916  0  0  -0.225166  -0.240387  0  3.22572  0
N  N83  1  0.02539370  0.55543338  0.81132635  1  0  -0.269103  0  2.963673  0  -0.693276  0  -0.246837  0  3.238518  0  0  -0.255851  0  3.256998  0  0  -0.225216  -0.240517  0  3.225803  0
N  N84  1  0.55543495  0.02539648  0.31132467  1  0  -0.268943  0  2.963568  0  -0.69338  0  -0.246703  0  3.238399  0  0  -0.255715  0  3.25688  0  0  -0.225138  -0.240382  0  3.225683  0
N  N85  1  0.97460640  0.44456365  0.18867420  1  0  -0.269034  0  2.963597  0  -0.693064  0  -0.24676  0  3.238462  0  0  -0.255775  0  3.256945  0  0  -0.225168  -0.240439  0  3.225744  0
N  N86  1  0.52905868  0.07754366  0.74170173  1  0  -0.323347  0  3.127496  0  -0.75305  0  -0.255466  0  3.413882  0  0  -0.274394  0  3.43186  0  0  -0.245023  -0.242538  0  3.401292  0
N  N87  1  0.92245506  0.47094160  0.75829926  1  0  -0.323273  0  3.127576  0  -0.753252  0  -0.255378  0  3.413953  0  0  -0.274306  0  3.431933  0  0  -0.244987  -0.242451  0  3.401368  0
N  N88  1  0.47094532  0.92246117  0.25829733  1  0  -0.323289  0  3.127516  0  -0.753036  0  -0.255413  0  3.413877  0  0  -0.274342  0  3.431857  0  0  -0.245031  -0.242486  0  3.401288  0
N  N89  1  0.07754405  0.52905694  0.24170131  1  0  -0.323293  0  3.12753  0  -0.753238  0  -0.255427  0  3.413879  0  0  -0.274355  0  3.431858  0  0  -0.245008  -0.2425  0  3.401292  0
N  N90  1  0.45817270  0.46125423  0.64728091  1  0  -0.313813  0  3.195443  0  -1.251124  0  -0.246308  0  3.448164  0  0  -0.260776  0  3.464953  0  0  -0.306501  -0.236179  0  3.436638  0
N  N91  1  0.53874646  0.54182402  0.85271920  1  0  -0.313998  0  3.195304  0  -1.251096  0  -0.246521  0  3.44808  0  0  -0.26099  0  3.464867  0  0  -0.306572  -0.236398  0  3.43656  0
N  N92  1  0.54182549  0.53874588  0.35271836  1  0  -0.313788  0  3.195374  0  -1.25111  0  -0.246296  0  3.448101  0  0  -0.260763  0  3.464889  0  0  -0.306494  -0.236165  0  3.436573  0
N  N93  1  0.46125557  0.45817458  0.14728144  1  0  -0.313902  0  3.195329  0  -1.251067  0  -0.246455  0  3.448096  0  0  -0.260925  0  3.464886  0  0  -0.30655  -0.236327  0  3.43657  0
N  N94  1  0.29770441  0.53020409  0.53787871  1  0  -0.250001  0  3.072717  0  -1.215159  0  -0.214793  0  3.340256  0  0  -0.221223  0  3.355267  0  0  -0.297217  -0.210069  0  3.329976  0
N  N95  1  0.46979350  0.70229125  0.96212133  1  0  -0.24996  0  3.072713  0  -1.215446  0  -0.214729  0  3.340245  0  0  -0.221158  0  3.355256  0  0  -0.297179  -0.210009  0  3.329969  0
N  N96  1  0.70229135  0.46979290  0.46212088  1  0  -0.249964  0  3.072712  0  -1.215405  0  -0.214799  0  3.340261  0  0  -0.221225  0  3.355269  0  0  -0.297222  -0.210076  0  3.329982  0
N  N97  1  0.53020417  0.29770728  0.03787877  1  0  -0.249962  0  3.072638  0  -1.215201  0  -0.214803  0  3.34019  0  0  -0.221235  0  3.355204  0  0  -0.29721  -0.210081  0  3.329909  0
