# generated using pymatgen
data_HgH16C20(BrN2)2
_symmetry_space_group_name_H-M   'P 1'
_cell_length_a   7.99357777
_cell_length_b   12.28401619
_cell_length_c   12.47830512
_cell_angle_alpha   86.07628898
_cell_angle_beta   71.16340207
_cell_angle_gamma   77.99285331
_symmetry_Int_Tables_number   1
_chemical_formula_structural   HgH16C20(BrN2)2
_chemical_formula_sum   'Hg2 H32 C40 Br4 N8'
_cell_volume   1134.29031133
_cell_formula_units_Z   2
loop_
 _symmetry_equiv_pos_site_id
 _symmetry_equiv_pos_as_xyz
  1  'x, y, z'
loop_
 _atom_site_type_symbol
 _atom_site_label
 _atom_site_symmetry_multiplicity
 _atom_site_fract_x
 _atom_site_fract_y
 _atom_site_fract_z
 _atom_site_occupancy
 _atom_site_hle17_bader_spin_density
 _atom_site_hle17_ddec_charge
 _atom_site_hle17_ddec_spin_density
 _atom_site_hle17_ddec_sum_bond_order
 _atom_site_hle17_magmom
 _atom_site_hse06_10hf_bader_spin_density
 _atom_site_hse06_10hf_ddec_charge
 _atom_site_hse06_10hf_ddec_spin_density
 _atom_site_hse06_10hf_ddec_sum_bond_order
 _atom_site_hse06_10hf_magmom
 _atom_site_hse06_bader_spin_density
 _atom_site_hse06_ddec_charge
 _atom_site_hse06_ddec_spin_density
 _atom_site_hse06_ddec_sum_bond_order
 _atom_site_hse06_magmom
 _atom_site_pbe_bader_spin_density
 _atom_site_pbe_cm5_charge
 _atom_site_pbe_ddec_charge
 _atom_site_pbe_ddec_spin_density
 _atom_site_pbe_ddec_sum_bond_order
 _atom_site_pbe_magmom
Hg  Hg0  1  0.82913013  0.74989287  0.34191778  1  0  0.678916  0  2.140086  0  0  0.515935  0  2.653335  0  0  0.566929  0  2.619271  0  0  0.472148  0.481468  0  2.675842  0
Hg  Hg1  1  0.17086708  0.25010607  0.65809113  1  0  0.678918  0  2.140177  0  0  0.515942  0  2.653455  0  0  0.566933  0  2.619392  0  0  0.47216  0.481481  0  2.675958  0
H  H2  1  0.77079668  0.62893376  0.59353555  1  0  0.074387  0  0.950048  0  0  0.078556  0  1.0228  0  0  0.081365  0  1.020099  0  0  0.104167  0.076488  0  1.024831  0
H  H3  1  0.63327242  0.87107402  0.59331776  1  0  0.07306  0  0.951247  0  0  0.077562  0  1.023748  0  0  0.080383  0  1.021068  0  0  0.103517  0.075496  0  1.025738  0
H  H4  1  0.22919794  0.37106350  0.40646053  1  0  0.07439  0  0.950018  0  0  0.078562  0  1.022756  0  0  0.081373  0  1.020054  0  0  0.104171  0.076495  0  1.024785  0
H  H5  1  0.36673478  0.12892745  0.40669484  1  0  0.073059  0  0.951195  0  0  0.077571  0  1.02369  0  0  0.080396  0  1.021008  0  0  0.103536  0.075508  0  1.025676  0
H  H6  1  0.56336872  0.53412007  0.74714995  1  0  0.109409  0  0.94199  0  0  0.121485  0  0.996224  0  0  0.124556  0  0.9957  0  0  0.10423  0.119251  0  0.996825  0
H  H7  1  0.68573742  0.96657922  0.74626426  1  0  0.109376  0  0.942698  0  0  0.120985  0  0.997723  0  0  0.124153  0  0.997126  0  0  0.104063  0.11871  0  0.998344  0
H  H8  1  0.43663676  0.46587304  0.25284450  1  0  0.109454  0  0.941923  0  0  0.121525  0  0.996178  0  0  0.124601  0  0.995655  0  0  0.104242  0.11929  0  0.996779  0
H  H9  1  0.31428513  0.03341979  0.25374295  1  0  0.109262  0  0.942708  0  0  0.120843  0  0.997777  0  0  0.124006  0  0.997191  0  0  0.103983  0.118574  0  0.99838  0
H  H10  1  0.25766750  0.52640905  0.73120769  1  0  0.097424  0  0.956879  0  0  0.105027  0  1.022183  0  0  0.10834  0  1.018952  0  0  0.099298  0.102626  0  1.024476  0
H  H11  1  0.00746885  0.97370752  0.73085922  1  0  0.097422  0  0.957749  0  0  0.104854  0  1.023092  0  0  0.108185  0  1.01983  0  0  0.099198  0.102446  0  1.025411  0
H  H12  1  0.74233746  0.47358323  0.26878757  1  0  0.097383  0  0.956897  0  0  0.105009  0  1.02217  0  0  0.108324  0  1.018943  0  0  0.099294  0.102607  0  1.024464  0
H  H13  1  0.99255532  0.02628983  0.26914023  1  0  0.097455  0  0.957593  0  0  0.104877  0  1.022959  0  0  0.108193  0  1.019711  0  0  0.09918  0.102467  0  1.02528  0
H  H14  1  0.17727322  0.61401960  0.56508897  1  0  0.109978  0  0.950345  0  0  0.116834  0  1.015163  0  0  0.120285  0  1.013871  0  0  0.101788  0.114333  0  1.016271  0
H  H15  1  0.25546569  0.88563900  0.56528414  1  0  0.110516  0  0.947962  0  0  0.117712  0  1.012417  0  0  0.121134  0  1.011178  0  0  0.102024  0.115212  0  1.013516  0
H  H16  1  0.82272459  0.38597433  0.43490764  1  0  0.110039  0  0.950304  0  0  0.116873  0  1.015148  0  0  0.120332  0  1.013833  0  0  0.101829  0.114373  0  1.016255  0
H  H17  1  0.74454394  0.11436247  0.43471001  1  0  0.110526  0  0.947766  0  0  0.117731  0  1.012246  0  0  0.121148  0  1.011021  0  0  0.102017  0.115238  0  1.013327  0
H  H18  1  0.76450029  0.66014198  0.09168240  1  0  0.110948  0  0.936785  0  0  0.122714  0  0.995947  0  0  0.126066  0  0.994333  0  0  0.104898  0.120286  0  0.997199  0
H  H19  1  0.14479574  0.84007262  0.09168896  1  0  0.110065  0  0.937772  0  0  0.121712  0  0.997495  0  0  0.12505  0  0.995849  0  0  0.104849  0.119315  0  0.99873  0
H  H20  1  0.23549557  0.33986444  0.90831474  1  0  0.111022  0  0.936751  0  0  0.122763  0  0.995929  0  0  0.126116  0  0.994313  0  0  0.104923  0.120338  0  0.997181  0
H  H21  1  0.85519838  0.15992047  0.90830768  1  0  0.110114  0  0.937741  0  0  0.121745  0  0.997466  0  0  0.125081  0  0.995829  0  0  0.104829  0.119346  0  0.998704  0
H  H22  1  0.72175128  0.72721849  0.80338193  1  0  0.100042  0  0.987061  0  0  0.119026  0  1.052114  0  0  0.119967  0  1.053139  0  0  0.084004  0.118324  0  1.051405  0
H  H23  1  0.47697516  0.77155434  0.80354363  1  0  0.09942  0  0.987067  0  0  0.118471  0  1.052419  0  0  0.119394  0  1.053472  0  0  0.08418  0.117785  0  1.051704  0
H  H24  1  0.27824015  0.27278208  0.19661362  1  0  0.10008  0  0.986945  0  0  0.119058  0  1.052002  0  0  0.119998  0  1.053025  0  0  0.083999  0.118356  0  1.051292  0
H  H25  1  0.52301598  0.22844790  0.19645300  1  0  0.099416  0  0.987055  0  0  0.118493  0  1.052385  0  0  0.119417  0  1.053437  0  0  0.084169  0.117803  0  1.051675  0
H  H26  1  0.80095428  0.60607182  0.87202275  1  0  0.11568  0  0.968229  0  0  0.136697  0  1.030662  0  0  0.138422  0  1.029502  0  0  0.081741  0.135471  0  1.031479  0
H  H27  1  0.32939630  0.89324416  0.87084553  1  0  0.115952  0  0.96856  0  0  0.137309  0  1.030995  0  0  0.139002  0  1.02987  0  0  0.08184  0.136088  0  1.031833  0
H  H28  1  0.19904451  0.39393045  0.12797678  1  0  0.115752  0  0.968187  0  0  0.136739  0  1.03064  0  0  0.138462  0  1.02948  0  0  0.081751  0.135514  0  1.031454  0
H  H29  1  0.67060456  0.10676228  0.12915586  1  0  0.115998  0  0.96856  0  0  0.137328  0  1.031025  0  0  0.139021  0  1.0299  0  0  0.081841  0.136104  0  1.031865  0
H  H30  1  0.86749105  0.73229121  0.88270923  1  0  0.111357  0  0.931792  0  0  0.135738  0  0.985594  0  0  0.136525  0  0.986071  0  0  0.093773  0.13518  0  0.985218  0
H  H31  1  0.25125784  0.76707632  0.88376952  1  0  0.10982  0  0.931655  0  0  0.134329  0  0.985616  0  0  0.135117  0  0.986097  0  0  0.092981  0.133777  0  0.985239  0
H  H32  1  0.13250057  0.26771603  0.11728792  1  0  0.111306  0  0.931906  0  0  0.135692  0  0.985699  0  0  0.136479  0  0.986176  0  0  0.093777  0.135134  0  0.985323  0
H  H33  1  0.74872796  0.23293340  0.11622738  1  0  0.109785  0  0.93173  0  0  0.134297  0  0.985688  0  0  0.135091  0  0.986162  0  0  0.092962  0.133746  0  0.98531  0
C  C34  1  0.39132928  0.71830063  0.38895917  1  0  0.11553  0  3.726171  0  0  0.105038  0  3.982279  0  0  0.109701  0  3.998382  0  0  0.127941  0.10174  0  3.971391  0
C  C35  1  0.21886403  0.78188030  0.38900203  1  0  0.115778  0  3.724422  0  0  0.105789  0  3.980385  0  0  0.110565  0  3.996395  0  0  0.127555  0.102473  0  3.969519  0
C  C36  1  0.60866819  0.28170163  0.61103903  1  0  0.11559  0  3.726146  0  0  0.105106  0  3.982262  0  0  0.109765  0  3.998363  0  0  0.127974  0.101806  0  3.971377  0
C  C37  1  0.78113108  0.21812029  0.61099646  1  0  0.115934  0  3.724167  0  0  0.105886  0  3.980166  0  0  0.110664  0  3.996174  0  0  0.127681  0.102569  0  3.969304  0
C  C38  1  0.42920022  0.67173917  0.49361680  1  0  0.180093  0  3.770398  0  0  0.179898  0  4.008289  0  0  0.186115  0  4.029908  0  0  0.119588  0.175782  0  3.99364  0
C  C39  1  0.07556792  0.82818609  0.49371838  1  0  0.179807  0  3.769737  0  0  0.179242  0  4.008567  0  0  0.185427  0  4.030169  0  0  0.120242  0.175152  0  3.99388  0
C  C40  1  0.57079703  0.32825809  0.50638195  1  0  0.18026  0  3.770226  0  0  0.180072  0  4.008106  0  0  0.186291  0  4.029724  0  0  0.11965  0.175955  0  3.99346  0
C  C41  1  0.92443694  0.17181453  0.50628354  1  0  0.179807  0  3.76972  0  0  0.179327  0  4.008478  0  0  0.185517  0  4.030073  0  0  0.120228  0.175234  0  3.993797  0
C  C42  1  0.63605323  0.62646137  0.59169040  1  0  0.116115  0  3.730164  0  0  0.084598  0  3.991099  0  0  0.091146  0  4.00947  0  0  0.039508  0.080374  0  3.978571  0
C  C43  1  0.76985355  0.87366296  0.59145639  1  0  0.117469  0  3.72877  0  0  0.085915  0  3.989752  0  0  0.092439  0  4.008156  0  0  0.039987  0.081722  0  3.977143  0
C  C44  1  0.36394269  0.37353673  0.40830809  1  0  0.116076  0  3.730307  0  0  0.084598  0  3.991215  0  0  0.091147  0  4.009584  0  0  0.039491  0.080374  0  3.978686  0
C  C45  1  0.23015818  0.12633518  0.40855407  1  0  0.117621  0  3.728685  0  0  0.086026  0  3.989703  0  0  0.092542  0  4.008111  0  0  0.040005  0.08183  0  3.977096  0
C  C46  1  0.51955390  0.57378104  0.67735458  1  0  -0.109365  0  3.720874  0  0  -0.122364  0  3.971803  0  0  -0.128606  0  3.992765  0  0  -0.082256  -0.118372  0  3.957718  0
C  C47  1  0.79995568  0.92665166  0.67677955  1  0  -0.109227  0  3.718758  0  0  -0.12207  0  3.969699  0  0  -0.128461  0  3.990736  0  0  -0.082863  -0.118002  0  3.955536  0
C  C48  1  0.48044603  0.42621206  0.32264149  1  0  -0.109427  0  3.720784  0  0  -0.122468  0  3.971754  0  0  -0.128717  0  3.992722  0  0  -0.082308  -0.118476  0  3.95767  0
C  C49  1  0.20006182  0.07335067  0.32322767  1  0  -0.109155  0  3.71889  0  0  -0.121932  0  3.969774  0  0  -0.128323  0  3.990806  0  0  -0.082775  -0.117862  0  3.955613  0
C  C50  1  0.35109782  0.57013012  0.66881560  1  0  0.00743  0  3.711585  0  0  -0.010983  0  3.959973  0  0  -0.00746  0  3.977535  0  0  -0.06807  -0.013056  0  3.947928  0
C  C51  1  0.97701924  0.92998452  0.66855315  1  0  0.007508  0  3.709525  0  0  -0.010514  0  3.95796  0  0  -0.006927  0  3.975462  0  0  -0.067743  -0.012632  0  3.945974  0
C  C52  1  0.64890497  0.42986716  0.33118152  1  0  0.007496  0  3.711515  0  0  -0.010909  0  3.95987  0  0  -0.007394  0  3.977442  0  0  -0.068037  -0.012983  0  3.947826  0
C  C53  1  0.02300093  0.07001615  0.33145059  1  0  0.007486  0  3.709515  0  0  -0.010524  0  3.95794  0  0  -0.006923  0  3.975451  0  0  -0.067683  -0.012642  0  3.945952  0
C  C54  1  0.30529385  0.61946074  0.57574802  1  0  -0.139858  0  3.701171  0  0  -0.157192  0  3.944355  0  0  -0.164369  0  3.966554  0  0  -0.080847  -0.152506  0  3.929448  0
C  C55  1  0.11666708  0.88040480  0.57579873  1  0  -0.14098  0  3.698711  0  0  -0.158515  0  3.942739  0  0  -0.165681  0  3.964878  0  0  -0.081354  -0.153856  0  3.927895  0
C  C56  1  0.69470710  0.38053654  0.42424965  1  0  -0.139976  0  3.701229  0  0  -0.157296  0  3.944397  0  0  -0.164471  0  3.9666  0  0  -0.080885  -0.152609  0  3.929491  0
C  C57  1  0.88334887  0.11959668  0.42420101  1  0  -0.141007  0  3.698627  0  0  -0.158605  0  3.942674  0  0  -0.165776  0  3.964825  0  0  -0.081398  -0.153943  0  3.927834  0
C  C58  1  0.49180217  0.72333366  0.19380070  1  0  0.168585  0  3.831685  0  0  0.16519  0  4.084856  0  0  0.168936  0  4.106166  0  0  0.106931  0.1625  0  4.070575  0
C  C59  1  0.31480635  0.77727900  0.19379587  1  0  0.167991  0  3.830697  0  0  0.165049  0  4.083379  0  0  0.168776  0  4.104664  0  0  0.106998  0.162334  0  4.069141  0
C  C60  1  0.50819191  0.27666359  0.80619726  1  0  0.16864  0  3.831566  0  0  0.165195  0  4.084781  0  0  0.168939  0  4.106094  0  0  0.106889  0.162507  0  4.0705  0
C  C61  1  0.68518617  0.22271658  0.80620156  1  0  0.167981  0  3.830913  0  0  0.165053  0  4.083571  0  0  0.16878  0  4.104858  0  0  0.107011  0.162342  0  4.069323  0
C  C62  1  0.62981133  0.69970740  0.08968360  1  0  -0.192342  0  3.699302  0  0  -0.22217  0  3.947444  0  0  -0.227836  0  3.968758  0  0  -0.089406  -0.218273  0  3.933058  0
C  C63  1  0.28155364  0.80077249  0.08968984  1  0  -0.190215  0  3.697812  0  0  -0.220496  0  3.946106  0  0  -0.226077  0  3.967434  0  0  -0.090029  -0.216622  0  3.931663  0
C  C64  1  0.37018324  0.30029485  0.91031489  1  0  -0.192457  0  3.699228  0  0  -0.222261  0  3.947385  0  0  -0.227927  0  3.968699  0  0  -0.089434  -0.21837  0  3.933007  0
C  C65  1  0.71844311  0.19922310  0.91030464  1  0  -0.19026  0  3.697849  0  0  -0.220542  0  3.946057  0  0  -0.226127  0  3.967386  0  0  -0.090026  -0.216664  0  3.931609  0
C  C66  1  0.59689031  0.72517018  0.98733695  1  0  0.116178  0  3.685651  0  0  0.139436  0  3.91657  0  0  0.139413  0  3.942733  0  0  0.003287  0.139469  0  3.898674  0
C  C67  1  0.41738593  0.77530151  0.98733054  1  0  0.114231  0  3.687085  0  0  0.137725  0  3.91798  0  0  0.137715  0  3.944131  0  0  0.002831  0.137732  0  3.900105  0
C  C68  1  0.40310217  0.27482957  0.01266181  1  0  0.11625  0  3.685762  0  0  0.139508  0  3.916578  0  0  0.139484  0  3.942742  0  0  0.003296  0.13954  0  3.898686  0
C  C69  1  0.58260473  0.22469490  0.01266851  1  0  0.114184  0  3.687157  0  0  0.137776  0  3.917889  0  0  0.137766  0  3.944044  0  0  0.002877  0.137786  0  3.900012  0
C  C70  1  0.75312032  0.69681994  0.88048085  1  0  -0.335088  0  3.730026  0  0  -0.412032  0  3.956172  0  0  -0.414675  0  3.966824  0  0  -0.243925  -0.409938  0  3.948613  0
C  C71  1  0.36831414  0.80258773  0.88051185  1  0  -0.332253  0  3.727986  0  0  -0.409636  0  3.95385  0  0  -0.412291  0  3.964563  0  0  -0.242877  -0.407527  0  3.946285  0
C  C72  1  0.24687344  0.30318398  0.11951657  1  0  -0.335158  0  3.730056  0  0  -0.412086  0  3.956198  0  0  -0.414724  0  3.966848  0  0  -0.243938  -0.409994  0  3.948638  0
C  C73  1  0.63168042  0.19741452  0.11948663  1  0  -0.332267  0  3.728064  0  0  -0.409695  0  3.953901  0  0  -0.412353  0  3.964607  0  0  -0.242877  -0.407584  0  3.946344  0
Br  Br74  1  0.67674803  0.93888550  0.28442522  1  0  -0.45465  0  0.991559  0  0  -0.405199  0  1.278259  0  0  -0.422417  0  1.258986  0  0  -0.247165  -0.39361  0  1.29146  0
Br  Br75  1  0.04071572  0.56126545  0.28553492  1  0  -0.454552  0  0.991513  0  0  -0.405242  0  1.278581  0  0  -0.422423  0  1.259288  0  0  -0.247199  -0.393655  0  1.291816  0
Br  Br76  1  0.32322736  0.06112589  0.71560432  1  0  -0.454614  0  0.99165  0  0  -0.405177  0  1.278383  0  0  -0.422396  0  1.25911  0  0  -0.247152  -0.393586  0  1.291587  0
Br  Br77  1  0.95929308  0.43874100  0.71445843  1  0  -0.454561  0  0.991485  0  0  -0.405259  0  1.278558  0  0  -0.422437  0  1.25926  0  0  -0.247211  -0.393672  0  1.291793  0
N  N78  1  0.52431563  0.69291732  0.29288031  1  0  -0.319479  0  3.129915  0  0  -0.282783  0  3.398838  0  0  -0.294041  0  3.414815  0  0  -0.290419  -0.274601  0  3.387674  0
N  N79  1  0.18265337  0.80754436  0.29293564  1  0  -0.320682  0  3.132376  0  0  -0.283952  0  3.400819  0  0  -0.295232  0  3.416789  0  0  -0.290831  -0.275771  0  3.389666  0
N  N80  1  0.47568136  0.30707994  0.70711737  1  0  -0.319581  0  3.12988  0  0  -0.282858  0  3.398789  0  0  -0.294111  0  3.414762  0  0  -0.290468  -0.274678  0  3.387631  0
N  N81  1  0.81734307  0.19245456  0.70706204  1  0  -0.32086  0  3.1324  0  0  -0.284107  0  3.400833  0  0  -0.295389  0  3.416805  0  0  -0.290941  -0.275926  0  3.389678  0
N  N82  1  0.59183424  0.67497856  0.50237454  1  0  -0.321337  0  3.212171  0  0  -0.255024  0  3.469263  0  0  -0.274502  0  3.490499  0  0  -0.304591  -0.241748  0  3.454511  0
N  N83  1  0.90414083  0.82487809  0.50243448  1  0  -0.320469  0  3.21086  0  0  -0.254652  0  3.468671  0  0  -0.274099  0  3.489956  0  0  -0.304008  -0.241372  0  3.453879  0
N  N84  1  0.40815877  0.32501952  0.49762823  1  0  -0.321392  0  3.212113  0  0  -0.255104  0  3.469211  0  0  -0.274582  0  3.49044  0  0  -0.304581  -0.24183  0  3.454463  0
N  N85  1  0.09586241  0.17512503  0.49757226  1  0  -0.320557  0  3.210598  0  0  -0.254775  0  3.468475  0  0  -0.274222  0  3.489762  0  0  -0.304037  -0.241495  0  3.453688  0
