# generated using pymatgen
data_CoH6(C5N2)2
_symmetry_space_group_name_H-M   'P 1'
_cell_length_a   15.47486521
_cell_length_b   15.47486549
_cell_length_c   20.09231894
_cell_angle_alpha   89.99997261
_cell_angle_beta   90.00000949
_cell_angle_gamma   90.00002675
_symmetry_Int_Tables_number   1
_chemical_formula_structural   CoH6(C5N2)2
_chemical_formula_sum   'Co12 H72 C120 N48'
_cell_volume   4811.53690101
_cell_formula_units_Z   12
loop_
 _symmetry_equiv_pos_site_id
 _symmetry_equiv_pos_as_xyz
  1  'x, y, z'
loop_
 _atom_site_type_symbol
 _atom_site_label
 _atom_site_symmetry_multiplicity
 _atom_site_fract_x
 _atom_site_fract_y
 _atom_site_fract_z
 _atom_site_occupancy
 _atom_site_pbe_bader_charge
 _atom_site_pbe_bader_spin_density
 _atom_site_pbe_cm5_charge
 _atom_site_pbe_ddec_charge
 _atom_site_pbe_ddec_spin_density
 _atom_site_pbe_ddec_sum_bond_order
 _atom_site_pbe_magmom
Co  Co0  1  0.08363519  0.91636469  0.00000033  1  1.12987  2.504924  0.720557  0.584973  2.742025  2.822972  2.431
Co  Co1  1  0.41636510  0.58363459  0.99999997  1  1.129922  2.504916  0.720572  0.585016  2.742019  2.822925  2.431
Co  Co2  1  0.58363553  0.08363560  0.49999955  1  1.129818  2.504927  0.720585  0.584993  2.742023  2.823011  2.431
Co  Co3  1  0.91636484  0.41636491  0.50000001  1  1.12982  2.504932  0.720555  0.584976  2.742025  2.82301  2.431
Co  Co4  1  0.91636471  0.08363519  0.00000004  1  1.129875  2.504925  0.720556  0.584978  2.742027  2.822949  2.431
Co  Co5  1  0.58363501  0.41636467  0.99999952  1  1.129864  2.504924  0.720565  0.584947  2.742025  2.822976  2.431
Co  Co6  1  0.41636512  0.91636526  0.49999988  1  1.129908  2.504915  0.720569  0.584961  2.742019  2.822977  2.431
Co  Co7  1  0.08363517  0.58363531  0.49999992  1  1.129863  2.504926  0.720571  0.58498  2.742027  2.822986  2.431
Co  Co8  1  0.25000047  0.75000061  0.49999990  1  1.124565  2.501429  0.721507  0.59596  2.737221  2.821294  2.428
Co  Co9  1  0.75000013  0.25000041  0.00000000  1  1.124562  2.501432  0.721486  0.595974  2.737222  2.821257  2.428
Co  Co10  1  0.74999954  0.25000025  0.50000003  1  1.124568  2.50143  0.721519  0.596022  2.73722  2.821254  2.428
Co  Co11  1  0.25000052  0.74999981  0.99999993  1  1.12457  2.501431  0.721525  0.596013  2.737222  2.821262  2.428
H  H12  1  0.15988732  0.96252449  0.74065152  1  0.046645  0.000179  0.096815  0.10024  2.2e-05  1.017864  0.0
H  H13  1  0.14064839  0.94266709  0.85368626  1  0.09226  0.00211  0.119818  0.108702  0.000793  1.000305  0.001
H  H14  1  0.29463657  0.05797067  0.56553254  1  0.091721  0.001924  0.120794  0.111262  0.000695  0.992816  0.001
H  H15  1  0.14125319  0.83343713  0.61554304  1  0.112119  0.001922  0.120453  0.112226  0.000722  0.993394  0.001
H  H16  1  0.34011302  0.53747657  0.74065161  1  0.046631  0.000179  0.096809  0.100179  2.2e-05  1.017881  0.0
H  H17  1  0.35935069  0.55733326  0.85368585  1  0.092328  0.002109  0.119799  0.108679  0.000793  1.000335  0.001
H  H18  1  0.20536286  0.44202827  0.56553296  1  0.091718  0.001924  0.120788  0.111263  0.000695  0.992811  0.001
H  H19  1  0.35874713  0.66656271  0.61554358  1  0.112106  0.001921  0.120438  0.112214  0.000722  0.993415  0.001
H  H20  1  0.53747615  0.15988771  0.24065117  1  0.046671  0.000179  0.096815  0.100223  2.2e-05  1.017913  0.0
H  H21  1  0.55733287  0.14064939  0.35368641  1  0.092344  0.00211  0.119829  0.108721  0.000793  1.000358  0.001
H  H22  1  0.44202977  0.29463592  0.06553198  1  0.092237  0.00192  0.120815  0.111293  0.000695  0.992808  0.001
H  H23  1  0.66656288  0.14125304  0.11554318  1  0.112111  0.001921  0.120438  0.112199  0.000722  0.993417  0.001
H  H24  1  0.96252351  0.34011361  0.24065117  1  0.046691  0.000179  0.096806  0.100205  2.2e-05  1.017932  0.0
H  H25  1  0.94266681  0.35935121  0.35368590  1  0.092236  0.00211  0.119821  0.108709  0.000793  1.00035  0.001
H  H26  1  0.05797083  0.20536398  0.06553297  1  0.091623  0.001924  0.120805  0.111274  0.000695  0.992809  0.001
H  H27  1  0.83343805  0.35874706  0.11554315  1  0.112114  0.001921  0.120449  0.112226  0.000722  0.993421  0.001
H  H28  1  0.84011284  0.46252353  0.75934836  1  0.046675  0.000179  0.096805  0.100197  2.2e-05  1.017896  0.0
H  H29  1  0.85935047  0.44266621  0.64631362  1  0.092335  0.002109  0.119798  0.108672  0.000793  1.000332  0.001
H  H30  1  0.70536405  0.55797112  0.93446699  1  0.092209  0.00192  0.120809  0.111282  0.000695  0.992786  0.001
H  H31  1  0.85874691  0.33343804  0.88445689  1  0.112122  0.001922  0.120449  0.112229  0.000722  0.993394  0.001
H  H32  1  0.65988758  0.03747682  0.75934892  1  0.046664  0.000179  0.096825  0.100227  2.2e-05  1.017947  0.0
H  H33  1  0.64064993  0.05733357  0.64631318  1  0.092341  0.00211  0.119797  0.108672  0.000793  1.000293  0.001
H  H34  1  0.79463664  0.94202812  0.93446792  1  0.092306  0.00192  0.120789  0.111247  0.000695  0.992805  0.001
H  H35  1  0.64125354  0.16656287  0.88445641  1  0.112117  0.001922  0.120431  0.112204  0.000722  0.993409  0.001
H  H36  1  0.46252376  0.65988686  0.25934877  1  0.046676  0.000179  0.096807  0.100215  2.2e-05  1.017937  0.0
H  H37  1  0.44266573  0.64064860  0.14631403  1  0.092247  0.00211  0.119804  0.108681  0.000793  1.000289  0.001
H  H38  1  0.55797084  0.79463695  0.43446741  1  0.091722  0.001924  0.120792  0.111264  0.000695  0.992818  0.001
H  H39  1  0.33343702  0.64125464  0.38445677  1  0.112136  0.001922  0.120424  0.112177  0.000722  0.993424  0.001
H  H40  1  0.03747648  0.84011321  0.25934871  1  0.046675  0.000179  0.096801  0.100198  2.2e-05  1.017947  0.0
H  H41  1  0.05733319  0.85935025  0.14631397  1  0.092339  0.00211  0.119803  0.108666  0.000793  1.000341  0.001
H  H42  1  0.94202780  0.70536324  0.43446695  1  0.091713  0.001924  0.120785  0.111261  0.000695  0.992814  0.001
H  H43  1  0.16656260  0.85874664  0.38445622  1  0.112116  0.001922  0.120438  0.112214  0.000722  0.993391  0.001
H  H44  1  0.84011269  0.03747637  0.25934891  1  0.046681  0.000179  0.096801  0.100195  2.2e-05  1.017918  0.0
H  H45  1  0.85935226  0.05733377  0.14631417  1  0.092243  0.002109  0.119797  0.108676  0.000793  1.00033  0.001
H  H46  1  0.70536344  0.94202954  0.43446739  1  0.092317  0.00192  0.1208  0.111268  0.000695  0.992806  0.001
H  H47  1  0.85874682  0.16656243  0.38445639  1  0.112115  0.001922  0.120454  0.112245  0.000722  0.99335  0.001
H  H48  1  0.65988634  0.46252364  0.25934882  1  0.046688  0.000179  0.096811  0.100226  2.2e-05  1.017933  0.0
H  H49  1  0.64064803  0.44266631  0.14631408  1  0.092241  0.002109  0.119796  0.108678  0.000793  1.000332  0.001
H  H50  1  0.79463650  0.55797065  0.43446697  1  0.09232  0.00192  0.120801  0.111272  0.000695  0.992802  0.001
H  H51  1  0.64125288  0.33343621  0.38445685  1  0.112104  0.001922  0.120456  0.112214  0.000722  0.993376  0.001
H  H52  1  0.46252385  0.84011315  0.75934826  1  0.046653  0.000179  0.096826  0.100242  2.2e-05  1.017878  0.0
H  H53  1  0.44266778  0.85935083  0.64631352  1  0.092345  0.002109  0.119812  0.108694  0.000793  1.000315  0.001
H  H54  1  0.55797152  0.70536365  0.93446745  1  0.091713  0.001924  0.120786  0.111259  0.000695  0.992817  0.001
H  H55  1  0.33343777  0.85874588  0.88445676  1  0.112135  0.001921  0.120444  0.11223  0.000722  0.9934  0.001
H  H56  1  0.03747649  0.65988725  0.75934877  1  0.046674  0.000179  0.096801  0.100187  2.2e-05  1.017953  0.0
H  H57  1  0.05733254  0.64064965  0.64631354  1  0.092344  0.00211  0.119794  0.108681  0.000793  1.000312  0.001
H  H58  1  0.94202852  0.79463753  0.93446746  1  0.091717  0.001924  0.120784  0.111265  0.000695  0.992796  0.001
H  H59  1  0.16656260  0.64125380  0.88445679  1  0.112129  0.001922  0.120446  0.112224  0.000722  0.993389  0.001
H  H60  1  0.15988717  0.53747669  0.24065108  1  0.046666  0.000179  0.096795  0.100167  2.2e-05  1.017925  0.0
H  H61  1  0.14065018  0.55733272  0.35368681  1  0.092351  0.00211  0.119799  0.108653  0.000793  1.000313  0.001
H  H62  1  0.29463725  0.44202780  0.06553244  1  0.091704  0.001924  0.120779  0.111231  0.000695  0.99282  0.001
H  H63  1  0.14125439  0.66656282  0.11554354  1  0.112127  0.001921  0.120441  0.112217  0.000722  0.993399  0.001
H  H64  1  0.34011307  0.96252404  0.24065151  1  0.046642  0.000179  0.096817  0.100222  2.2e-05  1.017864  0.0
H  H65  1  0.35935008  0.94266730  0.35368625  1  0.092337  0.002109  0.119822  0.108723  0.000793  1.000368  0.001
H  H66  1  0.20536401  0.05797081  0.06553251  1  0.092316  0.001919  0.120796  0.111278  0.000695  0.992816  0.001
H  H67  1  0.35874711  0.83343669  0.11554353  1  0.112102  0.001922  0.120443  0.112214  0.000722  0.993387  0.001
H  H68  1  0.53747625  0.34011271  0.74065117  1  0.04667  0.000179  0.09682  0.100221  2.2e-05  1.017989  0.0
H  H69  1  0.55733362  0.35935162  0.85368540  1  0.092256  0.00211  0.119792  0.108678  0.000793  1.000311  0.001
H  H70  1  0.44202916  0.20536391  0.56553252  1  0.092224  0.00192  0.120797  0.111264  0.000695  0.992815  0.001
H  H71  1  0.66656298  0.35874622  0.61554416  1  0.112108  0.001921  0.120432  0.112209  0.000722  0.993423  0.001
H  H72  1  0.96252417  0.15988830  0.74065123  1  0.046631  0.000179  0.096816  0.100231  2.2e-05  1.017876  0.0
H  H73  1  0.94266682  0.14064997  0.85368646  1  0.092331  0.00211  0.119806  0.108693  0.000793  1.000322  0.001
H  H74  1  0.05797156  0.29463697  0.56553248  1  0.092309  0.00192  0.120791  0.111255  0.000695  0.992789  0.001
H  H75  1  0.83343611  0.14125357  0.61554371  1  0.112112  0.001922  0.120433  0.112201  0.000722  0.993401  0.001
H  H76  1  0.09321123  0.09321229  0.55915048  1  0.053281  0.000216  0.098762  0.105415  5.6e-05  1.009893  0.0
H  H77  1  0.40678754  0.40678859  0.55915094  1  0.053295  0.000216  0.098746  0.10539  5.6e-05  1.009958  0.0
H  H78  1  0.40678742  0.09321187  0.05915097  1  0.053291  0.000216  0.09872  0.105361  5.6e-05  1.010008  0.0
H  H79  1  0.09321190  0.40678868  0.05915089  1  0.053295  0.000216  0.098756  0.105388  5.6e-05  1.009959  0.0
H  H80  1  0.90678875  0.59321154  0.94084904  1  0.053288  0.000216  0.098768  0.105397  5.6e-05  1.009951  0.0
H  H81  1  0.59321259  0.90678705  0.94084896  1  0.053296  0.000216  0.09872  0.105355  5.6e-05  1.010016  0.0
H  H82  1  0.59321117  0.59321162  0.44084899  1  0.053297  0.000216  0.098749  0.105399  5.6e-05  1.009954  0.0
H  H83  1  0.90678813  0.90678728  0.44084896  1  0.053288  0.000216  0.098731  0.105366  5.6e-05  1.009999  0.0
C  C84  1  0.12119144  0.01098213  0.71490454  1  -0.027835  0.00566  -0.096665  -0.195502  0.00298  3.938315  0.004
C  C85  1  0.13412790  0.02300229  0.64658341  1  -0.040561  0.000309  -0.009948  0.102372  -0.000369  4.072326  0.0
C  C86  1  0.09041985  0.98963614  0.86441125  1  0.391837  0.019564  0.009617  -0.04928  0.011652  3.967589  0.015
C  C87  1  0.19432315  0.96857564  0.60863043  1  0.056532  0.016644  -0.03295  -0.028442  0.008495  4.079365  0.01
C  C88  1  0.26572797  0.99433034  0.57051885  1  0.371707  0.023918  0.008248  -0.05642  0.013995  3.981003  0.017
C  C89  1  0.18905135  0.87932123  0.59765212  1  0.343755  0.023854  0.006356  -0.059131  0.013969  3.982357  0.017
C  C90  1  0.37880866  0.48901866  0.71490447  1  -0.027858  0.00566  -0.096649  -0.195381  0.00298  3.938206  0.004
C  C91  1  0.36587219  0.47699918  0.64658384  1  -0.040588  0.000309  -0.00992  0.102411  -0.000369  4.0723  0.0
C  C92  1  0.40957858  0.51036420  0.86441086  1  0.392285  0.019559  0.009595  -0.049305  0.011652  3.967684  0.015
C  C93  1  0.30567717  0.53142421  0.60863101  1  0.056519  0.016645  -0.032938  -0.028417  0.008496  4.079335  0.01
C  C94  1  0.23427169  0.50567019  0.57051943  1  0.371749  0.023916  0.00827  -0.056404  0.013994  3.981023  0.017
C  C95  1  0.31094961  0.62067927  0.59765217  1  0.343746  0.023853  0.006341  -0.059177  0.013969  3.982342  0.017
C  C96  1  0.48901885  0.12119141  0.21490452  1  -0.027893  0.005661  -0.096669  -0.195451  0.00298  3.938383  0.004
C  C97  1  0.47699871  0.13412789  0.14658338  1  -0.040565  0.000309  -0.009947  0.102355  -0.000369  4.072342  0.0
C  C98  1  0.51036379  0.09042082  0.36441191  1  0.391751  0.019564  0.009598  -0.049288  0.011652  3.967697  0.015
C  C99  1  0.53142504  0.19432294  0.10863007  1  0.056545  0.016644  -0.032961  -0.028474  0.008495  4.079406  0.01
C  C100  1  0.50567039  0.26572777  0.07051798  1  0.371498  0.02392  0.008243  -0.056455  0.013995  3.981085  0.017
C  C101  1  0.62067945  0.18905055  0.09765225  1  0.343722  0.023854  0.006349  -0.059125  0.013969  3.982378  0.017
C  C102  1  0.01098050  0.37881034  0.21490444  1  -0.027894  0.00566  -0.096665  -0.195448  0.00298  3.938327  0.004
C  C103  1  0.02300127  0.36587325  0.14658331  1  -0.040573  0.000309  -0.009918  0.10241  -0.000369  4.072343  0.0
C  C104  1  0.98963590  0.40957848  0.36441138  1  0.392411  0.019558  0.009666  -0.049213  0.011651  3.967806  0.015
C  C105  1  0.96857589  0.30567716  0.10863057  1  0.056535  0.016644  -0.032922  -0.02838  0.008495  4.079307  0.01
C  C106  1  0.99433053  0.23427236  0.07051851  1  0.371806  0.023917  0.008237  -0.056433  0.013995  3.98098  0.017
C  C107  1  0.87932083  0.31094957  0.09765224  1  0.343735  0.023854  0.006323  -0.059196  0.013969  3.982374  0.017
C  C108  1  0.87880980  0.51098082  0.78509550  1  -0.027866  0.005661  -0.096665  -0.195451  0.00298  3.938312  0.004
C  C109  1  0.86587270  0.52300093  0.85341663  1  -0.040563  0.000309  -0.009903  0.102434  -0.000369  4.072334  0.0
C  C110  1  0.90957903  0.48963658  0.63558862  1  0.391926  0.019565  0.009622  -0.049243  0.011653  3.967646  0.015
C  C111  1  0.80567701  0.46857587  0.89136945  1  0.056529  0.016644  -0.032968  -0.028518  0.008496  4.079424  0.01
C  C112  1  0.73427220  0.49433051  0.92948152  1  0.371807  0.023917  0.008241  -0.056407  0.013995  3.980972  0.017
C  C113  1  0.81094877  0.37932082  0.90234779  1  0.343745  0.023854  0.00633  -0.059161  0.013969  3.982345  0.017
C  C114  1  0.62119151  0.98901916  0.78509540  1  -0.027901  0.00566  -0.096648  -0.195366  0.00298  3.938365  0.004
C  C115  1  0.63412733  0.97699901  0.85341604  1  -0.040556  0.000309  -0.009951  0.102328  -0.000369  4.072347  0.0
C  C116  1  0.59042072  0.01036320  0.63558770  1  0.391749  0.019564  0.009663  -0.049203  0.011652  3.967667  0.015
C  C117  1  0.69432408  0.03142439  0.89136952  1  0.056537  0.016644  -0.032964  -0.028492  0.008496  4.079448  0.01
C  C118  1  0.76572761  0.00566973  0.92948111  1  0.371717  0.023916  0.008302  -0.056317  0.013994  3.98116  0.017
C  C119  1  0.68905104  0.12067944  0.90234783  1  0.343744  0.023854  0.006355  -0.059127  0.013969  3.982291  0.017
C  C120  1  0.51098104  0.62119121  0.28509543  1  -0.027906  0.00566  -0.096662  -0.19545  0.00298  3.938397  0.004
C  C121  1  0.52300054  0.63412766  0.35341607  1  -0.040575  0.000309  -0.009918  0.102407  -0.000369  4.072348  0.0
C  C122  1  0.48963544  0.59041942  0.13558855  1  0.392087  0.019564  0.009648  -0.049242  0.011652  3.967601  0.015
C  C123  1  0.46857553  0.69432331  0.39136936  1  0.056531  0.016644  -0.032933  -0.028433  0.008495  4.079367  0.01
C  C124  1  0.49433022  0.76572812  0.42948143  1  0.371397  0.023922  0.008262  -0.056435  0.013995  3.981019  0.017
C  C125  1  0.37932112  0.68905151  0.40234818  1  0.343748  0.023854  0.006346  -0.05912  0.013969  3.982312  0.017
C  C126  1  0.98901951  0.87880907  0.28509591  1  -0.027898  0.005661  -0.096645  -0.19541  0.00298  3.938304  0.004
C  C127  1  0.97699938  0.86587259  0.35341655  1  -0.040588  0.000309  -0.009953  0.102364  -0.000369  4.072396  0.0
C  C128  1  0.01036348  0.90957943  0.13558896  1  0.391814  0.019565  0.009651  -0.049197  0.011652  3.967671  0.015
C  C129  1  0.03142409  0.80567668  0.39136931  1  0.056519  0.016645  -0.03296  -0.028468  0.008496  4.079382  0.01
C  C130  1  0.00567006  0.73427184  0.42948090  1  0.371735  0.023916  0.008269  -0.056412  0.013994  3.981058  0.017
C  C131  1  0.12067915  0.81094912  0.40234764  1  0.343742  0.023853  0.006344  -0.059154  0.013969  3.982302  0.017
C  C132  1  0.87880921  0.98901873  0.28509589  1  -0.02789  0.00566  -0.096635  -0.195375  0.00298  3.938259  0.004
C  C133  1  0.86587211  0.97699857  0.35341652  1  -0.040564  0.000309  -0.00994  0.10236  -0.000369  4.072258  0.0
C  C134  1  0.90957951  0.01036472  0.13558918  1  0.392305  0.019559  0.009626  -0.049247  0.011652  3.967661  0.015
C  C135  1  0.80567621  0.03142457  0.39136951  1  0.056532  0.016644  -0.033009  -0.028566  0.008496  4.079496  0.01
C  C136  1  0.73427203  0.00566988  0.42948158  1  0.371708  0.023917  0.008272  -0.05635  0.013995  3.981117  0.017
C  C137  1  0.81094865  0.12067898  0.40234732  1  0.343743  0.023854  0.006363  -0.059117  0.013969  3.982288  0.017
C  C138  1  0.62119005  0.51098027  0.28509546  1  -0.027899  0.00566  -0.09668  -0.195483  0.00298  3.938365  0.004
C  C139  1  0.63412652  0.52300103  0.35341709  1  -0.040576  0.000309  -0.00996  0.102405  -0.000369  4.072279  0.0
C  C140  1  0.59042013  0.48963472  0.13558908  1  0.391963  0.019563  0.009622  -0.049279  0.011652  3.967696  0.015
C  C141  1  0.69432284  0.46857536  0.39136942  1  0.056535  0.016644  -0.032985  -0.028552  0.008495  4.07939  0.01
C  C142  1  0.76572767  0.49433003  0.42948100  1  0.371719  0.023918  0.008258  -0.05639  0.013995  3.980969  0.017
C  C143  1  0.68905104  0.37932030  0.40234776  1  0.343742  0.023855  0.00637  -0.059048  0.013969  3.982268  0.017
C  C144  1  0.51098115  0.87881010  0.78509541  1  -0.027863  0.00566  -0.096684  -0.195461  0.00298  3.938393  0.004
C  C145  1  0.52300130  0.86587168  0.85341605  1  -0.040569  0.000309  -0.009939  0.102349  -0.000369  4.072403  0.0
C  C146  1  0.48963686  0.90957810  0.63558852  1  0.391692  0.019564  0.009689  -0.049199  0.011652  3.967714  0.015
C  C147  1  0.46857561  0.80567663  0.89136887  1  0.056563  0.016645  -0.032954  -0.028443  0.008496  4.079381  0.01
C  C148  1  0.49433026  0.73427180  0.92948146  1  0.371724  0.023917  0.008267  -0.056416  0.013995  3.981014  0.017
C  C149  1  0.37932120  0.81094902  0.90234769  1  0.343691  0.023854  0.00634  -0.059177  0.013969  3.982309  0.017
C  C150  1  0.98901951  0.62119052  0.78509599  1  -0.027899  0.00566  -0.096605  -0.195345  0.00298  3.938356  0.004
C  C151  1  0.97700003  0.63412761  0.85341662  1  -0.040591  0.000309  -0.009929  0.102382  -0.000369  4.072268  0.0
C  C152  1  0.01036346  0.59042109  0.63558805  1  0.391833  0.019564  0.009639  -0.049284  0.011652  3.967657  0.015
C  C153  1  0.03142412  0.69432370  0.89136936  1  0.056519  0.016645  -0.032984  -0.028541  0.008496  4.079504  0.01
C  C154  1  0.00567012  0.76572850  0.92948092  1  0.371726  0.023915  0.008295  -0.056357  0.013994  3.98122  0.017
C  C155  1  0.12067918  0.68905129  0.90234819  1  0.343755  0.023853  0.006361  -0.059114  0.013968  3.982266  0.017
C  C156  1  0.12119150  0.48901940  0.21490443  1  -0.027897  0.00566  -0.096652  -0.195402  0.00298  3.93825  0.004
C  C157  1  0.13412795  0.47699993  0.14658380  1  -0.040584  0.000309  -0.009917  0.102405  -0.000369  4.072229  0.0
C  C158  1  0.09042098  0.51036234  0.36441230  1  0.39171  0.019564  0.009689  -0.04915  0.011652  3.967627  0.015
C  C159  1  0.19432364  0.53142434  0.10863048  1  0.056529  0.016644  -0.032963  -0.028487  0.008496  4.079433  0.01
C  C160  1  0.26572845  0.50566970  0.07051891  1  0.371713  0.023917  0.008309  -0.056316  0.013994  3.981152  0.017
C  C161  1  0.18905124  0.62067940  0.09765214  1  0.343742  0.023854  0.006362  -0.059123  0.013969  3.982279  0.017
C  C162  1  0.37880914  0.01098170  0.21490453  1  -0.027853  0.00566  -0.096646  -0.195408  0.00298  3.938311  0.004
C  C163  1  0.36587203  0.02300121  0.14658390  1  -0.040579  0.000309  -0.009943  0.102347  -0.000369  4.072292  0.0
C  C164  1  0.40957864  0.98963637  0.36441174  1  0.391917  0.019565  0.009597  -0.049335  0.011653  3.967725  0.015
C  C165  1  0.30567657  0.96857518  0.10863091  1  0.056529  0.016643  -0.032964  -0.028465  0.008495  4.079378  0.01
C  C166  1  0.23427239  0.99433048  0.07051882  1  0.371711  0.023919  0.008239  -0.056477  0.013996  3.98106  0.017
C  C167  1  0.31094897  0.87932077  0.09765260  1  0.343743  0.023855  0.006373  -0.05908  0.01397  3.982299  0.017
C  C168  1  0.48901961  0.37880900  0.71490450  1  -0.027903  0.005661  -0.096623  -0.195353  0.00298  3.938354  0.004
C  C169  1  0.47699817  0.36587256  0.64658287  1  -0.040572  0.000309  -0.009941  0.102359  -0.000369  4.072423  0.0
C  C170  1  0.51036328  0.40958015  0.86441088  1  0.392316  0.019559  0.00963  -0.049291  0.011652  3.967657  0.015
C  C171  1  0.53142447  0.30567691  0.60863107  1  0.056528  0.016645  -0.03295  -0.028466  0.008496  4.079408  0.01
C  C172  1  0.50566979  0.23427209  0.57051851  1  0.371812  0.023917  0.008252  -0.056392  0.013995  3.98099  0.017
C  C173  1  0.62067953  0.31094806  0.59765374  1  0.343734  0.023854  0.006322  -0.059183  0.013969  3.982398  0.017
C  C174  1  0.01098178  0.12119179  0.71490452  1  -0.027853  0.00566  -0.096644  -0.195414  0.00298  3.938297  0.004
C  C175  1  0.02300127  0.13412827  0.64658338  1  -0.040578  0.000309  -0.009959  0.102325  -0.000369  4.072315  0.0
C  C176  1  0.98963587  0.09042078  0.86441147  1  0.391901  0.019564  0.00962  -0.049277  0.011652  3.967631  0.015
C  C177  1  0.96857527  0.19432354  0.60863062  1  0.056527  0.016645  -0.033011  -0.028563  0.008496  4.079496  0.01
C  C178  1  0.99432995  0.26572837  0.57051953  1  0.37173  0.023916  0.008308  -0.056287  0.013994  3.981091  0.017
C  C179  1  0.87932021  0.18905174  0.59765229  1  0.34375  0.023853  0.006381  -0.0591  0.013969  3.982311  0.017
C  C180  1  0.06034957  0.06035055  0.75032105  1  0.019936  -1.8e-05  -0.009339  0.101599  -0.00059  4.069418  0.0
C  C181  1  0.08562603  0.08562707  0.61281726  1  0.033919  0.006315  -0.097803  -0.202202  0.00339  3.951165  0.004
C  C182  1  0.04819632  0.04819727  0.82190313  1  0.025848  0.016282  -0.035665  -0.036133  0.008277  4.073936  0.01
C  C183  1  0.43965054  0.43965022  0.75032051  1  0.019948  -1.8e-05  -0.009361  0.101494  -0.00059  4.06936  0.0
C  C184  1  0.41437405  0.41437378  0.61281772  1  0.033929  0.006316  -0.097808  -0.202225  0.00339  3.951201  0.004
C  C185  1  0.45180251  0.45180410  0.82190308  1  0.025839  0.016282  -0.035669  -0.03611  0.008277  4.073997  0.01
C  C186  1  0.43965040  0.06035015  0.25032105  1  0.019935  -1.8e-05  -0.009304  0.101614  -0.00059  4.069511  0.0
C  C187  1  0.41437327  0.08562601  0.11281775  1  0.033938  0.006316  -0.097784  -0.202169  0.00339  3.951221  0.004
C  C188  1  0.45180301  0.04819687  0.32190313  1  0.025853  0.016283  -0.035675  -0.036168  0.008278  4.074055  0.01
C  C189  1  0.06034896  0.43965093  0.25032095  1  0.019933  -1.8e-05  -0.009343  0.101551  -0.00059  4.069243  0.0
C  C190  1  0.08562606  0.41437451  0.11281767  1  0.033944  0.006316  -0.097841  -0.202226  0.00339  3.95117  0.004
C  C191  1  0.04819571  0.45180158  0.32190353  1  0.025855  0.016282  -0.035696  -0.036189  0.008277  4.074041  0.01
C  C192  1  0.93965169  0.56034993  0.74967898  1  0.019932  -1.8e-05  -0.00936  0.101542  -0.00059  4.069449  0.0
C  C193  1  0.91437459  0.58562635  0.88718276  1  0.03394  0.006316  -0.097857  -0.20221  0.00339  3.951157  0.004
C  C194  1  0.95180364  0.54819735  0.67809690  1  0.025672  0.016282  -0.035669  -0.036151  0.008277  4.074056  0.01
C  C195  1  0.56034961  0.93965072  0.74967888  1  0.019931  -1.8e-05  -0.009354  0.101516  -0.00059  4.069407  0.0
C  C196  1  0.58562673  0.91437356  0.88718218  1  0.033928  0.006316  -0.097771  -0.202146  0.00339  3.951227  0.004
C  C197  1  0.54819699  0.95180205  0.67809630  1  0.026029  0.016282  -0.035665  -0.03615  0.008277  4.074022  0.01
C  C198  1  0.56034882  0.56034870  0.24967943  1  0.019951  -1.8e-05  -0.009313  0.101579  -0.00059  4.069285  0.0
C  C199  1  0.58562596  0.58562579  0.38718222  1  0.033933  0.006315  -0.097812  -0.202248  0.00339  3.951188  0.004
C  C200  1  0.54819684  0.54819482  0.17809635  1  0.025689  0.016282  -0.035639  -0.036068  0.008277  4.073826  0.01
C  C201  1  0.93965108  0.93965096  0.24967938  1  0.019943  -1.8e-05  -0.009351  0.101506  -0.00059  4.06928  0.0
C  C202  1  0.91437397  0.91437315  0.38718267  1  0.033927  0.006316  -0.097758  -0.202126  0.00339  3.9512  0.004
C  C203  1  0.95180239  0.95180424  0.17809730  1  0.025841  0.016282  -0.035697  -0.036163  0.008277  4.074022  0.01
N  N204  1  0.05911167  0.99651760  0.92687093  1  -0.848519  0.090215  -0.285156  -0.185612  0.046046  3.665291  0.057
N  N205  1  0.30049336  0.92524801  0.53928255  1  -0.783244  0.087907  -0.286339  -0.189116  0.04527  3.665605  0.056
N  N206  1  0.25259955  0.85395884  0.55574208  1  -0.778903  0.087094  -0.289651  -0.197108  0.044844  3.664386  0.055
N  N207  1  0.44088677  0.50348141  0.92687105  1  -0.848929  0.090223  -0.285149  -0.185612  0.046048  3.665314  0.057
N  N208  1  0.19950694  0.57475124  0.53928261  1  -0.783187  0.087901  -0.28634  -0.189129  0.04527  3.665648  0.056
N  N209  1  0.24740140  0.64604169  0.55574162  1  -0.778887  0.087094  -0.289673  -0.197115  0.044844  3.664375  0.055
N  N210  1  0.50348167  0.05911326  0.42687160  1  -0.729419  0.089195  -0.285208  -0.185685  0.046048  3.66537  0.057
N  N211  1  0.57475274  0.30049320  0.03928216  1  -0.782869  0.087897  -0.286361  -0.189071  0.04527  3.665693  0.056
N  N212  1  0.64604123  0.25259877  0.05574169  1  -0.778898  0.087094  -0.289631  -0.197107  0.044844  3.664407  0.055
N  N213  1  0.99651998  0.44088600  0.42687107  1  -0.848913  0.090221  -0.285175  -0.185656  0.046048  3.66544  0.057
N  N214  1  0.92524817  0.19950695  0.03928270  1  -0.783167  0.0879  -0.286338  -0.189126  0.04527  3.66563  0.056
N  N215  1  0.85395904  0.24740136  0.05574171  1  -0.778881  0.087094  -0.289662  -0.197132  0.044844  3.664435  0.055
N  N216  1  0.94088656  0.49651809  0.57312844  1  -0.729415  0.089193  -0.285207  -0.18568  0.046046  3.665353  0.057
N  N217  1  0.69950678  0.42524815  0.96071735  1  -0.78324  0.087907  -0.286343  -0.18912  0.04527  3.665599  0.056
N  N218  1  0.74740120  0.35395966  0.94425834  1  -0.778889  0.087094  -0.289632  -0.197096  0.044844  3.664422  0.055
N  N219  1  0.55911446  0.00348044  0.57312801  1  -0.729441  0.089194  -0.28522  -0.18569  0.046047  3.665504  0.057
N  N220  1  0.80049239  0.07475143  0.96071791  1  -0.783249  0.087907  -0.286363  -0.18916  0.045271  3.665748  0.056
N  N221  1  0.75259926  0.14604122  0.94425788  1  -0.778893  0.087093  -0.289646  -0.197115  0.044843  3.664427  0.055
N  N222  1  0.49651690  0.55911255  0.07312887  1  -0.729492  0.089195  -0.285198  -0.185665  0.046047  3.665361  0.057
N  N223  1  0.42524788  0.80049351  0.46071773  1  -0.782925  0.087904  -0.286397  -0.189121  0.04527  3.665647  0.056
N  N224  1  0.35395872  0.75259970  0.44425821  1  -0.778914  0.087094  -0.289636  -0.197107  0.044844  3.664376  0.055
N  N225  1  0.00348200  0.94088635  0.07312877  1  -0.729463  0.089193  -0.285194  -0.185668  0.046046  3.665395  0.057
N  N226  1  0.07475111  0.69950709  0.46071773  1  -0.783258  0.087907  -0.286381  -0.18915  0.045271  3.665714  0.056
N  N227  1  0.14604091  0.74740155  0.44425820  1  -0.778874  0.087093  -0.289625  -0.197075  0.044843  3.664394  0.055
N  N228  1  0.94088769  0.00348133  0.07312900  1  -0.848829  0.090221  -0.285122  -0.185563  0.046047  3.665238  0.057
N  N229  1  0.69950664  0.07475220  0.46071738  1  -0.783174  0.087903  -0.286306  -0.189069  0.04527  3.665614  0.056
N  N230  1  0.74740110  0.14604202  0.44425785  1  -0.778903  0.087093  -0.289678  -0.197169  0.044845  3.664414  0.055
N  N231  1  0.55911194  0.49651751  0.07312888  1  -0.848507  0.090217  -0.285128  -0.185557  0.046047  3.665229  0.057
N  N232  1  0.80049307  0.42524704  0.46071683  1  -0.783163  0.0879  -0.286328  -0.189099  0.04527  3.665657  0.056
N  N233  1  0.75259925  0.35395853  0.44425781  1  -0.778931  0.087095  -0.289668  -0.197175  0.044844  3.664458  0.055
N  N234  1  0.49651963  0.94088631  0.57312833  1  -0.848465  0.090216  -0.285191  -0.18562  0.046047  3.665401  0.057
N  N235  1  0.42524856  0.69950637  0.96071778  1  -0.783249  0.087906  -0.286395  -0.189155  0.04527  3.665654  0.056
N  N236  1  0.35395942  0.74740079  0.94425774  1  -0.778877  0.087095  -0.289627  -0.197082  0.044844  3.664363  0.055
N  N237  1  0.00348067  0.55911292  0.57312837  1  -0.84847  0.090217  -0.285144  -0.185531  0.046046  3.665253  0.057
N  N238  1  0.07475118  0.80049327  0.96071724  1  -0.783209  0.087902  -0.286342  -0.189123  0.045271  3.665736  0.056
N  N239  1  0.14604097  0.75259950  0.94425822  1  -0.778894  0.087093  -0.289649  -0.197121  0.044844  3.664386  0.055
N  N240  1  0.05911409  0.50348019  0.42687199  1  -0.729398  0.089192  -0.285215  -0.185654  0.046046  3.665477  0.057
N  N241  1  0.30049258  0.57475142  0.03928209  1  -0.78325  0.087908  -0.286388  -0.189177  0.045271  3.665727  0.056
N  N242  1  0.25259945  0.64604055  0.05574160  1  -0.778889  0.087094  -0.289646  -0.197122  0.044844  3.664418  0.055
N  N243  1  0.44088683  0.99651849  0.42687143  1  -0.848544  0.090217  -0.285161  -0.185545  0.046047  3.665289  0.057
N  N244  1  0.19950761  0.92524750  0.03928202  1  -0.78321  0.087907  -0.28634  -0.189084  0.04527  3.665696  0.056
N  N245  1  0.24740139  0.85395835  0.05574156  1  -0.77891  0.087094  -0.289667  -0.197153  0.044844  3.664435  0.055
N  N246  1  0.50348181  0.44088702  0.92687057  1  -0.729861  0.089199  -0.285153  -0.185566  0.046047  3.665327  0.057
N  N247  1  0.57475212  0.19950671  0.53928270  1  -0.783183  0.087901  -0.286337  -0.189137  0.04527  3.665661  0.056
N  N248  1  0.64604129  0.24740116  0.55574272  1  -0.778893  0.087094  -0.289639  -0.197083  0.044844  3.664417  0.055
N  N249  1  0.99651800  0.05911258  0.92687117  1  -0.729426  0.089194  -0.285172  -0.185607  0.046046  3.665312  0.057
N  N250  1  0.92524825  0.30049248  0.53928270  1  -0.783182  0.087902  -0.286353  -0.189201  0.045272  3.665707  0.056
N  N251  1  0.85395845  0.25259931  0.55574223  1  -0.778918  0.087093  -0.289667  -0.197081  0.044844  3.664381  0.055
