# generated using pymatgen
data_ZnH20C24NO10
_symmetry_space_group_name_H-M   'P 1'
_cell_length_a   14.67436098
_cell_length_b   15.88571490
_cell_length_c   17.89763020
_cell_angle_alpha   89.65100196
_cell_angle_beta   89.91408532
_cell_angle_gamma   89.54226568
_symmetry_Int_Tables_number   1
_chemical_formula_structural   ZnH20C24NO10
_chemical_formula_sum   'Zn2 H40 C48 N2 O20'
_cell_volume   4171.95023913
_cell_formula_units_Z   2
loop_
 _symmetry_equiv_pos_site_id
 _symmetry_equiv_pos_as_xyz
  1  'x, y, z'
loop_
 _atom_site_type_symbol
 _atom_site_label
 _atom_site_symmetry_multiplicity
 _atom_site_fract_x
 _atom_site_fract_y
 _atom_site_fract_z
 _atom_site_occupancy
 _atom_site_pbe_bader_charge
 _atom_site_pbe_bader_spin_density
 _atom_site_pbe_cm5_charge
 _atom_site_pbe_ddec_charge
 _atom_site_pbe_ddec_spin_density
 _atom_site_pbe_ddec_sum_bond_order
 _atom_site_pbe_magmom
Zn  Zn0  1  0.40617410  0.49781453  0.50030398  1  1.331622  0  0.695355  0.894219  0  2.435249  0
Zn  Zn1  1  0.59714637  0.50009803  0.49938696  1  1.320021  0  0.694569  0.893226  0  2.424917  0
H  H2  1  0.31132669  0.40403543  0.84612794  1  0.619785  0  0.329889  0.364399  0  0.892067  0
H  H3  1  0.65690158  0.85163406  0.53850026  1  0.591627  0  0.324325  0.355957  0  0.900218  0
H  H4  1  0.35335042  0.85344690  0.54643260  1  0.61969  0  0.325228  0.354435  0  0.899364  0
H  H5  1  0.65708641  0.14424473  0.54686691  1  0.593577  0  0.326713  0.360532  0  0.891213  0
H  H6  1  0.75411833  0.31108714  0.33476904  1  0.028902  0  0.088305  0.123723  0  1.00887  0
H  H7  1  0.85599432  0.26974491  0.29567994  1  0.010813  0  0.08764  0.113123  0  0.998216  0
H  H8  1  0.79855791  0.21313278  0.36716469  1  0.043069  0  0.09325  0.123216  0  0.992379  0
H  H9  1  0.93534975  0.28542827  0.42036974  1  0.033735  0  0.09037  0.077644  0  0.977747  0
H  H10  1  0.83395910  0.32542045  0.45982861  1  0.030071  0  0.089452  0.078465  0  0.980173  0
H  H11  1  0.83714217  0.44750510  0.36959537  1  0.061294  0  0.10104  0.106311  0  0.97857  0
H  H12  1  0.93836602  0.40817763  0.33011225  1  0.055073  0  0.102888  0.106925  0  0.983815  0
H  H13  1  0.68294942  0.41172950  0.14832291  1  0.617353  0  0.330011  0.364794  0  0.888982  0
H  H14  1  0.25541164  0.60581730  0.70866525  1  0.042241  0  0.089233  0.121276  0  0.993085  0
H  H15  1  0.15653551  0.63929580  0.75810163  1  -0.024288  0  0.086673  0.112121  0  0.999  0
H  H16  1  0.21237077  0.54334839  0.78273395  1  0.05413  0  0.091683  0.126139  0  1.003875  0
H  H17  1  0.07141114  0.51240818  0.70849932  1  0.014325  0  0.089802  0.077701  0  0.976679  0
H  H18  1  0.17013830  0.48065796  0.65979449  1  0.047162  0  0.087949  0.077754  0  0.987228  0
H  H19  1  0.16625872  0.61767628  0.58722126  1  0.015454  0  0.101144  0.10539  0  0.977205  0
H  H20  1  0.06562308  0.64685655  0.63405681  1  0.057908  0  0.102135  0.105607  0  0.986027  0
H  H21  1  0.74962964  0.69317541  0.65914341  1  0.028885  0  0.087314  0.122213  0  1.009683  0
H  H22  1  0.84986495  0.73260942  0.70097424  1  0.024023  0  0.08839  0.115186  0  0.995956  0
H  H23  1  0.79542460  0.79102256  0.62881222  1  0.049726  0  0.091488  0.123952  0  1.001697  0
H  H24  1  0.30806829  0.59704612  0.15668199  1  0.631242  0  0.329821  0.364028  0  0.89162  0
H  H25  1  0.93334204  0.71772332  0.57719151  1  0.042464  0  0.090612  0.078092  0  0.977426  0
H  H26  1  0.83366520  0.67790378  0.53618599  1  0.025429  0  0.089071  0.078425  0  0.980217  0
H  H27  1  0.83632938  0.55623414  0.62745269  1  0.054834  0  0.100869  0.105536  0  0.97806  0
H  H28  1  0.93686216  0.59509560  0.66707913  1  0.044662  0  0.10314  0.106902  0  0.983247  0
H  H29  1  0.25581712  0.39397825  0.28782234  1  0.043961  0  0.089409  0.12129  0  0.992293  0
H  H30  1  0.15674402  0.36160733  0.23908076  1  -0.008203  0  0.086321  0.111473  0  0.999541  0
H  H31  1  0.21177306  0.45713154  0.21429739  1  0.0587  0  0.091935  0.125827  0  1.003728  0
H  H32  1  0.07137240  0.48931275  0.28968191  1  0.041465  0  0.089817  0.078177  0  0.977044  0
H  H33  1  0.17025549  0.51954106  0.33797588  1  0.018769  0  0.088037  0.078342  0  0.987666  0
H  H34  1  0.16722138  0.38238631  0.41009734  1  0.058833  0  0.101552  0.105728  0  0.97724  0
H  H35  1  0.67878621  0.59647423  0.84969427  1  0.628343  0  0.329857  0.365188  0  0.889443  0
H  H36  1  0.06679939  0.35419545  0.36344352  1  0.056708  0  0.102004  0.105569  0  0.985193  0
H  H37  1  0.36418879  0.43409153  0.67928655  1  0.632037  0  0.30495  0.360462  0  0.959998  0
H  H38  1  0.63726210  0.44132643  0.31725054  1  0.627391  0  0.301928  0.356077  0  0.969443  0
H  H39  1  0.36178976  0.56330924  0.32285907  1  0.647325  0  0.305398  0.361483  0  0.958228  0
H  H40  1  0.63421848  0.56153409  0.68164526  1  0.629556  0  0.301294  0.35779  0  0.967721  0
H  H41  1  0.35288193  0.14596402  0.54717937  1  0.626824  0  0.326444  0.355733  0  0.896758  0
C  C42  1  0.50479497  0.33858157  0.50976838  1  1.693935  0  0.214088  0.664605  0  4.256257  0
C  C43  1  0.95415085  0.45687683  0.44070530  1  -0.015262  0  0.015617  0.059359  0  3.906706  0
C  C44  1  0.09380176  0.49996637  0.49904791  1  0.163033  0  0.010191  -0.063814  0  4.045023  0
C  C45  1  0.90958421  0.50152808  0.49865357  1  0.083409  0  0.01109  -0.063155  0  4.046776  0
C  C46  1  0.19041990  0.49861774  0.49949233  1  0.770843  0  0.250715  0.336848  0  3.968337  0
C  C47  1  0.81296347  0.50193348  0.49863741  1  0.787285  0  0.25076  0.33478  0  3.970336  0
C  C48  1  0.50021003  0.50077132  0.35270051  1  1.415876  0  0.21341  0.621059  0  4.126592  0
C  C49  1  0.50005853  0.49835934  0.64806236  1  1.430853  0  0.211295  0.616048  0  4.135607  0
C  C50  1  0.42148024  0.46498498  0.84676666  1  0.54007  0  0.064764  0.143169  0  4.088299  0
C  C51  1  0.56880980  0.46783835  0.15151288  1  0.502451  0  0.064649  0.144626  0  4.084197  0
C  C52  1  0.42050846  0.53803067  0.15470143  1  0.495239  0  0.064075  0.14315  0  4.088809  0
C  C53  1  0.50031562  0.65933133  0.50966617  1  1.671836  0  0.214098  0.664349  0  4.255711  0
C  C54  1  0.56695112  0.53814686  0.84811776  1  0.494834  0  0.065118  0.145376  0  4.084521  0
C  C55  1  0.42347504  0.46397426  0.76884561  1  0.484006  0  0.057641  0.166903  0  4.139455  0
C  C56  1  0.57164898  0.46808714  0.22943151  1  0.558881  0  0.057182  0.17127  0  4.132525  0
C  C57  1  0.42246952  0.53697094  0.23264231  1  0.556184  0  0.05802  0.166821  0  4.138526  0
C  C58  1  0.56982114  0.53597622  0.77024484  1  0.529026  0  0.056606  0.170975  0  4.133769  0
C  C59  1  0.49782793  0.49935784  0.72933766  1  0.067177  0  -0.059462  -0.291791  0  4.084767  0
C  C60  1  0.49815760  0.50200619  0.27135521  1  0.092717  0  -0.058842  -0.291814  0  4.079051  0
C  C61  1  0.49294337  0.50231551  0.88748365  1  0.27873  0  -0.010687  -0.031771  0  4.104919  0
C  C62  1  0.49332725  0.50308464  0.11302955  1  0.198321  0  -0.009554  -0.030897  0  4.105814  0
C  C63  1  0.49132784  0.50308552  0.96618597  1  -0.040166  0  -0.029515  -0.037923  0  4.063574  0
C  C64  1  0.50482171  0.82404111  0.53564756  1  -0.054574  0  -0.036677  -0.05216  0  4.208499  0
C  C65  1  0.49143217  0.50349853  0.03433347  1  -0.291955  0  -0.029115  -0.038794  0  4.063906  0
C  C66  1  0.42063901  0.95539789  0.54821054  1  0.583079  0  0.0742  0.170101  0  4.077044  0
C  C67  1  0.58988660  0.04216473  0.54682596  1  0.551992  0  0.073242  0.169999  0  4.077276  0
C  C68  1  0.42054943  0.04318775  0.54850786  1  0.518066  0  0.074756  0.170556  0  4.077329  0
C  C69  1  0.58992276  0.95442674  0.54522382  1  0.575322  0  0.073496  0.168272  0  4.07689  0
C  C70  1  0.50530315  0.91184583  0.54457836  1  0.193736  0  -0.032765  -0.113153  0  4.211395  0
C  C71  1  0.50509697  0.08581642  0.54614998  1  0.099478  0  -0.032662  -0.114387  0  4.210859  0
C  C72  1  0.89955168  0.41138100  0.38257433  1  -0.025513  0  -0.157054  -0.210978  0  3.965905  0
C  C73  1  0.87299674  0.32172488  0.40729119  1  -0.025424  0  -0.160754  -0.086081  0  3.95957  0
C  C74  1  0.81729886  0.27650803  0.34800986  1  -0.042537  0  -0.241232  -0.35524  0  3.959319  0
C  C75  1  0.50482990  0.17377547  0.53756706  1  -0.563628  0  -0.036747  -0.051016  0  4.208776  0
C  C76  1  0.10435854  0.59220427  0.61354993  1  0.0027  0  -0.157417  -0.211776  0  3.971044  0
C  C77  1  0.13294093  0.53638663  0.68041655  1  -0.030495  0  -0.161038  -0.086506  0  3.958671  0
C  C78  1  0.19242944  0.58392185  0.73560713  1  -0.028064  0  -0.243086  -0.355707  0  3.962206  0
C  C79  1  0.89848700  0.59190944  0.61451952  1  -0.032545  0  -0.156819  -0.209688  0  3.965861  0
C  C80  1  0.87120734  0.68157361  0.58933755  1  -0.039382  0  -0.160145  -0.085319  0  3.958905  0
C  C81  1  0.81324686  0.72703835  0.64768030  1  -0.059863  0  -0.2418  -0.356834  0  3.954265  0
C  C82  1  0.10511291  0.40844765  0.38402375  1  -0.034263  0  -0.157395  -0.212043  0  3.969474  0
C  C83  1  0.13313224  0.46439584  0.31726770  1  -0.030207  0  -0.161313  -0.088615  0  3.960216  0
C  C84  1  0.19246331  0.41656417  0.26147107  1  -0.050947  0  -0.242736  -0.354292  0  3.963183  0
C  C85  1  0.50421585  0.24964290  0.52543802  1  0.210507  0  -0.039739  -0.180241  0  3.95138  0
C  C86  1  0.50287042  0.74827639  0.52399614  1  -0.309217  0  -0.039248  -0.178269  0  3.951694  0
C  C87  1  0.04971059  0.45459087  0.44183176  1  0.052865  0  0.01642  0.062444  0  3.905595  0
C  C88  1  0.95374685  0.54564969  0.55665449  1  0.05675  0  0.015504  0.059821  0  3.908624  0
C  C89  1  0.04930576  0.54642126  0.55588685  1  0.040989  0  0.015985  0.060818  0  3.908732  0
N  N90  1  0.73380869  0.50204923  0.49865452  1  -1.142239  0  -0.296  -0.32671  0  3.132463  0
N  N91  1  0.26956007  0.49722135  0.49992489  1  -1.195088  0  -0.297194  -0.328823  0  3.133373  0
O  O92  1  0.43079171  0.37159315  0.48597582  1  -1.141366  0  -0.318966  -0.549171  0  2.248228  0
O  O93  1  0.63899040  0.43310664  0.11168426  1  -1.117287  0  -0.353285  -0.421379  0  2.258618  0
O  O94  1  0.34798720  0.57364785  0.11808745  1  -1.132624  0  -0.354529  -0.42548  0  2.261922  0
O  O95  1  0.63577751  0.57521250  0.88695813  1  -1.130136  0  -0.353661  -0.422308  0  2.259655  0
O  O96  1  0.35192411  0.42606313  0.73405962  1  -1.154744  0  -0.370156  -0.469694  0  2.297942  0
O  O97  1  0.64717392  0.43303389  0.26226807  1  -1.156029  0  -0.373342  -0.477293  0  2.30421  0
O  O98  1  0.34943547  0.57261201  0.26830692  1  -1.169562  0  -0.368833  -0.468186  0  2.298965  0
O  O99  1  0.64383194  0.57167753  0.73643103  1  -1.159475  0  -0.37418  -0.479356  0  2.299695  0
O  O100  1  0.33960926  0.08565276  0.54899714  1  -1.126062  0  -0.346301  -0.402852  0  2.254652  0
O  O101  1  0.67075080  0.91166741  0.54255220  1  -1.099639  0  -0.346858  -0.411466  0  2.262423  0
O  O102  1  0.33983677  0.91388561  0.54857475  1  -1.118591  0  -0.346137  -0.402462  0  2.256294  0
O  O103  1  0.57385239  0.62555205  0.48568008  1  -1.139068  0  -0.318053  -0.546434  0  2.256549  0
O  O104  1  0.67068269  0.08378567  0.54596015  1  -1.097136  0  -0.347282  -0.409522  0  2.250404  0
O  O105  1  0.42485371  0.62281167  0.52271405  1  -1.143253  0  -0.316519  -0.547846  0  2.258963  0
O  O106  1  0.58007711  0.37590397  0.52160577  1  -1.135487  0  -0.316107  -0.544344  0  2.267928  0
O  O107  1  0.42810332  0.52418166  0.38878198  1  -1.169481  0  -0.311147  -0.55592  0  2.34812  0
O  O108  1  0.57216646  0.52398364  0.61371828  1  -1.167383  0  -0.309373  -0.554813  0  2.332174  0
O  O109  1  0.42928581  0.47191783  0.61268163  1  -1.169894  0  -0.311101  -0.55548  0  2.351162  0
O  O110  1  0.57352586  0.47626811  0.38647445  1  -1.171854  0  -0.309991  -0.553864  0  2.3284  0
O  O111  1  0.35034534  0.42890469  0.88423118  1  -1.11629  0  -0.355411  -0.426116  0  2.261923  0
