# generated using pymatgen
data_CdH6C8(N2O)2
_symmetry_space_group_name_H-M   'P 1'
_cell_length_a   8.73382692
_cell_length_b   8.73379981
_cell_length_c   12.18083725
_cell_angle_alpha   90.00042689
_cell_angle_beta   90.00002394
_cell_angle_gamma   96.26186547
_symmetry_Int_Tables_number   1
_chemical_formula_structural   CdH6C8(N2O)2
_chemical_formula_sum   'Cd4 H24 C32 N16 O8'
_cell_volume   923.60461521
_cell_formula_units_Z   4
loop_
 _symmetry_equiv_pos_site_id
 _symmetry_equiv_pos_as_xyz
  1  'x, y, z'
loop_
 _atom_site_type_symbol
 _atom_site_label
 _atom_site_symmetry_multiplicity
 _atom_site_fract_x
 _atom_site_fract_y
 _atom_site_fract_z
 _atom_site_occupancy
 _atom_site_hle17_bader_spin_density
 _atom_site_hle17_ddec_charge
 _atom_site_hle17_ddec_spin_density
 _atom_site_hle17_ddec_sum_bond_order
 _atom_site_hle17_magmom
 _atom_site_hse06_10hf_bader_spin_density
 _atom_site_hse06_10hf_ddec_charge
 _atom_site_hse06_10hf_ddec_spin_density
 _atom_site_hse06_10hf_ddec_sum_bond_order
 _atom_site_hse06_10hf_magmom
 _atom_site_hse06_bader_spin_density
 _atom_site_hse06_ddec_charge
 _atom_site_hse06_ddec_spin_density
 _atom_site_hse06_ddec_sum_bond_order
 _atom_site_hse06_magmom
 _atom_site_pbe_bader_spin_density
 _atom_site_pbe_cm5_charge
 _atom_site_pbe_ddec_charge
 _atom_site_pbe_ddec_spin_density
 _atom_site_pbe_ddec_sum_bond_order
 _atom_site_pbe_magmom
Cd  Cd0  1  0.00000009  0.49999880  0.76130713  1  0  1.084974  0  1.751849  0  0  0.896485  0  2.206716  0  0  0.951847  0  2.158245  0  0  0.776379  0.857432  0  2.239618  0
Cd  Cd1  1  0.50000093  0.00000009  0.26130560  1  0  1.084941  0  1.75188  0  0  0.896449  0  2.206753  0  0  0.951815  0  2.158281  0  0  0.776368  0.857402  0  2.239663  0
Cd  Cd2  1  0.99999488  0.00000045  0.15785712  1  0  1.09446  0  1.656258  0  0  0.886621  0  2.093531  0  0  0.939071  0  2.052006  0  0  0.80718  0.849597  0  2.121778  0
Cd  Cd3  1  0.99999939  0.99999795  0.65785663  1  0  1.09448  0  1.656235  0  0  0.886662  0  2.093481  0  0  0.93911  0  2.051959  0  0  0.807194  0.84964  0  2.121726  0
H  H4  1  0.59524418  0.29592910  0.42371642  1  0  0.090704  0  0.966156  0  0  0.103213  0  1.025091  0  0  0.105612  0  1.023847  0  0  0.109844  0.10148  0  1.026075  0
H  H5  1  0.40475767  0.70406988  0.42371503  1  0  0.090697  0  0.966158  0  0  0.103208  0  1.02509  0  0  0.105607  0  1.023846  0  0  0.109832  0.101474  0  1.026072  0
H  H6  1  0.70407010  0.40475806  0.92371602  1  0  0.090713  0  0.966154  0  0  0.103224  0  1.025079  0  0  0.105622  0  1.023837  0  0  0.109845  0.101491  0  1.026063  0
H  H7  1  0.29592906  0.59524498  0.92371647  1  0  0.090661  0  0.966146  0  0  0.103175  0  1.025084  0  0  0.105573  0  1.023842  0  0  0.10984  0.101443  0  1.026068  0
H  H8  1  0.75814036  0.26227833  0.61707991  1  0  0.106274  0  0.971195  0  0  0.116105  0  1.032734  0  0  0.118906  0  1.030778  0  0  0.111065  0.114068  0  1.034198  0
H  H9  1  0.24185848  0.73772378  0.61707865  1  0  0.106273  0  0.971195  0  0  0.116104  0  1.032737  0  0  0.118906  0  1.03078  0  0  0.11105  0.114069  0  1.034205  0
H  H10  1  0.73772127  0.24186084  0.11707810  1  0  0.106252  0  0.971143  0  0  0.116071  0  1.032718  0  0  0.118872  0  1.030762  0  0  0.111042  0.114013  0  1.034204  0
H  H11  1  0.26227413  0.75814517  0.11707859  1  0  0.106211  0  0.971272  0  0  0.116101  0  1.032745  0  0  0.118903  0  1.030788  0  0  0.11105  0.114065  0  1.034215  0
H  H12  1  0.82542413  0.48159435  0.39295881  1  0  0.113069  0  0.967273  0  0  0.121831  0  1.030819  0  0  0.123998  0  1.030817  0  0  0.122405  0.120252  0  1.030933  0
H  H13  1  0.17457871  0.51840317  0.39295963  1  0  0.113034  0  0.967205  0  0  0.121775  0  1.030777  0  0  0.123941  0  1.030779  0  0  0.122401  0.120197  0  1.030895  0
H  H14  1  0.51840372  0.17457567  0.89296051  1  0  0.11304  0  0.967223  0  0  0.121799  0  1.030781  0  0  0.123967  0  1.030779  0  0  0.1224  0.120223  0  1.030902  0
H  H15  1  0.48159578  0.82541900  0.89295569  1  0  0.113028  0  0.967203  0  0  0.121764  0  1.030791  0  0  0.12393  0  1.030793  0  0  0.122392  0.120187  0  1.030913  0
H  H16  1  0.97687076  0.63736137  0.21755751  1  0  0.095597  0  0.969173  0  0  0.106015  0  1.029495  0  0  0.108202  0  1.029033  0  0  0.114467  0.104411  0  1.029963  0
H  H17  1  0.02313199  0.36263660  0.21755827  1  0  0.095621  0  0.969191  0  0  0.106067  0  1.029464  0  0  0.108253  0  1.029003  0  0  0.114485  0.104461  0  1.029929  0
H  H18  1  0.36263611  0.02312624  0.71755835  1  0  0.095633  0  0.969183  0  0  0.106038  0  1.029514  0  0  0.108232  0  1.029043  0  0  0.114482  0.104435  0  1.02998  0
H  H19  1  0.63736133  0.97687230  0.71755931  1  0  0.095623  0  0.969187  0  0  0.106029  0  1.029515  0  0  0.108235  0  1.02903  0  0  0.114476  0.104425  0  1.029984  0
H  H20  1  0.59958919  0.58925680  0.51989779  1  0  0.100801  0  0.925553  0  0  0.115442  0  0.983813  0  0  0.117465  0  0.981754  0  0  0.116844  0.11391  0  0.985452  0
H  H21  1  0.40040960  0.41074544  0.51989728  1  0  0.100798  0  0.925549  0  0  0.115453  0  0.983787  0  0  0.117479  0  0.981722  0  0  0.116846  0.113921  0  0.985426  0
H  H22  1  0.41074087  0.40041164  0.01989961  1  0  0.100795  0  0.92558  0  0  0.11543  0  0.983825  0  0  0.117454  0  0.981763  0  0  0.116845  0.113898  0  0.985465  0
H  H23  1  0.58925612  0.59958762  0.01989442  1  0  0.100777  0  0.925544  0  0  0.115428  0  0.983799  0  0  0.117455  0  0.981733  0  0  0.116851  0.113896  0  0.985437  0
H  H24  1  0.64635204  0.78314492  0.56258915  1  0  0.109784  0  0.939335  0  0  0.119527  0  1.007052  0  0  0.121214  0  1.007288  0  0  0.121897  0.118297  0  1.006969  0
H  H25  1  0.35365266  0.21685901  0.56259004  1  0  0.10981  0  0.939332  0  0  0.119513  0  1.00708  0  0  0.121197  0  1.007316  0  0  0.121902  0.118284  0  1.006994  0
H  H26  1  0.21685483  0.35364964  0.06258946  1  0  0.109788  0  0.939322  0  0  0.119496  0  1.007061  0  0  0.12118  0  1.007298  0  0  0.121887  0.118268  0  1.006973  0
H  H27  1  0.78314191  0.64634662  0.06258622  1  0  0.109794  0  0.939269  0  0  0.119511  0  1.007015  0  0  0.121198  0  1.00725  0  0  0.121899  0.118281  0  1.006928  0
C  C28  1  0.66542680  0.20707341  0.44901823  1  0  -0.025854  0  3.799031  0  0  -0.056662  0  4.062418  0  0  -0.056016  0  4.084403  0  0  -0.023854  -0.057104  0  4.047457  0
C  C29  1  0.33457405  0.79292697  0.44901647  1  0  -0.025828  0  3.799053  0  0  -0.056635  0  4.062436  0  0  -0.055988  0  4.08442  0  0  -0.023827  -0.057078  0  4.047476  0
C  C30  1  0.79292492  0.33457243  0.94901624  1  0  -0.025795  0  3.799059  0  0  -0.0566  0  4.062434  0  0  -0.055952  0  4.084422  0  0  -0.023832  -0.057053  0  4.047477  0
C  C31  1  0.20707188  0.66542968  0.94901704  1  0  -0.025738  0  3.798941  0  0  -0.056544  0  4.062333  0  0  -0.055897  0  4.08432  0  0  -0.023816  -0.05699  0  4.047378  0
C  C32  1  0.25514276  0.81159562  0.54534650  1  0  -0.001243  0  3.757362  0  0  -0.032423  0  4.015593  0  0  -0.029319  0  4.034879  0  0  -0.018547  -0.034467  0  4.002524  0
C  C33  1  0.74485689  0.18840345  0.54534655  1  0  -0.001191  0  3.75746  0  0  -0.032365  0  4.015685  0  0  -0.029262  0  4.034976  0  0  -0.018496  -0.034412  0  4.002614  0
C  C34  1  0.18840221  0.74485943  0.04534702  1  0  -0.001198  0  3.75738  0  0  -0.032424  0  4.015596  0  0  -0.029319  0  4.034881  0  0  -0.018543  -0.034472  0  4.002538  0
C  C35  1  0.81159515  0.25514355  0.04534416  1  0  -0.001234  0  3.757508  0  0  -0.032412  0  4.015747  0  0  -0.02931  0  4.035038  0  0  -0.018543  -0.034438  0  4.002688  0
C  C36  1  0.22185996  0.00217363  0.43526240  1  0  0.244362  0  3.831294  0  0  0.217384  0  4.105296  0  0  0.228967  0  4.122473  0  0  0.186509  0.209627  0  4.093469  0
C  C37  1  0.77814076  0.99782545  0.43526270  1  0  0.244406  0  3.831321  0  0  0.217429  0  4.105347  0  0  0.229014  0  4.122521  0  0  0.186532  0.209671  0  4.093514  0
C  C38  1  0.99782496  0.77814308  0.93526061  1  0  0.244399  0  3.831343  0  0  0.217392  0  4.105388  0  0  0.22897  0  4.12257  0  0  0.186486  0.209638  0  4.093547  0
C  C39  1  0.00217536  0.22186009  0.93526225  1  0  0.244429  0  3.831305  0  0  0.217445  0  4.105296  0  0  0.22903  0  4.122469  0  0  0.186519  0.209686  0  4.093464  0
C  C40  1  0.82329432  0.85435388  0.38953476  1  0  0.235862  0  3.701341  0  0  0.201285  0  3.97455  0  0  0.215228  0  3.987008  0  0  0.220621  0.192013  0  3.966025  0
C  C41  1  0.17670589  0.14564012  0.38953358  1  0  0.235892  0  3.701289  0  0  0.201343  0  3.974449  0  0  0.215288  0  3.986906  0  0  0.220604  0.192052  0  3.965948  0
C  C42  1  0.14564311  0.17670417  0.88953377  1  0  0.235787  0  3.701507  0  0  0.201281  0  3.974611  0  0  0.215224  0  3.987066  0  0  0.220596  0.192001  0  3.966095  0
C  C43  1  0.85435692  0.82329622  0.88953315  1  0  0.235914  0  3.701327  0  0  0.201379  0  3.974485  0  0  0.215325  0  3.986941  0  0  0.220652  0.192104  0  3.965959  0
C  C44  1  0.84004680  0.60269950  0.37131120  1  0  -0.039723  0  3.661575  0  0  -0.08052  0  3.917377  0  0  -0.077797  0  3.934959  0  0  0.006728  -0.082335  0  3.905633  0
C  C45  1  0.15995463  0.39729547  0.37130972  1  0  -0.03954  0  3.66143  0  0  -0.080316  0  3.917243  0  0  -0.077592  0  3.934825  0  0  0.006773  -0.082134  0  3.905505  0
C  C46  1  0.39729806  0.15995261  0.87131088  1  0  -0.039601  0  3.661498  0  0  -0.080396  0  3.917296  0  0  -0.077671  0  3.93488  0  0  0.006787  -0.082214  0  3.905559  0
C  C47  1  0.60270287  0.84004530  0.87130863  1  0  -0.039555  0  3.661444  0  0  -0.080329  0  3.917238  0  0  -0.077606  0  3.934824  0  0  0.006784  -0.082151  0  3.905508  0
C  C48  1  0.91496791  0.68096295  0.28590596  1  0  -0.002256  0  3.77684  0  0  -0.034209  0  4.042186  0  0  -0.03293  0  4.06254  0  0  -0.006649  -0.035111  0  4.028464  0
C  C49  1  0.08503370  0.31903457  0.28590486  1  0  -0.002384  0  3.776919  0  0  -0.034353  0  4.042265  0  0  -0.033072  0  4.062618  0  0  -0.006675  -0.035251  0  4.028536  0
C  C50  1  0.31903455  0.08503088  0.78590602  1  0  -0.002346  0  3.776967  0  0  -0.034283  0  4.042321  0  0  -0.033012  0  4.062669  0  0  -0.006691  -0.035185  0  4.028597  0
C  C51  1  0.68096311  0.91496954  0.78590502  1  0  -0.002317  0  3.77684  0  0  -0.034252  0  4.042172  0  0  -0.032991  0  4.062516  0  0  -0.006666  -0.03515  0  4.02845  0
C  C52  1  0.69503356  0.67879373  0.53552013  1  0  -0.143251  0  3.637509  0  0  -0.204287  0  3.887189  0  0  -0.204464  0  3.892909  0  0  -0.048743  -0.204075  0  3.883223  0
C  C53  1  0.30496733  0.32120640  0.53551828  1  0  -0.143272  0  3.637646  0  0  -0.204264  0  3.88728  0  0  -0.204436  0  3.892998  0  0  -0.048744  -0.204053  0  3.883312  0
C  C54  1  0.32120631  0.30496848  0.03551977  1  0  -0.143248  0  3.63766  0  0  -0.2042  0  3.887242  0  0  -0.204374  0  3.892961  0  0  -0.048741  -0.20399  0  3.883274  0
C  C55  1  0.67879186  0.69503097  0.03551677  1  0  -0.143174  0  3.637571  0  0  -0.204187  0  3.887231  0  0  -0.204361  0  3.892953  0  0  -0.048723  -0.203974  0  3.883258  0
C  C56  1  0.79802026  0.62438172  0.62557538  1  0  0.659157  0  3.902507  0  0  0.61366  0  4.198504  0  0  0.64643  0  4.193598  0  0  0.190001  0.591465  0  4.200929  0
C  C57  1  0.20197953  0.37561819  0.62557462  1  0  0.658998  0  3.90262  0  0  0.61352  0  4.198596  0  0  0.646286  0  4.193696  0  0  0.189902  0.591326  0  4.20102  0
C  C58  1  0.37561587  0.20198116  0.12557489  1  0  0.658949  0  3.902615  0  0  0.613434  0  4.198628  0  0  0.646204  0  4.193725  0  0  0.189866  0.591236  0  4.201059  0
C  C59  1  0.62438246  0.79801923  0.12557242  1  0  0.658954  0  3.902689  0  0  0.613464  0  4.198694  0  0  0.646227  0  4.193803  0  0  0.18985  0.59127  0  4.201119  0
N  N60  1  0.68670604  0.08678077  0.37997832  1  0  -0.443551  0  3.258517  0  0  -0.367568  0  3.535713  0  0  -0.389595  0  3.553912  0  0  -0.37649  -0.352318  0  3.522849  0
N  N61  1  0.31329677  0.91321662  0.37997802  1  0  -0.443492  0  3.258534  0  0  -0.367504  0  3.535704  0  0  -0.389533  0  3.55391  0  0  -0.376436  -0.352248  0  3.522835  0
N  N62  1  0.91321816  0.31329660  0.87997826  1  0  -0.443508  0  3.258467  0  0  -0.367528  0  3.535655  0  0  -0.389552  0  3.553849  0  0  -0.376431  -0.352268  0  3.522781  0
N  N63  1  0.08678332  0.68670716  0.87997749  1  0  -0.443541  0  3.258523  0  0  -0.367554  0  3.535722  0  0  -0.389578  0  3.553923  0  0  -0.376455  -0.352296  0  3.522849  0
N  N64  1  0.18376064  0.94423195  0.53663481  1  0  -0.444041  0  3.213989  0  0  -0.3631  0  3.490025  0  0  -0.384892  0  3.506002  0  0  -0.367561  -0.348046  0  3.478733  0
N  N65  1  0.81623807  0.05576931  0.53663580  1  0  -0.444035  0  3.214197  0  0  -0.363092  0  3.49023  0  0  -0.384887  0  3.506212  0  0  -0.367579  -0.348042  0  3.478941  0
N  N66  1  0.05576773  0.81624089  0.03663515  1  0  -0.444059  0  3.214055  0  0  -0.363113  0  3.490125  0  0  -0.384905  0  3.506104  0  0  -0.367541  -0.348063  0  3.478837  0
N  N67  1  0.94422962  0.18376200  0.03663441  1  0  -0.444082  0  3.214152  0  0  -0.363139  0  3.490192  0  0  -0.384934  0  3.506172  0  0  -0.367572  -0.348089  0  3.478899  0
N  N68  1  0.78131595  0.71252785  0.43504684  1  0  -0.058628  0  3.564634  0  0  0.028644  0  3.780269  0  0  0.014998  0  3.804761  0  0  -0.23408  0.037663  0  3.763664  0
N  N69  1  0.21868570  0.28746895  0.43504726  1  0  -0.0587  0  3.564616  0  0  0.028557  0  3.780241  0  0  0.014911  0  3.804731  0  0  -0.234119  0.037585  0  3.763636  0
N  N70  1  0.28747156  0.21868495  0.93504719  1  0  -0.058633  0  3.564699  0  0  0.028602  0  3.780304  0  0  0.014955  0  3.804795  0  0  -0.234094  0.037631  0  3.763693  0
N  N71  1  0.71252844  0.78131477  0.93504549  1  0  -0.05876  0  3.564728  0  0  0.028503  0  3.780363  0  0  0.014856  0  3.804853  0  0  -0.234111  0.037532  0  3.76375  0
N  N72  1  0.90379517  0.83622555  0.29735551  1  0  -0.409746  0  3.22015  0  0  -0.340794  0  3.500281  0  0  -0.361078  0  3.517165  0  0  -0.350924  -0.326755  0  3.488343  0
N  N73  1  0.09620750  0.16377096  0.29735604  1  0  -0.409721  0  3.220225  0  0  -0.340781  0  3.500342  0  0  -0.361065  0  3.517222  0  0  -0.350898  -0.326735  0  3.488401  0
N  N74  1  0.16377396  0.09620375  0.79735598  1  0  -0.409735  0  3.22034  0  0  -0.340817  0  3.500447  0  0  -0.361107  0  3.51735  0  0  -0.350916  -0.326776  0  3.488509  0
N  N75  1  0.83622717  0.90379684  0.79735579  1  0  -0.409754  0  3.220169  0  0  -0.340836  0  3.500319  0  0  -0.361119  0  3.517203  0  0  -0.350934  -0.326797  0  3.488381  0
O  O76  1  0.93861146  0.68229060  0.62600164  1  0  -0.658936  0  2.005322  0  0  -0.594528  0  2.260683  0  0  -0.624034  0  2.252344  0  0  -0.331904  -0.573906  0  2.265702  0
O  O77  1  0.06138855  0.31771163  0.62599970  1  0  -0.658906  0  2.005397  0  0  -0.594526  0  2.260785  0  0  -0.624031  0  2.252449  0  0  -0.331935  -0.573901  0  2.265799  0
O  O78  1  0.31771177  0.06138896  0.12599976  1  0  -0.65886  0  2.005359  0  0  -0.594472  0  2.260767  0  0  -0.623979  0  2.252429  0  0  -0.331898  -0.573844  0  2.265783  0
O  O79  1  0.68228645  0.93861028  0.12599807  1  0  -0.658851  0  2.005431  0  0  -0.594454  0  2.260808  0  0  -0.623958  0  2.252475  0  0  -0.331899  -0.573827  0  2.26582  0
O  O80  1  0.74019860  0.52350035  0.69243093  1  0  -0.618226  0  1.892199  0  0  -0.560694  0  2.11325  0  0  -0.586482  0  2.103835  0  0  -0.333482  -0.542717  0  2.11908  0
O  O81  1  0.25980464  0.47649917  0.69243320  1  0  -0.618068  0  1.892104  0  0  -0.560565  0  2.113166  0  0  -0.586352  0  2.103754  0  0  -0.333341  -0.542589  0  2.118998  0
O  O82  1  0.47649797  0.25980557  0.19243336  1  0  -0.618058  0  1.892101  0  0  -0.560536  0  2.113177  0  0  -0.586326  0  2.103765  0  0  -0.333334  -0.542553  0  2.119009  0
O  O83  1  0.52350151  0.74019440  0.19242973  1  0  -0.618104  0  1.892087  0  0  -0.560595  0  2.113163  0  0  -0.586382  0  2.103755  0  0  -0.333351  -0.542616  0  2.118993  0
