# generated using pymatgen
data_MgH6C12N2O3
_symmetry_space_group_name_H-M   'P 1'
_cell_length_a   6.94921296
_cell_length_b   35.74213883
_cell_length_c   35.73959211
_cell_angle_alpha   119.58671499
_cell_angle_beta   93.71509138
_cell_angle_gamma   93.71918528
_symmetry_Int_Tables_number   1
_chemical_formula_structural   MgH6C12N2O3
_chemical_formula_sum   'Mg6 H36 C72 N12 O18'
_cell_volume   7655.15793313
_cell_formula_units_Z   6
loop_
 _symmetry_equiv_pos_site_id
 _symmetry_equiv_pos_as_xyz
  1  'x, y, z'
loop_
 _atom_site_type_symbol
 _atom_site_label
 _atom_site_symmetry_multiplicity
 _atom_site_fract_x
 _atom_site_fract_y
 _atom_site_fract_z
 _atom_site_occupancy
 _atom_site_pbe_bader_charge
 _atom_site_pbe_bader_spin_density
 _atom_site_pbe_cm5_charge
 _atom_site_pbe_ddec_charge
 _atom_site_pbe_ddec_spin_density
 _atom_site_pbe_ddec_sum_bond_order
 _atom_site_pbe_magmom
Mg  Mg0  1  0.85344067  0.69344024  0.32873415  1  1.684388  0  0.912654  1.41151  0  1.319731  0
Mg  Mg1  1  0.52472750  0.67127313  0.36472794  1  1.686065  0  0.912569  1.411764  0  1.319019  0
Mg  Mg2  1  0.15995625  0.63528687  0.30656232  1  1.682821  0  0.912677  1.412122  0  1.318953  0
Mg  Mg3  1  0.14655842  0.30655976  0.67126585  1  1.684386  0  0.912665  1.411527  0  1.319697  0
Mg  Mg4  1  0.47527159  0.32872687  0.63527206  1  1.686063  0  0.912565  1.411747  0  1.319039  0
Mg  Mg5  1  0.84004284  0.36471313  0.69343769  1  1.682822  0  0.912682  1.412121  0  1.318957  0
H  H6  1  0.62214241  0.42007843  0.81560797  1  0.112522  0  0.108708  0.112979  0  1.031306  0
H  H7  1  0.08603021  0.43841401  0.87243334  1  0.093342  0  0.105689  0.106621  0  1.030929  0
H  H8  1  0.90389829  0.39195426  0.79919427  1  0.082242  0  0.106674  0.124805  0  1.018948  0
H  H9  1  0.95476525  0.42699269  0.91750916  1  0.077345  0  0.107542  0.111576  0  1.013271  0
H  H10  1  0.26031610  0.43842807  0.96446195  1  0.080651  0  0.104925  0.10788  0  0.987816  0
H  H11  1  0.46492085  0.48130869  0.03553355  1  0.112862  0  0.106592  0.111364  0  1.012363  0
H  H12  1  0.80650501  0.18438614  0.60446031  1  0.120715  0  0.10871  0.113324  0  1.03049  0
H  H13  1  0.21351613  0.12756489  0.56597817  1  0.083077  0  0.106072  0.106806  0  1.031978  0
H  H14  1  0.10466142  0.20081001  0.59277631  1  0.083485  0  0.106581  0.124783  0  1.018759  0
H  H15  1  0.03722837  0.08248908  0.50949276  1  0.078487  0  0.107518  0.111218  0  1.013143  0
H  H16  1  0.29587120  0.03554445  0.47396583  1  0.072711  0  0.105144  0.108302  0  0.98765  0
H  H17  1  0.42942485  0.96448347  0.44578231  1  0.110302  0  0.106894  0.112487  0  1.012078  0
H  H18  1  0.20210239  0.39553886  0.57992341  1  0.106634  0  0.10868  0.112905  0  1.030785  0
H  H19  1  0.64762769  0.43402212  0.56159143  1  0.0942  0  0.105684  0.106576  0  1.031617  0
H  H20  1  0.51195183  0.40722843  0.60803344  1  0.112628  0  0.106703  0.124821  0  1.018794  0
H  H21  1  0.52779835  0.49051092  0.57300227  1  0.101759  0  0.107646  0.111744  0  1.012505  0
H  H22  1  0.82190421  0.52603609  0.56157124  1  0.070956  0  0.105231  0.108246  0  0.987676  0
H  H23  1  0.98362267  0.55421348  0.51868805  1  0.115697  0  0.106567  0.112198  0  1.012053  0
H  H24  1  0.37785812  0.57992157  0.18439177  1  0.112529  0  0.108713  0.112987  0  1.031294  0
H  H25  1  0.91397032  0.56158599  0.12756668  1  0.093335  0  0.10568  0.10661  0  1.030941  0
H  H26  1  0.09610096  0.60804607  0.20080590  1  0.082247  0  0.106671  0.124798  0  1.018961  0
H  H27  1  0.04523384  0.57300732  0.08249085  1  0.077347  0  0.10752  0.111539  0  1.013283  0
H  H28  1  0.73968299  0.56157193  0.03553805  1  0.080655  0  0.104921  0.107883  0  0.987795  0
H  H29  1  0.53507840  0.51869163  0.96446662  1  0.112858  0  0.106607  0.111364  0  1.012352  0
H  H30  1  0.19349408  0.81561387  0.39553970  1  0.120706  0  0.108699  0.113305  0  1.030507  0
H  H31  1  0.78648440  0.87243512  0.43402186  1  0.083073  0  0.106072  0.106802  0  1.031976  0
H  H32  1  0.89533894  0.79918967  0.40722383  1  0.083472  0  0.106571  0.124779  0  1.018767  0
H  H33  1  0.96277217  0.91751092  0.49050726  1  0.078488  0  0.107521  0.111226  0  1.013157  0
H  H34  1  0.70412950  0.96445587  0.52603435  1  0.072723  0  0.105129  0.10829  0  0.987634  0
H  H35  1  0.57057568  0.03551653  0.55421771  1  0.110299  0  0.10689  0.112479  0  1.012093  0
H  H36  1  0.79789670  0.60446114  0.42007659  1  0.106633  0  0.108686  0.112904  0  1.030788  0
H  H37  1  0.35237139  0.56597789  0.43840858  1  0.094202  0  0.105683  0.106576  0  1.031619  0
H  H38  1  0.48804870  0.59277157  0.39196658  1  0.11263  0  0.106703  0.124838  0  1.018781  0
H  H39  1  0.47220218  0.50948908  0.42699804  1  0.101787  0  0.107658  0.11177  0  1.012485  0
H  H40  1  0.17809648  0.47396423  0.43842894  1  0.07096  0  0.10517  0.10822  0  0.987621  0
H  H41  1  0.01637658  0.44578684  0.48131212  1  0.115691  0  0.106568  0.112169  0  1.012053  0
C  C42  1  0.47909213  0.37626234  0.73341674  1  1.518849  0  0.240209  0.683092  0  4.116479  0
C  C43  1  0.36521740  0.38881369  0.77045726  1  -0.011577  0  -0.039248  -0.198555  0  3.959052  0
C  C44  1  0.46517254  0.41299077  0.81208124  1  -0.029509  0  -0.073175  -0.120686  0  3.93663  0
C  C45  1  0.36741612  0.42939157  0.84900478  1  0.350899  0  0.073331  0.137964  0  4.090547  0
C  C46  1  0.16297364  0.42341787  0.84378518  1  -0.036855  0  -0.070971  -0.093318  0  3.953419  0
C  C47  1  0.06158432  0.39801738  0.80312471  1  -0.005463  0  -0.107464  -0.215782  0  3.966613  0
C  C48  1  0.15772894  0.37880932  0.76538014  1  0.590439  0  0.101589  0.375883  0  4.056521  0
C  C49  1  0.73687945  0.47067961  0.93675801  1  0.386901  0  0.084304  0.172976  0  4.064534  0
C  C50  1  0.91181744  0.45687547  0.94349043  1  -0.072091  0  -0.077287  -0.191309  0  3.919349  0
C  C51  1  0.03134289  0.48056771  0.98311934  1  -0.011035  0  -0.004444  0.082458  0  4.001057  0
C  C52  1  0.21254904  0.46752122  0.99063726  1  0.044493  0  -0.081498  -0.108461  0  3.979075  0
C  C53  1  0.32621841  0.49105686  0.02959256  1  -0.138187  0  -0.086754  -0.144727  0  3.969489  0
C  C54  1  0.74563634  0.26656201  0.64284008  1  1.523761  0  0.239826  0.682698  0  4.117476  0
C  C55  1  0.59470878  0.22952324  0.61835806  1  -0.057275  0  -0.038223  -0.197272  0  3.958022  0
C  C56  1  0.65304859  0.18790218  0.60089653  1  -0.019259  0  -0.073669  -0.121842  0  3.936199  0
C  C57  1  0.51832570  0.15098122  0.58036614  1  0.415181  0  0.074082  0.138704  0  4.089866  0
C  C58  1  0.31910478  0.15621134  0.57962127  1  -0.129693  0  -0.071967  -0.094302  0  3.955985  0
C  C59  1  0.25840541  0.19687367  0.59490900  1  0.071757  0  -0.107387  -0.215558  0  3.967874  0
C  C60  1  0.39231922  0.23460650  0.61343884  1  0.586279  0  0.102056  0.376511  0  4.05691  0
C  C61  1  0.80002014  0.06323437  0.53392055  1  0.339004  0  0.08392  0.172618  0  4.06271  0
C  C62  1  0.96827765  0.05651092  0.51339819  1  -0.087209  0  -0.076939  -0.190321  0  3.91735  0
C  C63  1  0.04820494  0.01689092  0.49745633  1  0.042562  0  -0.004746  0.082015  0  4.001481  0
C  C64  1  0.22192202  0.00937756  0.47689539  1  -0.043503  0  -0.081685  -0.108529  0  3.979463  0
C  C65  1  0.29668967  0.97042735  0.46147889  1  -0.052501  0  -0.086907  -0.146369  0  3.969456  0
C  C66  1  0.10275714  0.35718103  0.62374085  1  1.515735  0  0.239671  0.681225  0  4.118965  0
C  C67  1  0.97638867  0.38165453  0.61117206  1  -0.014921  0  -0.038829  -0.197761  0  3.95821  0
C  C68  1  0.05222099  0.39911175  0.58701207  1  0.000819  0  -0.072839  -0.120339  0  3.935189  0
C  C69  1  0.93805629  0.41963381  0.57061368  1  0.353434  0  0.073559  0.138437  0  4.090322  0
C  C70  1  0.73959724  0.42038521  0.57659445  1  -0.065826  0  -0.07136  -0.093978  0  3.957323  0
C  C71  1  0.66355191  0.40508818  0.60195724  1  -0.022339  0  -0.107406  -0.21575  0  3.968843  0
C  C72  1  0.77887415  0.38654716  0.62115125  1  0.581677  0  0.101593  0.376035  0  4.056284  0
C  C73  1  0.26614856  0.46609768  0.52933485  1  0.36629  0  0.084263  0.173503  0  4.063644  0
C  C74  1  0.45494309  0.48660891  0.54311998  1  -0.057419  0  -0.077445  -0.191772  0  3.918888  0
C  C75  1  0.55076443  0.50254619  0.51943147  1  0.016488  0  -0.004467  0.082161  0  4.002546  0
C  C76  1  0.74504199  0.52309821  0.53246869  1  -0.031823  0  -0.08219  -0.108351  0  3.979496  0
C  C77  1  0.83520827  0.53850355  0.50892472  1  -0.061667  0  -0.086068  -0.14604  0  3.969799  0
C  C78  1  0.52090840  0.62373766  0.26658328  1  1.518931  0  0.240192  0.683086  0  4.116462  0
C  C79  1  0.63478169  0.61118631  0.22954275  1  -0.011582  0  -0.039231  -0.198555  0  3.95905  0
C  C80  1  0.53482799  0.58700923  0.18791850  1  -0.029513  0  -0.073179  -0.120679  0  3.936629  0
C  C81  1  0.63258441  0.57060843  0.15099524  1  0.350895  0  0.073326  0.137942  0  4.090621  0
C  C82  1  0.83702689  0.57658214  0.15621456  1  -0.036868  0  -0.070976  -0.093319  0  3.953435  0
C  C83  1  0.93841621  0.60198262  0.19687503  1  -0.005459  0  -0.10746  -0.215768  0  3.966613  0
C  C84  1  0.84227015  0.62119069  0.23461986  1  0.590455  0  0.101608  0.37592  0  4.056494  0
C  C85  1  0.26311964  0.52932040  0.06324199  1  0.386911  0  0.084303  0.173009  0  4.064537  0
C  C86  1  0.08818148  0.54312420  0.05650914  1  -0.072022  0  -0.077289  -0.191325  0  3.919349  0
C  C87  1  0.96865908  0.51943230  0.01688014  1  0.03796  0  -0.004431  0.082447  0  4.00104  0
C  C88  1  0.78745293  0.53247878  0.00936251  1  0.044516  0  -0.081505  -0.108477  0  3.979103  0
C  C89  1  0.67378213  0.50894314  0.97040746  1  -0.138187  0  -0.086771  -0.144722  0  3.969498  0
C  C90  1  0.25436275  0.73343799  0.35715992  1  1.523758  0  0.239823  0.682676  0  4.117539  0
C  C91  1  0.40529031  0.77047676  0.38164195  1  -0.057273  0  -0.038223  -0.197263  0  3.958036  0
C  C92  1  0.34695050  0.81209782  0.39910348  1  -0.019261  0  -0.073672  -0.121829  0  3.936184  0
C  C93  1  0.48167483  0.84901879  0.41963388  1  0.415198  0  0.07409  0.138703  0  4.089858  0
C  C94  1  0.68089575  0.84378866  0.42037931  1  -0.129697  0  -0.071954  -0.094262  0  3.955928  0
C  C95  1  0.74159512  0.80312633  0.40509159  1  0.071763  0  -0.107369  -0.215563  0  3.967899  0
C  C96  1  0.60767987  0.76539350  0.38656144  1  0.586286  0  0.10203  0.376459  0  4.057003  0
C  C97  1  0.19997895  0.93676564  0.46607917  1  0.339005  0  0.083892  0.172588  0  4.06273  0
C  C98  1  0.03172144  0.94348909  0.48660181  1  -0.087214  0  -0.076921  -0.1903  0  3.917413  0
C  C99  1  0.95179559  0.98310908  0.50254342  1  0.096224  0  -0.004728  0.082007  0  4.001524  0
C  C100  1  0.77807851  0.99062244  0.52310436  1  -0.043495  0  -0.081695  -0.108547  0  3.979425  0
C  C101  1  0.70330942  0.02957266  0.53852111  1  -0.052508  0  -0.08691  -0.146369  0  3.96944  0
C  C102  1  0.89724355  0.64281930  0.37625933  1  1.515738  0  0.239694  0.681337  0  4.118812  0
C  C103  1  0.02361203  0.61834580  0.38882813  1  -0.014926  0  -0.038797  -0.197695  0  3.95814  0
C  C104  1  0.94777971  0.60088858  0.41298811  1  0.00082  0  -0.07285  -0.120354  0  3.935206  0
C  C105  1  0.06194296  0.58036651  0.42938649  1  0.35344  0  0.073557  0.138403  0  4.090281  0
C  C106  1  0.26040329  0.57961479  0.42340557  1  -0.065826  0  -0.071378  -0.093968  0  3.957302  0
C  C107  1  0.33644718  0.59491183  0.39804277  1  -0.02233  0  -0.107424  -0.215805  0  3.968867  0
C  C108  1  0.22112494  0.61345284  0.37884876  1  0.581694  0  0.101621  0.376061  0  4.05624  0
C  C109  1  0.73385037  0.53390200  0.47066527  1  0.366296  0  0.084235  0.173452  0  4.063802  0
C  C110  1  0.54505600  0.51339110  0.45688031  1  -0.057468  0  -0.077426  -0.191771  0  3.918983  0
C  C111  1  0.44923466  0.49745381  0.48056881  1  -0.038503  0  -0.004499  0.082231  0  4.002492  0
C  C112  1  0.25495565  0.47690179  0.46753157  1  -0.031813  0  -0.08214  -0.108489  0  3.979377  0
C  C113  1  0.16479082  0.46149646  0.49107557  1  -0.061705  0  -0.08604  -0.145872  0  3.969637  0
N  N114  1  0.46087798  0.45299011  0.89153128  1  -0.472562  0  -0.154215  -0.134149  0  3.2854  0
N  N115  1  0.63512043  0.44523732  0.89518723  1  -0.525836  0  -0.161073  -0.154742  0  3.298866  0
N  N116  1  0.56924196  0.10846035  0.56144733  1  -0.510256  0  -0.154547  -0.134945  0  3.284377  0
N  N117  1  0.73985323  0.10480290  0.55005078  1  -0.497457  0  -0.160852  -0.153872  0  3.29577  0
N  N118  1  0.00787028  0.43855145  0.54701242  1  -0.475918  0  -0.154716  -0.135022  0  3.284949  0
N  N119  1  0.18987233  0.44995858  0.55476415  1  -0.514448  0  -0.16105  -0.154166  0  3.297896  0
N  N120  1  0.53912255  0.54700989  0.10846874  1  -0.472553  0  -0.154215  -0.134131  0  3.285392  0
N  N121  1  0.36487882  0.55476301  0.10481294  1  -0.525841  0  -0.161087  -0.15478  0  3.298816  0
N  N122  1  0.43075857  0.89153965  0.43855242  1  -0.51026  0  -0.154568  -0.13496  0  3.284368  0
N  N123  1  0.26014586  0.89519710  0.44994894  1  -0.497446  0  -0.16083  -0.153859  0  3.295727  0
N  N124  1  0.99213025  0.56144855  0.45298760  1  -0.47591  0  -0.154768  -0.135103  0  3.284831  0
N  N125  1  0.81012676  0.55004142  0.44523586  1  -0.514426  0  -0.161024  -0.154085  0  3.297792  0
O  O126  1  0.34311473  0.60919323  0.26108830  1  -1.245065  0  -0.354847  -0.644088  0  2.150601  0
O  O127  1  0.60724626  0.64996285  0.30500760  1  -1.305132  0  -0.404334  -0.768155  0  2.420461  0
O  O128  1  0.94761660  0.64683260  0.27291442  1  -1.307392  0  -0.436721  -0.765344  0  2.299843  0
O  O129  1  0.08206377  0.73893338  0.34810888  1  -1.245636  0  -0.354738  -0.644113  0  2.151577  0
O  O130  1  0.30220124  0.69501541  0.34497989  1  -1.290957  0  -0.404402  -0.768113  0  2.420744  0
O  O131  1  0.67466986  0.72709405  0.37391111  1  -1.305305  0  -0.437332  -0.766035  0  2.300849  0
O  O132  1  0.73402584  0.65188061  0.39081281  1  -1.250518  0  -0.354869  -0.643576  0  2.150739  0
O  O133  1  0.95731129  0.65502052  0.35003398  1  -1.288982  0  -0.404123  -0.767162  0  2.421271  0
O  O134  1  0.30074966  0.62610681  0.35320123  1  -1.307841  0  -0.437029  -0.765842  0  2.299866  0
O  O135  1  0.65688581  0.39080678  0.73891172  1  -1.245064  0  -0.354835  -0.644077  0  2.15063  0
O  O136  1  0.39275266  0.35003682  0.69499196  1  -1.305042  0  -0.404355  -0.768179  0  2.420471  0
O  O137  1  0.05238393  0.35316740  0.72708560  1  -1.307393  0  -0.436718  -0.765319  0  2.299872  0
O  O138  1  0.91793692  0.26106694  0.65189130  1  -1.245629  0  -0.354745  -0.644137  0  2.15153  0
O  O139  1  0.69779785  0.30498459  0.65502011  1  -1.290961  0  -0.404407  -0.768117  0  2.42073  0
O  O140  1  0.32532923  0.27290596  0.62608889  1  -1.305309  0  -0.437343  -0.766065  0  2.300822  0
O  O141  1  0.26597485  0.34811972  0.60918737  1  -1.250521  0  -0.354881  -0.643525  0  2.150789  0
O  O142  1  0.04268780  0.34497949  0.64996574  1  -1.288971  0  -0.404113  -0.767116  0  2.421337  0
O  O143  1  0.69925087  0.37389319  0.64679880  1  -1.307816  0  -0.437029  -0.765834  0  2.299883  0
