# generated using pymatgen
data_DyH15C11O6
_symmetry_space_group_name_H-M   'P 1'
_cell_length_a   8.18508338
_cell_length_b   10.72542453
_cell_length_c   14.76081293
_cell_angle_alpha   90.00016906
_cell_angle_beta   89.99999765
_cell_angle_gamma   90.00029378
_symmetry_Int_Tables_number   1
_chemical_formula_structural   DyH15C11O6
_chemical_formula_sum   'Dy4 H60 C44 O24'
_cell_volume   1295.82953913
_cell_formula_units_Z   4
loop_
 _symmetry_equiv_pos_site_id
 _symmetry_equiv_pos_as_xyz
  1  'x, y, z'
loop_
 _atom_site_type_symbol
 _atom_site_label
 _atom_site_symmetry_multiplicity
 _atom_site_fract_x
 _atom_site_fract_y
 _atom_site_fract_z
 _atom_site_occupancy
 _atom_site_hle17_bader_spin_density
 _atom_site_hle17_ddec_charge
 _atom_site_hle17_ddec_spin_density
 _atom_site_hle17_ddec_sum_bond_order
 _atom_site_hle17_magmom
 _atom_site_hse06_10hf_bader_spin_density
 _atom_site_hse06_10hf_ddec_charge
 _atom_site_hse06_10hf_ddec_spin_density
 _atom_site_hse06_10hf_ddec_sum_bond_order
 _atom_site_hse06_10hf_magmom
 _atom_site_hse06_bader_spin_density
 _atom_site_hse06_ddec_charge
 _atom_site_hse06_ddec_spin_density
 _atom_site_hse06_ddec_sum_bond_order
 _atom_site_hse06_magmom
 _atom_site_pbe_bader_spin_density
 _atom_site_pbe_cm5_charge
 _atom_site_pbe_ddec_charge
 _atom_site_pbe_ddec_spin_density
 _atom_site_pbe_ddec_sum_bond_order
 _atom_site_pbe_magmom
Dy  Dy0  1  0.07821123  0.19951953  0.00194455  1  0  2.266347  0  1.722653  0  0  2.129455  0  2.197336  0  0  2.248041  0  2.025841  0  0  1.561886  2.091122  0  2.233793  0
Dy  Dy1  1  0.42179190  0.80048578  0.50194340  1  0  2.266383  0  1.722665  0  0  2.129508  0  2.197339  0  0  2.248074  0  2.025855  0  0  1.561887  2.091188  0  2.233779  0
Dy  Dy2  1  0.92179135  0.69951359  0.49805529  1  0  2.266346  0  1.722772  0  0  2.129475  0  2.197484  0  0  2.248054  0  2.025975  0  0  1.561877  2.091152  0  2.233924  0
Dy  Dy3  1  0.57821011  0.30048637  0.99806120  1  0  2.266358  0  1.722697  0  0  2.129511  0  2.197335  0  0  2.248065  0  2.025883  0  0  1.561895  2.091155  0  2.23383  0
H  H4  1  0.27236188  0.17380127  0.30436079  1  0  0.090271  0  0.924259  0  0  0.101504  0  0.9804  0  0  0.103655  0  0.979432  0  0  0.104613  0.100102  0  0.980806  0
H  H5  1  0.22763390  0.82620061  0.80435631  1  0  0.090252  0  0.92426  0  0  0.101458  0  0.980402  0  0  0.103615  0  0.979432  0  0  0.104589  0.100053  0  0.980814  0
H  H6  1  0.72763076  0.67379800  0.19564305  1  0  0.090247  0  0.924241  0  0  0.101437  0  0.980378  0  0  0.103592  0  0.979407  0  0  0.104569  0.100035  0  0.980786  0
H  H7  1  0.77236584  0.32619514  0.69564021  1  0  0.090254  0  0.924216  0  0  0.101473  0  0.980362  0  0  0.103626  0  0.979392  0  0  0.104589  0.100068  0  0.980774  0
H  H8  1  0.18791044  0.46196473  0.17843172  1  0  0.095868  0  0.967676  0  0  0.116026  0  1.034512  0  0  0.117464  0  1.034437  0  0  0.087884  0.115035  0  1.034445  0
H  H9  1  0.31208901  0.53803757  0.67842594  1  0  0.095869  0  0.967727  0  0  0.116029  0  1.034548  0  0  0.117469  0  1.034471  0  0  0.087873  0.115039  0  1.034483  0
H  H10  1  0.81208291  0.96195857  0.32157545  1  0  0.095851  0  0.967671  0  0  0.116046  0  1.034476  0  0  0.117484  0  1.0344  0  0  0.08789  0.115056  0  1.034407  0
H  H11  1  0.68791490  0.03803415  0.82156657  1  0  0.095906  0  0.967645  0  0  0.116067  0  1.034478  0  0  0.117507  0  1.034403  0  0  0.087907  0.115079  0  1.034409  0
H  H12  1  0.35893026  0.51637422  0.23962963  1  0  0.110739  0  0.949209  0  0  0.133874  0  1.005996  0  0  0.135435  0  1.00603  0  0  0.092457  0.132752  0  1.005849  0
H  H13  1  0.14106919  0.48362553  0.73962441  1  0  0.110715  0  0.949225  0  0  0.133851  0  1.006004  0  0  0.135411  0  1.006038  0  0  0.092439  0.132733  0  1.005857  0
H  H14  1  0.64106377  0.01636944  0.26037795  1  0  0.110705  0  0.949226  0  0  0.133842  0  1.006029  0  0  0.135401  0  1.006065  0  0  0.092423  0.132721  0  1.005883  0
H  H15  1  0.85893527  0.98362303  0.76036973  1  0  0.110715  0  0.949328  0  0  0.133854  0  1.006113  0  0  0.135415  0  1.006148  0  0  0.092451  0.132735  0  1.005965  0
H  H16  1  0.15821163  0.56264712  0.27215838  1  0  0.111265  0  0.949388  0  0  0.133639  0  1.0084  0  0  0.135552  0  1.007978  0  0  0.093666  0.132322  0  1.008543  0
H  H17  1  0.34179148  0.43735649  0.77215374  1  0  0.111192  0  0.949537  0  0  0.133574  0  1.008539  0  0  0.135473  0  1.008133  0  0  0.093627  0.132257  0  1.008678  0
H  H18  1  0.84178393  0.06264112  0.22785065  1  0  0.111175  0  0.949622  0  0  0.133586  0  1.008573  0  0  0.135489  0  1.008163  0  0  0.093661  0.132269  0  1.008714  0
H  H19  1  0.65821511  0.93735121  0.72784099  1  0  0.111275  0  0.949411  0  0  0.133652  0  1.008416  0  0  0.135571  0  1.007987  0  0  0.093653  0.132333  0  1.008559  0
H  H20  1  0.43944697  0.01291685  0.89253893  1  0  0.03284  0  0.898848  0  0  0.043286  0  0.962334  0  0  0.04427  0  0.957339  0  0  0.128463  0.04269  0  0.965458  0
H  H21  1  0.06055491  0.98707979  0.39253567  1  0  0.032849  0  0.89892  0  0  0.043324  0  0.962369  0  0  0.044306  0  0.957377  0  0  0.128487  0.042726  0  0.965493  0
H  H22  1  0.56055677  0.51291816  0.60746234  1  0  0.032871  0  0.898948  0  0  0.043342  0  0.9624  0  0  0.044325  0  0.957407  0  0  0.128487  0.042747  0  0.965523  0
H  H23  1  0.93944594  0.48708767  0.10746139  1  0  0.032854  0  0.899056  0  0  0.043276  0  0.962552  0  0  0.044256  0  0.957561  0  0  0.128515  0.042693  0  0.965678  0
H  H24  1  0.55131269  0.38223674  0.44752725  1  0  0.071481  0  0.958445  0  0  0.089134  0  1.022775  0  0  0.089637  0  1.02342  0  0  0.090531  0.088831  0  1.022112  0
H  H25  1  0.94868877  0.61776395  0.94752502  1  0  0.07147  0  0.958352  0  0  0.08911  0  1.022724  0  0  0.089611  0  1.023366  0  0  0.090524  0.088807  0  1.022061  0
H  H26  1  0.44868623  0.88223553  0.05247569  1  0  0.071486  0  0.95833  0  0  0.089145  0  1.02268  0  0  0.089647  0  1.023321  0  0  0.090528  0.088842  0  1.022016  0
H  H27  1  0.05131690  0.11776346  0.55247105  1  0  0.071482  0  0.958432  0  0  0.089124  0  1.02277  0  0  0.089625  0  1.023416  0  0  0.090543  0.088821  0  1.022107  0
H  H28  1  0.52270488  0.47884899  0.35270669  1  0  0.075011  0  0.938964  0  0  0.092306  0  0.997498  0  0  0.09378  0  0.996758  0  0  0.092233  0.091332  0  0.997779  0
H  H29  1  0.97729415  0.52115132  0.85270494  1  0  0.074976  0  0.938976  0  0  0.092285  0  0.997506  0  0  0.093759  0  0.996761  0  0  0.092218  0.091312  0  0.997783  0
H  H30  1  0.47728736  0.97884734  0.14729713  1  0  0.074964  0  0.938944  0  0  0.092275  0  0.997481  0  0  0.093746  0  0.996738  0  0  0.092212  0.091301  0  0.997762  0
H  H31  1  0.02270965  0.02115017  0.64729161  1  0  0.075012  0  0.938978  0  0  0.092333  0  0.99748  0  0  0.093804  0  0.996738  0  0  0.09222  0.091357  0  0.997761  0
H  H32  1  0.59066937  0.29702678  0.26929103  1  0  0.081385  0  0.940857  0  0  0.099235  0  0.997906  0  0  0.101454  0  0.996693  0  0  0.093532  0.097752  0  0.998558  0
H  H33  1  0.90932722  0.70297039  0.76928900  1  0  0.081364  0  0.940956  0  0  0.09923  0  0.997983  0  0  0.101445  0  0.996775  0  0  0.093525  0.097744  0  0.998635  0
H  H34  1  0.40932165  0.79702427  0.23071036  1  0  0.081358  0  0.941075  0  0  0.099279  0  0.998043  0  0  0.101494  0  0.996836  0  0  0.093562  0.097794  0  0.998699  0
H  H35  1  0.09067658  0.20297358  0.73070591  1  0  0.081349  0  0.940857  0  0  0.099259  0  0.997875  0  0  0.101479  0  0.996657  0  0  0.093535  0.09777  0  0.998537  0
H  H36  1  0.53347841  0.19621685  0.35839374  1  0  0.069539  0  0.946965  0  0  0.087888  0  1.008684  0  0  0.088872  0  1.008775  0  0  0.090706  0.087143  0  1.008642  0
H  H37  1  0.96651695  0.80378254  0.85839124  1  0  0.069513  0  0.946858  0  0  0.087866  0  1.0086  0  0  0.088851  0  1.008689  0  0  0.090701  0.087118  0  1.008561  0
H  H38  1  0.46651804  0.69621514  0.14160676  1  0  0.069549  0  0.946988  0  0  0.087894  0  1.008743  0  0  0.088878  0  1.008835  0  0  0.090713  0.087145  0  1.008702  0
H  H39  1  0.03348019  0.30378235  0.64160455  1  0  0.069528  0  0.94701  0  0  0.087895  0  1.008749  0  0  0.08888  0  1.00884  0  0  0.090731  0.087152  0  1.008703  0
H  H40  1  0.99309292  0.30817952  0.24509996  1  0  0.102383  0  0.967252  0  0  0.121319  0  1.033713  0  0  0.123085  0  1.033427  0  0  0.086791  0.120132  0  1.033803  0
H  H41  1  0.50690367  0.69182407  0.74509317  1  0  0.102323  0  0.967272  0  0  0.121294  0  1.033704  0  0  0.123059  0  1.033419  0  0  0.086782  0.120106  0  1.033797  0
H  H42  1  0.00689939  0.80817553  0.25490485  1  0  0.102387  0  0.967283  0  0  0.121324  0  1.033745  0  0  0.123088  0  1.033462  0  0  0.086791  0.120136  0  1.033838  0
H  H43  1  0.49309639  0.19181868  0.75490171  1  0  0.102377  0  0.967314  0  0  0.121309  0  1.033765  0  0  0.123074  0  1.03348  0  0  0.086807  0.120121  0  1.033853  0
H  H44  1  0.95986085  0.40807313  0.34016868  1  0  0.117267  0  0.949377  0  0  0.137642  0  1.008289  0  0  0.140029  0  1.007299  0  0  0.092861  0.135911  0  1.009042  0
H  H45  1  0.54013696  0.59193085  0.84016235  1  0  0.117245  0  0.949347  0  0  0.137649  0  1.008234  0  0  0.140033  0  1.007246  0  0  0.09289  0.135945  0  1.008959  0
H  H46  1  0.04013214  0.90806889  0.15983770  1  0  0.117234  0  0.949374  0  0  0.13764  0  1.008249  0  0  0.140021  0  1.007265  0  0  0.092886  0.135939  0  1.008974  0
H  H47  1  0.45986610  0.09192401  0.65983028  1  0  0.117264  0  0.949332  0  0  0.13762  0  1.008277  0  0  0.140014  0  1.007281  0  0  0.092826  0.135896  0  1.009025  0
H  H48  1  0.01740321  0.24961046  0.35622523  1  0  0.090825  0  0.969518  0  0  0.11148  0  1.036468  0  0  0.112477  0  1.036726  0  0  0.083171  0.11074  0  1.036267  0
H  H49  1  0.48259623  0.75039443  0.85622058  1  0  0.090735  0  0.969629  0  0  0.111431  0  1.03655  0  0  0.112427  0  1.036809  0  0  0.083155  0.110691  0  1.036352  0
H  H50  1  0.98258993  0.74960798  0.14377878  1  0  0.090763  0  0.969615  0  0  0.111461  0  1.036518  0  0  0.112455  0  1.036781  0  0  0.083176  0.110721  0  1.036322  0
H  H51  1  0.51740789  0.25038588  0.64377375  1  0  0.090777  0  0.969518  0  0  0.111447  0  1.036448  0  0  0.112443  0  1.036708  0  0  0.083146  0.110707  0  1.036248  0
H  H52  1  0.31169613  0.32636548  0.54152608  1  0  0.098511  0  0.949888  0  0  0.121684  0  1.010397  0  0  0.122778  0  1.010625  0  0  0.088378  0.120854  0  1.01019  0
H  H53  1  0.18830333  0.67363533  0.04152282  1  0  0.098563  0  0.949872  0  0  0.121717  0  1.010399  0  0  0.122826  0  1.010611  0  0  0.088409  0.120898  0  1.010179  0
H  H54  1  0.68830116  0.82637058  0.95847587  1  0  0.098497  0  0.949828  0  0  0.12166  0  1.010375  0  0  0.122753  0  1.010602  0  0  0.088408  0.120837  0  1.010158  0
H  H55  1  0.81169786  0.17363201  0.45847221  1  0  0.098587  0  0.949952  0  0  0.121764  0  1.010451  0  0  0.122851  0  1.010686  0  0  0.088427  0.120935  0  1.010242  0
H  H56  1  0.27941507  0.21050876  0.45780292  1  0  0.1188  0  0.966706  0  0  0.139134  0  1.029746  0  0  0.141419  0  1.028889  0  0  0.093093  0.137581  0  1.030231  0
H  H57  1  0.22058314  0.78949281  0.95780175  1  0  0.118813  0  0.966727  0  0  0.139133  0  1.029778  0  0  0.141418  0  1.028923  0  0  0.093103  0.13758  0  1.030266  0
H  H58  1  0.72058270  0.71051137  0.04219626  1  0  0.118666  0  0.966786  0  0  0.139079  0  1.029739  0  0  0.141361  0  1.028882  0  0  0.093078  0.137524  0  1.030224  0
H  H59  1  0.77941513  0.28948954  0.54219266  1  0  0.118705  0  0.966703  0  0  0.139091  0  1.029697  0  0  0.141375  0  1.028839  0  0  0.093066  0.137538  0  1.030182  0
H  H60  1  0.11572129  0.31020060  0.49182148  1  0  0.1097  0  0.962794  0  0  0.130199  0  1.024732  0  0  0.131528  0  1.025151  0  0  0.093865  0.129264  0  1.024317  0
H  H61  1  0.38427692  0.68980110  0.99182145  1  0  0.109714  0  0.962815  0  0  0.130226  0  1.024721  0  0  0.131555  0  1.025141  0  0  0.093881  0.129291  0  1.024305  0
H  H62  1  0.88427715  0.81020558  0.00817927  1  0  0.109724  0  0.962737  0  0  0.130212  0  1.024699  0  0  0.131543  0  1.025113  0  0  0.09386  0.129278  0  1.024285  0
H  H63  1  0.61572312  0.18979426  0.50817546  1  0  0.109708  0  0.962801  0  0  0.1302  0  1.024756  0  0  0.131531  0  1.025169  0  0  0.09384  0.129265  0  1.024341  0
C  C64  1  0.32729987  0.24779259  0.17617145  1  0  0.773265  0  3.778769  0  0  0.729276  0  4.072485  0  0  0.765152  0  4.064916  0  0  0.247351  0.705071  0  4.080051  0
C  C65  1  0.17269347  0.75220597  0.67617020  1  0  0.773398  0  3.77868  0  0  0.729421  0  4.072316  0  0  0.765292  0  4.064748  0  0  0.247398  0.705213  0  4.079889  0
C  C66  1  0.67268960  0.74779615  0.32382916  1  0  0.773274  0  3.778659  0  0  0.729286  0  4.07229  0  0  0.765156  0  4.064724  0  0  0.247314  0.705065  0  4.079886  0
C  C67  1  0.82730943  0.25220217  0.82383090  1  0  0.773275  0  3.778844  0  0  0.72933  0  4.072471  0  0  0.765201  0  4.064904  0  0  0.247397  0.705123  0  4.080034  0
C  C68  1  0.32789123  0.25983241  0.27805271  1  0  -0.189529  0  3.548981  0  0  -0.189548  0  3.772824  0  0  -0.196584  0  3.784919  0  0  -0.083478  -0.18438  0  3.763256  0
C  C69  1  0.17210333  0.74016842  0.77805008  1  0  -0.189625  0  3.549185  0  0  -0.189597  0  3.772936  0  0  -0.196636  0  3.785035  0  0  -0.083513  -0.184431  0  3.763369  0
C  C70  1  0.67210199  0.75983090  0.22194793  1  0  -0.189592  0  3.549159  0  0  -0.189489  0  3.77277  0  0  -0.196526  0  3.784865  0  0  -0.083456  -0.184324  0  3.76322  0
C  C71  1  0.82789705  0.24016514  0.72194693  1  0  -0.189506  0  3.548854  0  0  -0.189502  0  3.772752  0  0  -0.196539  0  3.784848  0  0  -0.083387  -0.184334  0  3.763182  0
C  C72  1  0.23216541  0.48464751  0.24679790  1  0  -0.34769  0  3.652178  0  0  -0.429934  0  3.891194  0  0  -0.433169  0  3.900909  0  0  -0.244198  -0.4272  0  3.883681  0
C  C73  1  0.26783770  0.51535414  0.74679343  1  0  -0.347562  0  3.652279  0  0  -0.42986  0  3.891241  0  0  -0.433081  0  3.900963  0  0  -0.244128  -0.427129  0  3.88373  0
C  C74  1  0.76783176  0.98464183  0.25320864  1  0  -0.347544  0  3.652298  0  0  -0.429901  0  3.89126  0  0  -0.433125  0  3.900978  0  0  -0.244175  -0.427167  0  3.883748  0
C  C75  1  0.73216850  0.01534968  0.75320039  1  0  -0.347774  0  3.652298  0  0  -0.430009  0  3.891305  0  0  -0.433249  0  3.901018  0  0  -0.244222  -0.427276  0  3.883793  0
C  C76  1  0.33632419  0.06588151  0.92167424  1  0  0.616577  0  3.87514  0  0  0.549822  0  4.18089  0  0  0.582886  0  4.179421  0  0  0.16018  0.526886  0  4.188121  0
C  C77  1  0.16368135  0.93412271  0.42167019  1  0  0.616705  0  3.875221  0  0  0.549934  0  4.180966  0  0  0.582999  0  4.179492  0  0  0.160196  0.527001  0  4.1882  0
C  C78  1  0.66367624  0.56587751  0.57832444  1  0  0.616538  0  3.87542  0  0  0.549758  0  4.181183  0  0  0.582821  0  4.179713  0  0  0.16016  0.526821  0  4.188418  0
C  C79  1  0.83632891  0.43413193  0.07833218  1  0  0.6168  0  3.875252  0  0  0.550065  0  4.180988  0  0  0.583134  0  4.179502  0  0  0.160223  0.527112  0  4.188241  0
C  C80  1  0.21548468  0.37120314  0.31006191  1  0  0.181445  0  3.455712  0  0  0.208395  0  3.685014  0  0  0.209443  0  3.704965  0  0  0.001011  0.207858  0  3.670781  0
C  C81  1  0.28451354  0.62879969  0.81005971  1  0  0.181337  0  3.455813  0  0  0.20844  0  3.684828  0  0  0.209488  0  3.704771  0  0  0.001018  0.207901  0  3.6706  0
C  C82  1  0.78451050  0.87120007  0.18994100  1  0  0.181387  0  3.455876  0  0  0.208504  0  3.684842  0  0  0.209554  0  3.704785  0  0  0.001058  0.207965  0  3.670617  0
C  C83  1  0.71548976  0.12879491  0.68993774  1  0  0.181497  0  3.455622  0  0  0.208425  0  3.684933  0  0  0.209472  0  3.704887  0  0  0.000997  0.207886  0  3.6707  0
C  C84  1  0.47982293  0.39277219  0.38521429  1  0  -0.141565  0  3.64659  0  0  -0.188951  0  3.903751  0  0  -0.189  0  3.916074  0  0  -0.166321  -0.188582  0  3.894606  0
C  C85  1  0.02017895  0.60723002  0.88521138  1  0  -0.141569  0  3.646604  0  0  -0.188983  0  3.903855  0  0  -0.189014  0  3.916147  0  0  -0.166342  -0.188613  0  3.894703  0
C  C86  1  0.52017484  0.89277058  0.11478934  1  0  -0.141563  0  3.646471  0  0  -0.188985  0  3.90377  0  0  -0.189013  0  3.916061  0  0  -0.166341  -0.188614  0  3.89462  0
C  C87  1  0.97982420  0.10722783  0.61478399  1  0  -0.141586  0  3.646648  0  0  -0.188957  0  3.90384  0  0  -0.188991  0  3.916141  0  0  -0.16628  -0.188587  0  3.894694  0
C  C88  1  0.49754259  0.28051919  0.32125631  1  0  -0.108754  0  3.633737  0  0  -0.15657  0  3.893074  0  0  -0.156448  0  3.904443  0  0  -0.167333  -0.156314  0  3.884637  0
C  C89  1  0.00245563  0.71948182  0.82125229  1  0  -0.108586  0  3.633734  0  0  -0.156451  0  3.893102  0  0  -0.156331  0  3.904467  0  0  -0.167272  -0.156189  0  3.884658  0
C  C90  1  0.50245320  0.78051497  0.17874776  1  0  -0.108667  0  3.633938  0  0  -0.156596  0  3.893283  0  0  -0.156476  0  3.904647  0  0  -0.167344  -0.15633  0  3.884839  0
C  C91  1  0.99754706  0.21948089  0.67874333  1  0  -0.108727  0  3.633804  0  0  -0.156669  0  3.89323  0  0  -0.156546  0  3.904593  0  0  -0.167439  -0.15641  0  3.884786  0
C  C92  1  0.03570996  0.33218336  0.31345396  1  0  -0.341235  0  3.67409  0  0  -0.423839  0  3.912957  0  0  -0.42675  0  3.922594  0  0  -0.247268  -0.421382  0  3.905612  0
C  C93  1  0.46428948  0.66782321  0.81344778  1  0  -0.341039  0  3.674012  0  0  -0.423773  0  3.912886  0  0  -0.426677  0  3.922523  0  0  -0.247263  -0.421339  0  3.90552  0
C  C94  1  0.96428496  0.83217819  0.18655158  1  0  -0.341127  0  3.674166  0  0  -0.423837  0  3.91304  0  0  -0.426729  0  3.922655  0  0  -0.247287  -0.421409  0  3.905677  0
C  C95  1  0.53571286  0.16781585  0.68654637  1  0  -0.341156  0  3.674071  0  0  -0.423741  0  3.912974  0  0  -0.426653  0  3.922595  0  0  -0.247185  -0.42129  0  3.905628  0
C  C96  1  0.29553528  0.40155660  0.40475185  1  0  -0.024584  0  3.52374  0  0  0.002526  0  3.747148  0  0  -0.003242  0  3.76423  0  0  -0.010445  0.00653  0  3.734976  0
C  C97  1  0.20446660  0.59844382  0.90474756  1  0  -0.024703  0  3.523896  0  0  0.002429  0  3.74729  0  0  -0.003355  0  3.764411  0  0  -0.01044  0.006428  0  3.735124  0
C  C98  1  0.70446011  0.90155843  0.09525316  1  0  -0.024723  0  3.523848  0  0  0.002334  0  3.747422  0  0  -0.003453  0  3.764542  0  0  -0.010475  0.006331  0  3.735255  0
C  C99  1  0.79553894  0.09844363  0.59524780  1  0  -0.02455  0  3.52368  0  0  0.00257  0  3.7472  0  0  -0.003205  0  3.764303  0  0  -0.010481  0.006574  0  3.735031  0
C  C100  1  0.24438167  0.52723086  0.44337113  1  0  0.740719  0  3.760206  0  0  0.699903  0  4.044464  0  0  0.734999  0  4.038196  0  0  0.250204  0.676214  0  4.051093  0
C  C101  1  0.25562265  0.47276878  0.94336521  1  0  0.741092  0  3.759681  0  0  0.700046  0  4.044329  0  0  0.73515  0  4.038044  0  0  0.250256  0.676355  0  4.050952  0
C  C102  1  0.75561609  0.02723688  0.05663850  1  0  0.741118  0  3.759476  0  0  0.700037  0  4.044196  0  0  0.735147  0  4.037899  0  0  0.250231  0.676352  0  4.050821  0
C  C103  1  0.74438906  0.97276875  0.55662620  1  0  0.740897  0  3.760011  0  0  0.699854  0  4.044648  0  0  0.734959  0  4.038366  0  0  0.250285  0.676157  0  4.051285  0
C  C104  1  0.24705653  0.30587653  0.47796316  1  0  -0.321917  0  3.646866  0  0  -0.404812  0  3.883905  0  0  -0.407312  0  3.893884  0  0  -0.239479  -0.402565  0  3.876395  0
C  C105  1  0.25294291  0.69412512  0.97795975  1  0  -0.322005  0  3.647024  0  0  -0.404866  0  3.884066  0  0  -0.407376  0  3.894025  0  0  -0.239549  -0.402626  0  3.876551  0
C  C106  1  0.75294066  0.80588011  0.02203894  1  0  -0.321752  0  3.646817  0  0  -0.404676  0  3.883881  0  0  -0.407171  0  3.893858  0  0  -0.239471  -0.402432  0  3.876367  0
C  C107  1  0.74705839  0.19411978  0.52203581  1  0  -0.321948  0  3.646999  0  0  -0.404871  0  3.884045  0  0  -0.407357  0  3.89401  0  0  -0.239476  -0.402625  0  3.876534  0
O  O108  1  0.35703421  0.18283919  0.93899658  1  0  -0.810871  0  2.1587  0  0  -0.753231  0  2.431465  0  0  -0.797391  0  2.418134  0  0  -0.445202  -0.734595  0  2.439738  0
O  O109  1  0.14297500  0.81716043  0.43898821  1  0  -0.810967  0  2.158537  0  0  -0.753343  0  2.431338  0  0  -0.797501  0  2.417992  0  0  -0.445219  -0.734714  0  2.439611  0
O  O110  1  0.64297190  0.68283877  0.56100912  1  0  -0.810889  0  2.158692  0  0  -0.753258  0  2.431487  0  0  -0.797413  0  2.418145  0  0  -0.445212  -0.734635  0  2.439766  0
O  O111  1  0.85703815  0.31716967  0.06101120  1  0  -0.810968  0  2.158566  0  0  -0.753333  0  2.431349  0  0  -0.797496  0  2.418003  0  0  -0.445203  -0.734709  0  2.439651  0
O  O112  1  0.20183424  0.01342648  0.93703851  1  0  -0.612179  0  1.968014  0  0  -0.565376  0  2.204517  0  0  -0.596266  0  2.194246  0  0  -0.349555  -0.54919  0  2.21055  0
O  O113  1  0.29817008  0.98657501  0.43703864  1  0  -0.612234  0  1.968233  0  0  -0.565456  0  2.204773  0  0  -0.596335  0  2.194484  0  0  -0.34956  -0.549272  0  2.210807  0
O  O114  1  0.79816584  0.51342761  0.56295395  1  0  -0.612136  0  1.968228  0  0  -0.565351  0  2.204767  0  0  -0.596238  0  2.194493  0  0  -0.34954  -0.549162  0  2.210797  0
O  O115  1  0.70183321  0.48657245  0.06297198  1  0  -0.612326  0  1.968133  0  0  -0.565554  0  2.204667  0  0  -0.596437  0  2.194387  0  0  -0.349637  -0.549363  0  2.210708  0
O  O116  1  0.20123014  0.19982120  0.13863418  1  0  -0.773574  0  1.994738  0  0  -0.727694  0  2.257091  0  0  -0.765021  0  2.239518  0  0  -0.425356  -0.709694  0  2.266039  0
O  O117  1  0.29876443  0.80017534  0.63863099  1  0  -0.773715  0  1.994724  0  0  -0.727849  0  2.257059  0  0  -0.765182  0  2.239512  0  0  -0.425404  -0.709845  0  2.265998  0
O  O118  1  0.79876268  0.69982914  0.36136905  1  0  -0.77366  0  1.994621  0  0  -0.727797  0  2.256967  0  0  -0.76514  0  2.239431  0  0  -0.425382  -0.709785  0  2.265913  0
O  O119  1  0.70122413  0.30016001  0.86136954  1  0  -0.773728  0  1.99462  0  0  -0.727872  0  2.256963  0  0  -0.765223  0  2.23945  0  0  -0.425482  -0.709876  0  2.265936  0
O  O120  1  0.09257878  0.55223471  0.44687977  1  0  -0.742409  0  2.050508  0  0  -0.692606  0  2.30815  0  0  -0.729611  0  2.293025  0  0  -0.416988  -0.674456  0  2.3163  0
O  O121  1  0.40742554  0.44776215  0.94686635  1  0  -0.742455  0  2.050266  0  0  -0.692566  0  2.307986  0  0  -0.729564  0  2.292853  0  0  -0.41695  -0.674409  0  2.31614  0
O  O122  1  0.90742160  0.05224131  0.05313194  1  0  -0.742503  0  2.050176  0  0  -0.692575  0  2.307912  0  0  -0.729587  0  2.29278  0  0  -0.416968  -0.674408  0  2.316036  0
O  O123  1  0.59258723  0.94776244  0.55311756  1  0  -0.742535  0  2.050517  0  0  -0.692611  0  2.30823  0  0  -0.729627  0  2.29312  0  0  -0.417048  -0.674445  0  2.316355  0
O  O124  1  0.44824685  0.28830115  0.13081220  1  0  -0.770603  0  2.057822  0  0  -0.722447  0  2.323982  0  0  -0.760968  0  2.307968  0  0  -0.422012  -0.703796  0  2.33211  0
O  O125  1  0.05174283  0.71170468  0.63081223  1  0  -0.770596  0  2.057733  0  0  -0.722454  0  2.323888  0  0  -0.760974  0  2.307868  0  0  -0.422001  -0.70381  0  2.332017  0
O  O126  1  0.55174411  0.78829604  0.36918579  1  0  -0.770518  0  2.057749  0  0  -0.722393  0  2.323932  0  0  -0.760908  0  2.307915  0  0  -0.421975  -0.703746  0  2.332069  0
O  O127  1  0.94825736  0.21171179  0.86918541  1  0  -0.770493  0  2.058047  0  0  -0.722377  0  2.324245  0  0  -0.760897  0  2.308228  0  0  -0.421967  -0.703733  0  2.332378  0
O  O128  1  0.35457627  0.59867167  0.47537147  1  0  -0.769304  0  2.068546  0  0  -0.722695  0  2.337049  0  0  -0.760159  0  2.323857  0  0  -0.415236  -0.703938  0  2.344074  0
O  O129  1  0.14543416  0.40132810  0.97537489  1  0  -0.769466  0  2.068415  0  0  -0.722763  0  2.336996  0  0  -0.760234  0  2.323803  0  0  -0.415291  -0.704003  0  2.344019  0
O  O130  1  0.64542809  0.09867806  0.02463966  1  0  -0.769444  0  2.06832  0  0  -0.722751  0  2.336969  0  0  -0.760214  0  2.323765  0  0  -0.415266  -0.70399  0  2.343996  0
O  O131  1  0.85458318  0.90132930  0.52462314  1  0  -0.769351  0  2.06846  0  0  -0.72265  0  2.33703  0  0  -0.760117  0  2.323832  0  0  -0.415265  -0.703892  0  2.344056  0
