# generated using pymatgen
data_Zn4H26C34SO19
_symmetry_space_group_name_H-M   'P 1'
_cell_length_a   10.84375030
_cell_length_b   10.76421678
_cell_length_c   17.98779164
_cell_angle_alpha   80.45804212
_cell_angle_beta   71.84686193
_cell_angle_gamma   81.11984757
_symmetry_Int_Tables_number   1
_chemical_formula_structural   Zn4H26C34SO19
_chemical_formula_sum   'Zn4 H26 C34 S1 O19'
_cell_volume   1955.65170605
_cell_formula_units_Z   1
loop_
 _symmetry_equiv_pos_site_id
 _symmetry_equiv_pos_as_xyz
  1  'x, y, z'
loop_
 _atom_site_type_symbol
 _atom_site_label
 _atom_site_symmetry_multiplicity
 _atom_site_fract_x
 _atom_site_fract_y
 _atom_site_fract_z
 _atom_site_occupancy
 _atom_site_pbe_bader_charge
 _atom_site_pbe_bader_spin_density
 _atom_site_pbe_cm5_charge
 _atom_site_pbe_ddec_charge
 _atom_site_pbe_ddec_spin_density
 _atom_site_pbe_ddec_sum_bond_order
 _atom_site_pbe_magmom
Zn  Zn0  1  0.40498971  0.44465407  0.43763296  1  1.316004  0  0.675347  0.956562  0  2.420982  0
Zn  Zn1  1  0.57462584  0.38436599  0.55808887  1  1.320628  0  0.68477  0.97605  0  2.335913  0
Zn  Zn2  1  0.34794934  0.61313165  0.57854518  1  1.314781  0  0.675983  0.973098  0  2.32468  0
Zn  Zn3  1  0.60991982  0.62569394  0.42642487  1  1.316248  0  0.673662  0.964779  0  2.385801  0
H  H4  1  0.81037505  0.63877474  0.91794744  1  0.069978  0  0.107384  0.110593  0  0.985532  0
H  H5  1  0.67025732  0.57791333  0.84933199  1  0.116543  0  0.106909  0.110668  0  1.005149  0
H  H6  1  0.71872404  0.47446007  0.65649154  1  0.665188  0  0.306344  0.373836  0  0.966788  0
H  H7  1  0.06880212  0.47426871  0.06694842  1  0.032339  0  0.09532  0.050318  0  0.994311  0
H  H8  1  0.10885049  0.45456120  0.15722926  1  0.016095  0  0.091469  0.042203  0  1.010362  0
H  H9  1  0.99039714  0.25842544  0.20290435  1  0.031117  0  0.091047  0.123346  0  0.997656  0
H  H10  1  0.88410497  0.39318263  0.17950853  1  0.063302  0  0.091322  0.129208  0  1.018374  0
H  H11  1  0.95031509  0.27888601  0.11248042  1  0.038927  0  0.096582  0.133273  0  0.983758  0
H  H12  1  0.30150077  0.72230296  0.16851706  1  0.040096  0  0.099752  0.058954  0  0.958224  0
H  H13  1  0.36453915  0.70023299  0.25079782  1  0.041748  0  0.09719  0.055587  0  1.003628  0
H  H14  1  0.19388398  0.55879781  0.32733089  1  0.028989  0  0.089737  0.12936  0  1.02246  0
H  H15  1  0.14677673  0.36956599  0.95917316  1  0.119965  0  0.11059  0.111535  0  1.006727  0
H  H16  1  0.12074533  0.71025386  0.29567371  1  0.008486  0  0.095223  0.128265  0  0.989468  0
H  H17  1  0.12851087  0.57851447  0.24582272  1  0.035791  0  0.088176  0.117053  0  1.019369  0
H  H18  1  0.33990063  0.26543450  0.26507842  1  0.048972  0  0.106933  0.074353  0  0.953678  0
H  H19  1  0.22096024  0.31058879  0.21363798  1  0.051757  0  0.101725  0.057845  0  1.021198  0
H  H20  1  0.29776031  0.11376195  0.14531881  1  0.053206  0  0.092085  0.131813  0  1.014372  0
H  H21  1  0.41991297  0.07084267  0.19558831  1  0.029731  0  0.091897  0.127324  0  0.993857  0
H  H22  1  0.25134138  0.07371958  0.24965756  1  0.024136  0  0.090542  0.120597  0  1.000151  0
H  H23  1  0.93769572  0.51024971  0.61672121  1  0.15928  0  0.120962  0.144983  0  0.985908  0
H  H24  1  0.01894713  0.50851063  0.43579887  1  0.134025  0  0.117943  0.136932  0  1.000182  0
H  H25  1  0.34317027  0.03647669  0.50637789  1  0.113028  0  0.121427  0.142631  0  0.965805  0
H  H26  1  0.64430174  0.00428824  0.46729937  1  0.125965  0  0.122448  0.143545  0  0.965771  0
H  H27  1  0.19404340  0.42644998  0.81415513  1  0.099602  0  0.112968  0.120033  0  0.973919  0
H  H28  1  0.85610469  0.65826794  0.04043996  1  0.073489  0  0.10242  0.105392  0  1.000194  0
H  H29  1  0.77874321  0.64928710  0.18746001  1  0.084784  0  0.105283  0.112738  0  0.995571  0
C  C30  1  0.81410342  0.50441323  0.49943239  1  1.556498  0  0.234146  0.652434  0  4.124989  0
C  C31  1  0.40499591  0.38051611  0.08010914  1  0.558372  0  0.093212  0.131338  0  4.068993  0
C  C32  1  0.31188218  0.36944652  0.04399691  1  0.517662  0  0.055557  0.052404  0  4.059232  0
C  C33  1  0.14018081  0.51910088  0.53880378  1  1.581943  0  0.228995  0.644798  0  4.155169  0
C  C34  1  0.33828114  0.40230357  0.96036448  1  -0.011114  0  -0.011213  0.002285  0  4.029235  0
C  C35  1  0.46522443  0.43497673  0.91350106  1  0.01759  0  0.002237  0.033175  0  3.937713  0
C  C36  1  0.24278426  0.39484139  0.92335256  1  -0.101259  0  -0.084069  -0.10523  0  3.994114  0
C  C37  1  0.27031670  0.42143740  0.84257828  1  0.031609  0  -0.086391  -0.104418  0  3.993517  0
C  C38  1  0.49924165  0.42747802  0.83073502  1  -0.136548  0  -0.011516  -0.154797  0  3.843906  0
C  C39  1  0.99855056  0.50834295  0.55577024  1  -0.124442  0  -0.066272  -0.155496  0  3.836446  0
C  C40  1  0.95203038  0.50427318  0.49545145  1  0.016361  0  -0.073765  -0.174516  0  3.891477  0
C  C41  1  0.72116624  0.61851281  0.15527582  1  -0.015115  0  -0.092756  -0.08311  0  4.049057  0
C  C42  1  0.44252392  0.98892980  0.49237469  1  -0.01631  0  -0.073608  -0.174301  0  3.877152  0
C  C43  1  0.54593860  0.05339540  0.47654557  1  -0.027779  0  -0.068313  -0.158179  0  3.871221  0
C  C44  1  0.53058294  0.19190804  0.47906912  1  1.567441  0  0.228252  0.647127  0  4.156685  0
C  C45  1  0.45732750  0.84880331  0.49753377  1  1.541591  0  0.227707  0.649782  0  4.15612  0
C  C46  1  0.41770108  0.45448866  0.70809027  1  1.603712  0  0.231748  0.613129  0  4.160128  0
C  C47  1  0.55809786  0.57347622  0.28593995  1  1.512548  0  0.219802  0.610889  0  4.177584  0
C  C48  1  0.59641948  0.58099321  0.19891553  1  -0.011117  0  -0.042278  -0.189441  0  4.003052  0
C  C49  1  0.39995289  0.43202107  0.79531369  1  -0.019285  0  -0.009131  -0.02206  0  3.950411  0
C  C50  1  0.76482144  0.62014289  0.07476975  1  -0.084915  0  -0.101449  -0.164445  0  4.031252  0
C  C51  1  0.08663787  0.40324665  0.11537526  1  0.422135  0  -0.068359  0.081288  0  3.926795  0
C  C52  1  0.51757537  0.54474895  0.15867827  1  0.53275  0  0.111785  0.235746  0  3.957149  0
C  C53  1  0.97115442  0.32879061  0.15499592  1  -0.071713  0  -0.244604  -0.395177  0  3.977012  0
C  C54  1  0.31207019  0.65601681  0.22058027  1  0.420313  0  -0.063773  0.093507  0  3.906509  0
C  C55  1  0.18105703  0.62340041  0.27562446  1  -0.021301  0  -0.24406  -0.392251  0  3.969779  0
C  C56  1  0.31714804  0.25823838  0.21061240  1  0.43182  0  -0.061414  0.092188  0  3.890375  0
C  C57  1  0.32238287  0.12092417  0.19903235  1  -0.063675  0  -0.248643  -0.408126  0  3.982921  0
C  C58  1  0.57199440  0.52069339  0.07840182  1  0.003517  0  -0.006519  -0.057924  0  3.910379  0
C  C59  1  0.69121161  0.57307091  0.03486518  1  -0.015969  0  -0.002115  0.104357  0  4.024358  0
C  C60  1  0.50638084  0.46108134  0.03737281  1  -0.021307  0  -0.001328  -0.025971  0  3.936751  0
C  C61  1  0.54322010  0.47945138  0.95382114  1  0.061191  0  -0.005377  0.030764  0  3.976848  0
C  C62  1  0.64944168  0.55189013  0.91262216  1  -0.115688  0  -0.079584  -0.078544  0  3.986089  0
C  C63  1  0.72568844  0.58896185  0.95104809  1  0.057755  0  -0.09105  -0.138289  0  3.988816  0
S  S64  1  0.66486277  0.37725890  0.77526867  1  3.052771  0  0.530963  1.150294  0  6.000095  0
O  O65  1  0.48393223  0.51950402  0.50082651  1  -1.236056  0  -0.578904  -1.042346  0  2.56856  0
O  O66  1  0.46313395  0.36329728  0.66702997  1  -1.17176  0  -0.312678  -0.535524  0  2.347584  0
O  O67  1  0.62495050  0.62959236  0.31545190  1  -1.157218  0  -0.322109  -0.553568  0  2.331647  0
O  O68  1  0.37725249  0.56679632  0.68314379  1  -1.15211  0  -0.308908  -0.535142  0  2.278492  0
O  O69  1  0.46527765  0.50737073  0.32626021  1  -1.170533  0  -0.318673  -0.553491  0  2.393039  0
O  O70  1  0.74878098  0.35872399  0.82496300  1  -1.290491  0  -0.30801  -0.516993  0  2.16552  0
O  O71  1  0.66046315  0.27461327  0.73430264  1  -1.280126  0  -0.320414  -0.530669  0  2.141358  0
O  O72  1  0.70482651  0.49804721  0.71058807  1  -1.249466  0  -0.380526  -0.566184  0  2.187757  0
O  O73  1  0.19847345  0.31421607  0.08411854  1  -1.06009  0  -0.202031  -0.223808  0  2.540708  0
O  O74  1  0.38654414  0.54027546  0.19250388  1  -1.060027  0  -0.182947  -0.220003  0  2.584256  0
O  O75  1  0.41755484  0.32230684  0.15015045  1  -1.055394  0  -0.169805  -0.176118  0  2.615853  0
O  O76  1  0.43885576  0.25838808  0.45555314  1  -1.163348  0  -0.308322  -0.539236  0  2.30606  0
O  O77  1  0.56790698  0.79532635  0.46026377  1  -1.173098  0  -0.31748  -0.554196  0  2.305557  0
O  O78  1  0.73388296  0.45368953  0.56247344  1  -1.183853  0  -0.30173  -0.55368  0  2.337756  0
O  O79  1  0.17359298  0.56376360  0.59022466  1  -1.150363  0  -0.308827  -0.535293  0  2.260924  0
O  O80  1  0.78516301  0.55400024  0.43698433  1  -1.154679  0  -0.303382  -0.528054  0  2.27312  0
O  O81  1  0.21505150  0.48430987  0.47370736  1  -1.190493  0  -0.314336  -0.552885  0  2.34852  0
O  O82  1  0.61178497  0.23157277  0.50605619  1  -1.153087  0  -0.316508  -0.545243  0  2.26267  0
O  O83  1  0.35675681  0.79462441  0.53941739  1  -1.152048  0  -0.314668  -0.543668  0  2.267756  0
