# generated using pymatgen
data_Ni2Mo6H40C48N16O19
_symmetry_space_group_name_H-M   'P 1'
_cell_length_a   12.13780699
_cell_length_b   12.13627742
_cell_length_c   13.49184696
_cell_angle_alpha   116.73573839
_cell_angle_beta   116.74114888
_cell_angle_gamma   89.98936867
_symmetry_Int_Tables_number   1
_chemical_formula_structural   Ni2Mo6H40C48N16O19
_chemical_formula_sum   'Ni2 Mo6 H40 C48 N16 O19'
_cell_volume   1533.33359257
_cell_formula_units_Z   1
loop_
 _symmetry_equiv_pos_site_id
 _symmetry_equiv_pos_as_xyz
  1  'x, y, z'
loop_
 _atom_site_type_symbol
 _atom_site_label
 _atom_site_symmetry_multiplicity
 _atom_site_fract_x
 _atom_site_fract_y
 _atom_site_fract_z
 _atom_site_occupancy
 _atom_site_hle17_ddec_charge
 _atom_site_hle17_ddec_spin_density
 _atom_site_hle17_ddec_sum_bond_order
 _atom_site_hle17_magmom
 _atom_site_hse06_10hf_ddec_charge
 _atom_site_hse06_10hf_ddec_spin_density
 _atom_site_hse06_10hf_ddec_sum_bond_order
 _atom_site_hse06_10hf_magmom
 _atom_site_hse06_ddec_charge
 _atom_site_hse06_ddec_spin_density
 _atom_site_hse06_ddec_sum_bond_order
 _atom_site_hse06_magmom
 _atom_site_pbe_cm5_charge
 _atom_site_pbe_ddec_charge
 _atom_site_pbe_ddec_spin_density
 _atom_site_pbe_ddec_sum_bond_order
 _atom_site_pbe_magmom
Ni  Ni0  1  0.50000069  0.00000126  0.00000193  1  0.831878  1.812623  2.206355  1.508  0.836083  1.853985  2.597677  1.617  0.909468  1.919346  2.533593  1.699  0.675605  0.757075  1.730769  2.656167  1.495
Ni  Ni1  1  0.00000088  0.50000129  0.00000217  1  0.832244  1.812894  2.206587  1.508  0.836584  1.854012  2.597638  1.617  0.909854  1.919398  2.533731  1.699  0.675689  0.758193  1.733178  2.654736  1.498
Mo  Mo2  1  0.80897301  0.03134169  0.00001062  1  2.221257  -0.022085  4.042614  -0.013  2.236873  -0.015462  4.560401  -0.005  2.346477  0.001344  4.524886  0.01  1.498011  2.148406  -0.047193  4.593053  -0.036
Mo  Mo3  1  0.19102412  0.96865686  0.99998456  1  2.221338  -0.022102  4.042535  -0.013  2.236966  -0.015476  4.560305  -0.005  2.346571  0.001344  4.524786  0.01  1.498044  2.148512  -0.047208  4.59294  -0.036
Mo  Mo4  1  0.03132515  0.19104812  0.00002812  1  2.22161  -0.022087  4.042067  -0.013  2.237256  -0.015472  4.559883  -0.005  2.346841  0.001334  4.524413  0.01  1.498704  2.148989  -0.046798  4.592348  -0.036
Mo  Mo5  1  0.96867431  0.80895233  0.99996952  1  2.221607  -0.022073  4.042171  -0.013  2.237213  -0.015479  4.560008  -0.005  2.346802  0.001344  4.52453  0.01  1.498667  2.148941  -0.046798  4.592485  -0.036
Mo  Mo6  1  0.11328937  0.11325067  0.22653327  1  2.102851  -0.877895  3.784794  -0.784  2.072645  -0.816039  4.336383  -0.735  2.173711  -0.888002  4.272005  -0.807  1.38583  2.021623  -0.665013  4.372842  -0.599
Mo  Mo7  1  0.88670849  0.88675074  0.77346484  1  2.102348  -0.878379  3.7848  -0.784  2.072585  -0.81613  4.336189  -0.735  2.173649  -0.888044  4.271817  -0.807  1.385751  2.021521  -0.665311  4.372653  -0.599
H  H8  1  0.21547716  0.95218739  0.78048128  1  0.110819  0.000245  0.965501  0.001  0.116344  0.000151  1.034221  0.0  0.119144  0.000141  1.030542  0.0  0.134804  0.113314  0.000145  1.037616  0.0
H  H9  1  0.56498355  0.82842749  0.78055919  1  0.111192  0.000243  0.964567  0.001  0.11634  0.000151  1.033732  0.0  0.119115  0.000141  1.030094  0.0  0.135032  0.113334  0.00014  1.03709  0.0
H  H10  1  0.95218222  0.56502735  0.78049657  1  0.112894  0.000246  0.964745  0.001  0.118153  0.000152  1.033509  0.0  0.121009  0.000142  1.029709  0.0  0.135528  0.115117  0.000146  1.036842  0.0
H  H11  1  0.82840961  0.21541483  0.78050380  1  0.11146  0.000245  0.96696  0.001  0.117269  0.000152  1.034998  0.0  0.12004  0.000142  1.031379  0.0  0.135318  0.114272  0.000139  1.038338  0.0
H  H12  1  0.78452254  0.04781402  0.21952128  1  0.110765  0.000244  0.965548  0.001  0.116314  0.000151  1.034238  0.0  0.119113  0.000141  1.030564  0.0  0.134768  0.113284  0.000145  1.037634  0.0
H  H13  1  0.43501843  0.17157201  0.21944204  1  0.111208  0.000242  0.964533  0.001  0.116355  0.000151  1.033697  0.0  0.119131  0.000141  1.030057  0.0  0.135039  0.113348  0.00014  1.037056  0.0
H  H14  1  0.04781957  0.43497502  0.21950574  1  0.112949  0.000247  0.964646  0.001  0.118202  0.000152  1.033405  0.0  0.121061  0.000142  1.029604  0.0  0.135531  0.115163  0.000146  1.036742  0.0
H  H15  1  0.17158913  0.78458277  0.21949609  1  0.111475  0.000244  0.966963  0.001  0.117257  0.000152  1.035035  0.0  0.120031  0.000142  1.031411  0.0  0.135333  0.114263  0.000139  1.038373  0.0
H  H16  1  0.56106615  0.15416505  0.87044352  1  0.114474  0.000113  0.941523  0.0  0.123632  0.000163  0.999108  0.001  0.125741  0.000122  0.99784  0.0  0.121914  0.121452  0.000208  1.000652  0.001
H  H17  1  0.30933356  0.71612064  0.87036138  1  0.114551  0.000113  0.942071  0.0  0.123769  0.000164  0.99955  0.001  0.125944  0.000122  0.998212  0.0  0.122282  0.121565  0.000211  1.001124  0.001
H  H18  1  0.15422506  0.30929813  0.87037210  1  0.113956  0.000116  0.942819  0.0  0.123638  0.000165  0.99977  0.001  0.125724  0.000123  0.998545  0.0  0.122156  0.12144  0.00021  1.001377  0.001
H  H19  1  0.71626182  0.56102571  0.87043016  1  0.114365  0.000114  0.942031  0.0  0.123582  0.000163  0.999535  0.001  0.125681  0.000121  0.998282  0.0  0.121878  0.121446  0.000209  1.001015  0.001
H  H20  1  0.43893327  0.84583159  0.12955403  1  0.114457  0.000115  0.941531  0.0  0.123614  0.000163  0.999122  0.001  0.125723  0.000121  0.997854  0.0  0.1219  0.121434  0.000208  1.000666  0.001
H  H21  1  0.69066474  0.28387886  0.12963613  1  0.114608  0.000116  0.942008  0.0  0.123826  0.000163  0.999484  0.001  0.125997  0.000122  0.998158  0.0  0.122328  0.121622  0.000211  1.001058  0.001
H  H22  1  0.84577348  0.69070233  0.12962516  1  0.11395  0.000115  0.94282  0.0  0.123626  0.000165  0.999781  0.001  0.125713  0.000123  0.998554  0.0  0.122113  0.121428  0.00021  1.00139  0.001
H  H23  1  0.28373968  0.43897188  0.12956714  1  0.114444  0.000114  0.941964  0.0  0.12365  0.000163  0.999467  0.001  0.125752  0.000122  0.998216  0.0  0.121897  0.121513  0.000209  1.000949  0.001
H  H24  1  0.36158741  0.15470212  0.66017026  1  0.113495  0.000419  0.963631  0.001  0.123352  0.0004  1.025226  0.0  0.125948  0.000304  1.024  0.0  0.11988  0.12077  0.000506  1.027016  0.001
H  H25  1  0.29865868  0.50541580  0.66009763  1  0.112896  0.00042  0.96476  0.001  0.122775  0.0004  1.026295  0.0  0.125354  0.000305  1.025091  0.0  0.119849  0.120192  0.00051  1.028077  0.001
H  H26  1  0.15471104  0.29858325  0.66010774  1  0.113176  0.000418  0.964528  0.001  0.12309  0.0004  1.026041  0.0  0.125672  0.000305  1.024824  0.0  0.119898  0.120484  0.000499  1.027913  0.001
H  H27  1  0.50552791  0.36153563  0.66016284  1  0.112652  0.000418  0.964666  0.001  0.12267  0.000399  1.026178  0.0  0.125238  0.000304  1.024985  0.0  0.119484  0.120104  0.00051  1.027959  0.001
H  H28  1  0.63841132  0.84529547  0.33982888  1  0.113495  0.000418  0.963543  0.001  0.123349  0.000399  1.025135  0.0  0.125944  0.000304  1.023908  0.0  0.119876  0.120767  0.000506  1.026925  0.001
H  H29  1  0.70134146  0.49458370  0.33990137  1  0.112919  0.000421  0.964729  0.001  0.122813  0.0004  1.026248  0.0  0.125393  0.000305  1.025042  0.0  0.119866  0.120232  0.00051  1.028024  0.001
H  H30  1  0.84528774  0.70141816  0.33989074  1  0.11322  0.000417  0.964461  0.001  0.123127  0.0004  1.025977  0.0  0.125708  0.000305  1.024761  0.0  0.119903  0.120522  0.000499  1.027848  0.001
H  H31  1  0.49447291  0.63846292  0.33983531  1  0.112643  0.000417  0.964691  0.001  0.122673  0.000399  1.026183  0.0  0.125241  0.000304  1.02499  0.0  0.119491  0.120108  0.00051  1.027963  0.001
H  H32  1  0.04234236  0.02040691  0.70664599  1  0.127487  -3.5e-05  0.964396  0.0  0.133195  -0.000309  1.031697  0.0  0.136978  -0.000219  1.028693  0.0  0.110813  0.129257  -0.000312  1.035017  0.0
H  H33  1  0.66437488  0.68627617  0.70664370  1  0.12733  -3.5e-05  0.964292  0.0  0.1337  -0.000308  1.030777  0.0  0.13753  -0.000219  1.02779  0.0  0.111027  0.129613  -0.000338  1.034296  0.0
H  H34  1  0.02043046  0.66437869  0.70663920  1  0.126969  -3.6e-05  0.965068  0.0  0.13317  -0.000308  1.031635  0.0  0.13698  -0.000219  1.028652  0.0  0.110749  0.129165  -0.000324  1.035022  0.0
H  H35  1  0.68623699  0.04232634  0.70664367  1  0.126794  -3.8e-05  0.964041  0.0  0.132431  -0.00031  1.03162  0.0  0.13619  -0.000221  1.028691  0.0  0.110658  0.12845  -0.00035  1.034983  0.0
H  H36  1  0.95765802  0.97959354  0.29335646  1  0.127572  -3.4e-05  0.96438  0.0  0.133222  -0.000309  1.031744  0.0  0.137008  -0.000219  1.028738  0.0  0.110818  0.129283  -0.000313  1.035067  0.0
H  H37  1  0.33562803  0.31372333  0.29335642  1  0.127293  -3.5e-05  0.96428  0.0  0.133676  -0.000308  1.030766  0.0  0.13752  -0.000219  1.02776  0.0  0.111009  0.129586  -0.000338  1.034289  0.0
H  H38  1  0.97956948  0.33562368  0.29336162  1  0.127019  -3.4e-05  0.965029  0.0  0.133213  -0.000308  1.031592  0.0  0.137024  -0.000219  1.028608  0.0  0.110755  0.129207  -0.000325  1.034983  0.0
H  H39  1  0.31376107  0.95767221  0.29335559  1  0.126843  -3.7e-05  0.964071  0.0  0.132501  -0.00031  1.031614  0.0  0.136264  -0.000221  1.028683  0.0  0.110675  0.128516  -0.00035  1.034979  0.0
H  H40  1  0.17827680  0.02307394  0.46078208  1  0.113072  0.000121  0.950563  0.0  0.123681  0.000154  1.011855  0.0  0.126663  0.000151  1.010454  0.0  0.107262  0.1208  0.000132  1.013819  0.0
H  H41  1  0.28249244  0.43780183  0.46078193  1  0.114163  0.000119  0.950004  0.0  0.123943  0.000154  1.012085  0.0  0.127013  0.000151  1.010533  0.0  0.107517  0.120939  0.000134  1.014151  0.0
H  H42  1  0.02305859  0.28244989  0.46080817  1  0.114248  0.00012  0.950381  0.0  0.124043  0.000154  1.012428  0.0  0.12701  0.000151  1.01101  0.0  0.107665  0.121189  0.000138  1.014314  0.0
H  H43  1  0.43776561  0.17831524  0.46069625  1  0.114564  0.000114  0.949524  0.0  0.124288  0.000154  1.011697  0.0  0.127277  0.000151  1.010232  0.0  0.107667  0.121368  0.000136  1.013692  0.0
H  H44  1  0.82172217  0.97692460  0.53921903  1  0.113098  0.00012  0.950519  0.0  0.123702  0.000154  1.011807  0.0  0.126683  0.000151  1.010405  0.0  0.107284  0.120823  0.000132  1.013767  0.0
H  H45  1  0.71750863  0.56219767  0.53921819  1  0.114182  0.000119  0.949996  0.0  0.123932  0.000154  1.012111  0.0  0.127  0.000151  1.01056  0.0  0.107512  0.120928  0.000135  1.014175  0.0
H  H46  1  0.97694136  0.71755247  0.53919265  1  0.114187  0.000119  0.950427  0.0  0.123986  0.000154  1.012477  0.0  0.126952  0.000151  1.011062  0.0  0.107644  0.121134  0.000138  1.014361  0.0
H  H47  1  0.56223268  0.82168426  0.53930349  1  0.114578  0.000119  0.949589  0.0  0.124303  0.000154  1.011753  0.0  0.127292  0.00015  1.010289  0.0  0.107668  0.121385  0.000136  1.013745  0.0
C  C48  1  0.28422514  0.00780402  0.77910258  1  0.180073  -0.011262  3.592118  -0.009  0.125076  -0.003958  3.856484  -0.003  0.14019  -0.00452  3.867921  -0.003  0.147074  0.113123  -0.004171  3.850891  -0.003
C  C49  1  0.49484452  0.77136832  0.77910293  1  0.179976  -0.011275  3.592383  -0.009  0.125421  -0.003968  3.856735  -0.003  0.140527  -0.004528  3.86815  -0.003  0.146967  0.113469  -0.004208  3.851147  -0.003
C  C50  1  0.00781062  0.49487922  0.77910549  1  0.178624  -0.01125  3.593205  -0.009  0.123839  -0.003955  3.857208  -0.003  0.138906  -0.004514  3.868657  -0.003  0.14696  0.112518  -0.003759  3.8511  -0.003
C  C51  1  0.77138593  0.28416053  0.77907178  1  0.178347  -0.011266  3.5951  -0.009  0.123328  -0.003959  3.859374  -0.003  0.138411  -0.00452  3.870836  -0.003  0.146276  0.111322  -0.004204  3.853852  -0.003
C  C52  1  0.71577433  0.99219644  0.22089950  1  0.180089  -0.011246  3.592208  -0.009  0.125061  -0.003958  3.856571  -0.003  0.140177  -0.004519  3.868005  -0.003  0.147092  0.113104  -0.00417  3.850979  -0.003
C  C53  1  0.50515747  0.22863118  0.22089905  1  0.180034  -0.011272  3.592271  -0.009  0.125475  -0.003969  3.856628  -0.003  0.140582  -0.004529  3.868038  -0.003  0.147013  0.113522  -0.004209  3.851041  -0.003
C  C54  1  0.99218841  0.50512314  0.22089571  1  0.178565  -0.01124  3.593113  -0.009  0.123776  -0.003956  3.857088  -0.003  0.138838  -0.004514  3.86855  -0.003  0.146905  0.112453  -0.00376  3.850981  -0.003
C  C55  1  0.22861397  0.71583802  0.22092822  1  0.178399  -0.011244  3.595114  -0.009  0.123394  -0.00396  3.859409  -0.003  0.138482  -0.004521  3.870864  -0.003  0.14629  0.111385  -0.004203  3.853891  -0.003
C  C56  1  0.45954111  0.11272164  0.82092856  1  0.008175  -0.002409  3.729171  -0.002  -0.020625  -0.000187  3.99917  0.0  -0.017608  -0.000783  4.01963  -0.001  0.001306  -0.023006  0.000216  3.985989  0.0
C  C57  1  0.36135461  0.70814952  0.82087444  1  0.0089  -0.002396  3.729597  -0.002  -0.020074  -0.000184  3.999484  0.0  -0.017135  -0.00078  4.019928  -0.001  0.00086  -0.022494  0.000239  3.986403  0.0
C  C58  1  0.11274451  0.36132856  0.82086238  1  0.008217  -0.00239  3.732756  -0.002  -0.021184  -0.000181  4.002525  0.0  -0.018187  -0.000778  4.023031  -0.001  0.000511  -0.023845  0.000155  3.989574  0.0
C  C59  1  0.70824810  0.45950634  0.82093034  1  0.009571  -0.002412  3.729291  -0.002  -0.019116  -0.000196  3.999103  0.0  -0.016098  -0.00079  4.01955  -0.001  0.002079  -0.02158  0.000222  3.986028  0.0
C  C60  1  0.54045787  0.88727691  0.17907107  1  0.008165  -0.0024  3.729163  -0.002  -0.020641  -0.000187  3.999161  0.0  -0.017626  -0.000782  4.019623  -0.001  0.001308  -0.023024  0.000217  3.98598  0.0
C  C61  1  0.63864369  0.29184999  0.17912381  1  0.008836  -0.002388  3.72957  -0.002  -0.020136  -0.000182  3.99946  0.0  -0.017197  -0.000779  4.0199  -0.001  0.000812  -0.022557  0.000238  3.986383  0.0
C  C62  1  0.88725611  0.63867285  0.17913760  1  0.008261  -0.002382  3.732844  -0.002  -0.021139  -0.000181  4.002607  0.0  -0.018138  -0.000777  4.023104  -0.001  0.00056  -0.023801  0.000155  3.989659  0.0
C  C63  1  0.29175272  0.54049221  0.17906707  1  0.009504  -0.002393  3.729281  -0.002  -0.01916  -0.000196  3.999063  0.0  -0.016149  -0.000791  4.019522  -0.001  0.002086  -0.021621  0.000222  3.985986  0.0
C  C64  1  0.36233467  0.11362706  0.71693196  1  -0.076885  0.004098  3.686905  0.005  -0.117025  0.001766  3.940932  0.002  -0.115724  0.001638  3.959715  0.002  -0.006524  -0.118281  0.001998  3.929958  0.002
C  C65  1  0.35460358  0.60329788  0.71685282  1  -0.075668  0.00409  3.684292  0.005  -0.115692  0.001767  3.938439  0.002  -0.114394  0.001637  3.957236  0.002  -0.005675  -0.116989  0.001967  3.927569  0.002
C  C66  1  0.11365531  0.35459030  0.71689809  1  -0.075343  0.004084  3.686704  0.005  -0.115375  0.001767  3.940486  0.002  -0.114067  0.001638  3.95927  0.002  -0.005832  -0.116842  0.001826  3.929762  0.002
C  C67  1  0.60338159  0.36229076  0.71689033  1  -0.076859  0.004094  3.685872  0.005  -0.117224  0.001765  3.940216  0.002  -0.115915  0.001637  3.958997  0.002  -0.006505  -0.118469  0.001961  3.929236  0.002
C  C68  1  0.63766455  0.88637244  0.28306742  1  -0.076845  0.004086  3.686818  0.005  -0.116982  0.001767  3.940849  0.002  -0.115678  0.001637  3.959631  0.002  -0.006518  -0.118238  0.001999  3.929875  0.002
C  C69  1  0.64539632  0.39670067  0.28314496  1  -0.075656  0.004079  3.684254  0.005  -0.115694  0.001767  3.938393  0.002  -0.114394  0.001637  3.957188  0.002  -0.005675  -0.116989  0.001967  3.927523  0.002
C  C70  1  0.88634556  0.64541207  0.28310162  1  -0.075394  0.004082  3.686843  0.005  -0.115444  0.001766  3.940641  0.002  -0.114132  0.001636  3.959424  0.002  -0.005864  -0.116907  0.001826  3.92991  0.002
C  C71  1  0.39661739  0.63770779  0.28310708  1  -0.076902  0.004081  3.685956  0.005  -0.117273  0.001766  3.940295  0.002  -0.115963  0.001638  3.959077  0.002  -0.006568  -0.118519  0.00196  3.929314  0.002
C  C72  1  0.12448189  0.02329235  0.59417958  1  0.164865  0.000574  3.801937  0.001  0.154861  0.000389  4.049755  0.001  0.159347  0.000302  4.073464  0.0  0.091904  0.152544  0.000428  4.033228  0.001
C  C73  1  0.46974528  0.57095255  0.59418388  1  0.164019  0.000621  3.803205  0.001  0.154926  0.00039  4.049854  0.001  0.159431  0.000301  4.073568  0.0  0.091556  0.152517  0.000308  4.033428  0.001
C  C74  1  0.02327904  0.46974678  0.59415621  1  0.163727  0.00059  3.804576  0.001  0.155053  0.000391  4.050634  0.001  0.159508  0.000301  4.074413  0.0  0.091939  0.152842  0.000328  4.03389  0.001
C  C75  1  0.57092374  0.12446380  0.59412863  1  0.163735  0.000569  3.804058  0.001  0.154653  0.000391  4.050532  0.001  0.159137  0.000303  4.074266  0.0  0.091204  0.152228  0.000299  4.034125  0.001
C  C76  1  0.87551709  0.97670620  0.40582153  1  0.164829  0.000616  3.802129  0.001  0.154813  0.000389  4.049939  0.001  0.159299  0.000303  4.073648  0.0  0.091868  0.152495  0.000427  4.033414  0.001
C  C77  1  0.53025647  0.42904599  0.40581761  1  0.16391  0.000571  3.80337  0.001  0.154839  0.00039  4.049997  0.001  0.159341  0.0003  4.073714  0.0  0.091539  0.152431  0.000309  4.033571  0.001
C  C78  1  0.97672091  0.53025559  0.40584461  1  0.163881  0.000602  3.804596  0.001  0.155188  0.000395  4.050644  0.001  0.159645  0.000297  4.074423  0.0  0.092  0.152977  0.000326  4.033898  0.001
C  C79  1  0.42907616  0.87553475  0.40587137  1  0.163853  0.00062  3.803936  0.001  0.154791  0.000393  4.05038  0.001  0.159276  0.000302  4.074113  0.0  0.091259  0.152362  0.000299  4.033976  0.001
C  C80  1  0.02396897  0.00966482  0.61551531  1  -0.134191  -7.3e-05  3.727705  0.0  -0.154411  -0.000164  3.983619  0.0  -0.158055  -0.000108  4.00464  0.0  -0.086897  -0.152767  -0.000145  3.971609  0.0
C  C81  1  0.59162664  0.60586100  0.61552917  1  -0.132786  -0.000134  3.728159  0.0  -0.153666  -0.000163  3.983432  0.0  -0.157338  -0.000108  4.004289  0.0  -0.086815  -0.152061  -0.000261  3.971779  0.0
C  C82  1  0.00968091  0.59162304  0.61551153  1  -0.131978  -9e-05  3.729929  0.0  -0.152622  -0.000161  3.984661  0.0  -0.156273  -0.000108  4.005638  0.0  -0.086132  -0.150844  -0.000273  3.972533  0.0
C  C83  1  0.60582320  0.02392758  0.61550595  1  -0.132108  -6.4e-05  3.728329  0.0  -0.152416  -0.000165  3.983726  0.0  -0.156051  -0.00011  4.004695  0.0  -0.086531  -0.150875  -0.000288  3.971966  0.0
C  C84  1  0.97603142  0.99033564  0.38448715  1  -0.134245  -0.000134  3.727785  0.0  -0.15442  -0.000163  3.983696  0.0  -0.158062  -0.00011  4.004709  0.0  -0.086873  -0.152779  -0.000144  3.971693  0.0
C  C85  1  0.40837626  0.39413850  0.38447170  1  -0.132701  -6.8e-05  3.728201  0.0  -0.153613  -0.000164  3.983474  0.0  -0.157298  -0.000107  4.004336  0.0  -0.086818  -0.152009  -0.000261  3.971823  0.0
C  C86  1  0.99031903  0.40837932  0.38448929  1  -0.132123  -0.000108  3.729986  0.0  -0.152743  -0.000167  3.984703  0.0  -0.156392  -0.000104  4.005672  0.0  -0.086187  -0.15097  -0.000267  3.972582  0.0
C  C87  1  0.39417485  0.97607097  0.38449331  1  -0.132252  -0.000134  3.728276  0.0  -0.152597  -0.000167  3.98368  0.0  -0.156228  -0.000109  4.00463  0.0  -0.08659  -0.151052  -0.000291  3.971925  0.0
C  C88  1  0.10080337  0.01395378  0.47887953  1  -0.129231  0.000249  3.738253  0.0  -0.150302  0.000133  3.990865  0.0  -0.152545  9.8e-05  4.010248  0.0  -0.087798  -0.14917  6.8e-05  3.979018  0.0
C  C89  1  0.37806109  0.46501689  0.47887019  1  -0.130553  0.000201  3.739566  0.0  -0.151341  0.000133  3.992243  0.0  -0.153646  9.9e-05  4.011622  0.0  -0.088167  -0.150187  0.000118  3.980565  0.0
C  C90  1  0.01391367  0.37802299  0.47888312  1  -0.130665  0.000233  3.740774  0.0  -0.151896  0.000135  3.993691  0.0  -0.154093  0.0001  4.013046  0.0  -0.088484  -0.150656  0.000186  3.981561  0.0
C  C91  1  0.46500487  0.10084085  0.47883266  1  -0.131068  0.000265  3.738343  0.0  -0.151869  0.000132  3.991325  0.0  -0.15409  9.8e-05  4.010693  0.0  -0.088184  -0.150745  0.000128  3.979621  0.0
C  C92  1  0.89919677  0.98604573  0.52112095  1  -0.129248  0.0002  3.73829  0.0  -0.1503  0.000134  3.990908  0.0  -0.152542  9.8e-05  4.010292  0.0  -0.087778  -0.149166  6.8e-05  3.979056  0.0
C  C93  1  0.62194182  0.53498261  0.52113067  1  -0.130534  0.000252  3.739597  0.0  -0.151308  0.000133  3.992263  0.0  -0.153611  0.0001  4.01164  0.0  -0.088181  -0.150153  0.000117  3.980582  0.0
C  C94  1  0.98608744  0.62198033  0.52111930  1  -0.130688  0.000223  3.7408  0.0  -0.151914  0.000129  3.993739  0.0  -0.154114  0.000103  4.0131  0.0  -0.088536  -0.150676  0.000195  3.981605  0.0
C  C95  1  0.53499411  0.89915770  0.52116845  1  -0.131204  0.000198  3.738526  0.0  -0.152014  0.00013  3.991513  0.0  -0.15424  9.9e-05  4.010889  0.0  -0.088236  -0.150886  0.000125  3.979806  0.0
N  N96  1  0.40930909  0.04634365  0.85814707  1  -0.322259  0.054579  3.298293  0.083  -0.288944  0.037612  3.60068  0.058  -0.316434  0.030195  3.620903  0.048  -0.344792  -0.267817  0.041545  3.586918  0.063
N  N97  1  0.44877913  0.81178726  0.85812680  1  -0.323259  0.054688  3.30028  0.083  -0.28988  0.037684  3.602321  0.058  -0.317353  0.030254  3.622524  0.048  -0.344897  -0.268777  0.041573  3.588622  0.062
N  N98  1  0.04637712  0.44876523  0.85808206  1  -0.322434  0.054664  3.301139  0.083  -0.288933  0.037677  3.603131  0.058  -0.316404  0.030235  3.623376  0.048  -0.345032  -0.267779  0.041746  3.588945  0.063
N  N99  1  0.81186249  0.40925694  0.85814979  1  -0.322816  0.05464  3.300712  0.083  -0.28976  0.03764  3.603385  0.058  -0.31723  0.030222  3.623584  0.048  -0.345342  -0.268771  0.041569  3.589708  0.062
N  N100  1  0.59069129  0.95365680  0.14185464  1  -0.322243  0.054575  3.298376  0.083  -0.288909  0.037611  3.60075  0.058  -0.316398  0.030195  3.620974  0.048  -0.344768  -0.267775  0.041544  3.586985  0.063
N  N101  1  0.55122101  0.18821225  0.14187294  1  -0.323335  0.054686  3.300309  0.083  -0.289966  0.037685  3.60237  0.058  -0.317438  0.030256  3.62257  0.048  -0.344956  -0.268863  0.041574  3.588673  0.062
N  N102  1  0.95362351  0.55123618  0.14191792  1  -0.322466  0.054657  3.30117  0.083  -0.288946  0.037676  3.603147  0.058  -0.316416  0.030235  3.623391  0.048  -0.345038  -0.267791  0.041745  3.588963  0.063
N  N103  1  0.18813833  0.59074161  0.14184911  1  -0.322853  0.054635  3.300829  0.083  -0.289808  0.037641  3.603511  0.058  -0.317284  0.030222  3.623714  0.048  -0.345357  -0.268818  0.041569  3.589835  0.062
N  N104  1  0.25103931  0.04699534  0.69142405  1  -0.087894  0.000815  3.607834  0.002  0.004531  0.000605  3.813418  0.001  -0.010123  0.000398  3.83818  0.001  -0.226594  0.013595  0.000776  3.798125  0.001
N  N105  1  0.44039062  0.64449377  0.69139861  1  -0.088795  0.000817  3.607856  0.002  0.003158  0.000604  3.813699  0.001  -0.011472  0.000396  3.838364  0.001  -0.227548  0.012224  0.000788  3.798473  0.001
N  N106  1  0.04703328  0.44040569  0.69143891  1  -0.08913  0.000826  3.607495  0.002  0.002709  0.000607  3.813157  0.001  -0.011912  0.000398  3.837862  0.001  -0.227161  0.011684  0.000721  3.797633  0.001
N  N107  1  0.64451918  0.25099184  0.69138739  1  -0.086626  0.000817  3.607337  0.002  0.005551  0.000605  3.812737  0.001  -0.009071  0.000398  3.837469  0.001  -0.226107  0.014661  0.000791  3.797413  0.001
N  N108  1  0.74895991  0.95300416  0.30857680  1  -0.087895  0.000814  3.607906  0.002  0.004536  0.000605  3.813493  0.001  -0.010119  0.000397  3.838256  0.001  -0.226581  0.013602  0.000775  3.798198  0.001
N  N109  1  0.55961069  0.35550669  0.30860200  1  -0.088821  0.00082  3.607787  0.002  0.003132  0.000603  3.813621  0.001  -0.011499  0.000395  3.838286  0.001  -0.227576  0.012198  0.000788  3.798395  0.001
N  N110  1  0.95296575  0.55959667  0.30856154  1  -0.089196  0.000822  3.607556  0.002  0.00267  0.000609  3.813189  0.001  -0.011962  0.000399  3.837911  0.001  -0.227103  0.011646  0.000722  3.797665  0.001
N  N111  1  0.35548072  0.74900671  0.30861187  1  -0.086669  0.000813  3.607381  0.002  0.005499  0.000605  3.812784  0.001  -0.009124  0.000397  3.837514  0.001  -0.226134  0.014609  0.000791  3.797466  0.001
O  O112  1  0.66592771  0.03468687  0.00001528  1  -0.73502  0.03235  1.718991  0.052  -0.739057  0.022584  2.029626  0.035  -0.771757  0.017765  2.013687  0.028  -0.515548  -0.70583  0.027892  2.040399  0.045
O  O113  1  0.33407011  0.96531073  0.99997904  1  -0.735053  0.032348  1.718996  0.052  -0.739064  0.022586  2.02957  0.035  -0.771765  0.017761  2.013627  0.028  -0.515545  -0.705845  0.027892  2.040348  0.045
O  O114  1  0.03473010  0.33414111  0.00007978  1  -0.735195  0.032394  1.718876  0.052  -0.739571  0.022593  2.030271  0.035  -0.772131  0.017777  2.014034  0.028  -0.515859  -0.706491  0.027957  2.040871  0.045
O  O115  1  0.96526587  0.66585648  0.99991231  1  -0.735267  0.032389  1.719004  0.052  -0.739516  0.022594  2.030238  0.035  -0.772118  0.017769  2.014088  0.028  -0.515805  -0.706435  0.027953  2.04084  0.045
O  O116  1  0.85233398  0.17420280  0.00009330  1  -0.831483  -0.049776  1.580395  -0.053  -0.83988  -0.050309  1.8522  -0.052  -0.870478  -0.042727  1.841433  -0.046  -0.572577  -0.813573  -0.054446  1.858173  -0.055
O  O117  1  0.14766199  0.82579479  0.99989880  1  -0.831507  -0.049779  1.580409  -0.053  -0.839916  -0.050315  1.852235  -0.052  -0.87051  -0.042731  1.841466  -0.046  -0.572587  -0.813612  -0.054451  1.858206  -0.055
O  O118  1  0.17410095  0.14768268  0.00001803  1  -0.831385  -0.049787  1.580916  -0.053  -0.839929  -0.050288  1.853064  -0.052  -0.870521  -0.042712  1.84229  -0.046  -0.572743  -0.813467  -0.054411  1.858918  -0.055
O  O119  1  0.82589783  0.85231873  0.99997971  1  -0.83137  -0.04978  1.580907  -0.053  -0.839927  -0.050287  1.853077  -0.052  -0.87051  -0.042712  1.842292  -0.046  -0.572762  -0.813461  -0.05441  1.858932  -0.055
O  O120  1  0.00000048  0.00000191  0.00000245  1  -1.343973  0.005584  2.094921  0.003  -1.296307  0.007627  2.334726  0.002  -1.353803  0.006669  2.350065  0.002  -0.647372  -1.255723  0.016911  2.333675  0.022
O  O121  1  0.93061316  0.09725472  0.17656695  1  -0.89799  -0.025007  1.720981  -0.014  -0.893244  -0.032046  2.0143  -0.018  -0.935418  -0.032762  2.004391  -0.019  -0.588491  -0.858844  -0.028105  2.017215  -0.016
O  O122  1  0.24596575  0.07921280  0.17651422  1  -0.89783  -0.024846  1.721116  -0.014  -0.893085  -0.03188  2.014521  -0.017  -0.935188  -0.032615  2.004497  -0.019  -0.588705  -0.858633  -0.027947  2.017455  -0.015
O  O123  1  0.09731426  0.24597607  0.17657369  1  -0.898238  -0.024943  1.721141  -0.014  -0.893715  -0.031984  2.014998  -0.018  -0.93593  -0.032711  2.005122  -0.019  -0.588636  -0.859309  -0.028151  2.017887  -0.016
O  O124  1  0.07928572  0.93054397  0.17650643  1  -0.897831  -0.024895  1.720998  -0.014  -0.893398  -0.031936  2.01484  -0.018  -0.935412  -0.032657  2.004619  -0.019  -0.588715  -0.858969  -0.027971  2.017816  -0.015
O  O125  1  0.06938936  0.90275050  0.82343533  1  -0.898043  -0.025037  1.720957  -0.014  -0.893295  -0.032047  2.014352  -0.018  -0.935444  -0.032763  2.004391  -0.019  -0.588511  -0.858901  -0.028117  2.017267  -0.016
O  O126  1  0.75402973  0.92078289  0.82348729  1  -0.897857  -0.024891  1.721246  -0.014  -0.893064  -0.031887  2.014647  -0.018  -0.935145  -0.032622  2.004581  -0.019  -0.588666  -0.858615  -0.027963  2.01759  -0.015
O  O127  1  0.90268982  0.75402438  0.82342877  1  -0.898255  -0.024981  1.721119  -0.014  -0.893678  -0.03199  2.014963  -0.018  -0.935887  -0.032714  2.005078  -0.019  -0.588639  -0.859274  -0.028162  2.017856  -0.016
O  O128  1  0.92071058  0.06946221  0.82349668  1  -0.897842  -0.024935  1.720977  -0.014  -0.893343  -0.031953  2.014781  -0.018  -0.935357  -0.032668  2.004557  -0.019  -0.588686  -0.858917  -0.027986  2.017761  -0.015
O  O129  1  0.19535656  0.19533903  0.39060599  1  -0.708656  0.051432  1.405518  0.081  -0.696781  0.025309  1.654059  0.046  -0.72735  0.032294  1.638684  0.059  -0.53213  -0.668571  0.018641  1.661191  0.033
O  O130  1  0.80464474  0.80466142  0.60939313  1  -0.70854  0.051458  1.405572  0.081  -0.696762  0.025314  1.654074  0.046  -0.727326  0.032298  1.638698  0.059  -0.532134  -0.668564  0.018653  1.661209  0.033
