# generated using pymatgen
data_Zn4H12C30N2O17
_symmetry_space_group_name_H-M   'P 1'
_cell_length_a   20.98427520
_cell_length_b   20.87572895
_cell_length_c   20.87558987
_cell_angle_alpha   103.54980657
_cell_angle_beta   112.44011293
_cell_angle_gamma   112.43961226
_symmetry_Int_Tables_number   1
_chemical_formula_structural   Zn4H12C30N2O17
_chemical_formula_sum   'Zn8 H24 C60 N4 O34'
_cell_volume   6996.95688188
_cell_formula_units_Z   2
loop_
 _symmetry_equiv_pos_site_id
 _symmetry_equiv_pos_as_xyz
  1  'x, y, z'
loop_
 _atom_site_type_symbol
 _atom_site_label
 _atom_site_symmetry_multiplicity
 _atom_site_fract_x
 _atom_site_fract_y
 _atom_site_fract_z
 _atom_site_occupancy
 _atom_site_pbe_bader_charge
 _atom_site_pbe_bader_spin_density
 _atom_site_pbe_cm5_charge
 _atom_site_pbe_ddec_charge
 _atom_site_pbe_ddec_spin_density
 _atom_site_pbe_ddec_sum_bond_order
 _atom_site_pbe_magmom
Zn  Zn0  1  0.93044793  0.63571596  0.20427751  1  1.3176  0  0.681642  0.975927  0  2.338068  0
Zn  Zn1  1  0.06955598  0.36428869  0.79572637  1  1.317624  0  0.681638  0.975896  0  2.3381  0
Zn  Zn2  1  0.06955661  0.79572566  0.36428560  1  1.317611  0  0.681666  0.975994  0  2.337846  0
Zn  Zn3  1  0.93044704  0.20427666  0.63571476  1  1.317641  0  0.681638  0.975976  0  2.337956  0
Zn  Zn4  1  0.92947408  0.79130151  0.22399969  1  1.317721  0  0.678533  0.96327  0  2.374861  0
Zn  Zn5  1  0.07052567  0.20869561  0.77600037  1  1.317754  0  0.678523  0.963246  0  2.374906  0
Zn  Zn6  1  0.07052474  0.77600445  0.20869394  1  1.317736  0  0.678593  0.963384  0  2.374746  0
Zn  Zn7  1  0.92947436  0.22399615  0.79130476  1  1.317724  0  0.678567  0.963306  0  2.374885  0
H  H8  1  0.13475439  0.51853810  0.04964369  1  0.108653  0  0.12121  0.130477  0  0.952813  0
H  H9  1  0.86523964  0.48146079  0.95035554  1  0.108802  0  0.121179  0.130446  0  0.952828  0
H  H10  1  0.86521078  0.95039550  0.48137151  1  0.108569  0  0.121167  0.130536  0  0.952568  0
H  H11  1  0.13478826  0.04960221  0.51862649  1  0.1086  0  0.121164  0.130547  0  0.952525  0
H  H12  1  0.88742894  0.38403134  0.07973569  1  0.055093  0  0.089151  0.120297  0  0.999969  0
H  H13  1  0.81109935  0.38128877  0.00093258  1  0.00834  0  0.087376  0.113521  0  1.004239  0
H  H14  1  0.80127304  0.29393970  0.00392784  1  0.056301  0  0.094831  0.124369  0  0.98955  0
H  H15  1  0.84359479  0.31445901  0.90978055  1  0.049373  0  0.101209  0.108325  0  0.961992  0
H  H16  1  0.92047532  0.31902399  0.98866202  1  0.056875  0  0.100579  0.105851  0  0.968536  0
H  H17  1  0.18889682  0.61870838  0.99906802  1  0.008301  0  0.087361  0.113532  0  1.004213  0
H  H18  1  0.11256786  0.61596696  0.92026447  1  0.055067  0  0.089146  0.120258  0  0.999996  0
H  H19  1  0.19872440  0.70605975  0.99607331  1  0.056367  0  0.094849  0.124397  0  0.98952  0
H  H20  1  0.07952109  0.68097547  0.01133874  1  0.056763  0  0.10058  0.105838  0  0.968583  0
H  H21  1  0.15640169  0.68553872  0.09022031  1  0.049357  0  0.101198  0.108325  0  0.961955  0
H  H22  1  0.11240404  0.92011687  0.61589623  1  0.05183  0  0.089033  0.119954  0  0.999961  0
H  H23  1  0.18879138  0.99893630  0.61871895  1  0.008712  0  0.087193  0.113049  0  1.004603  0
H  H24  1  0.19854695  0.99586872  0.70603073  1  0.052531  0  0.094679  0.124173  0  0.989708  0
H  H25  1  0.15630009  0.09007412  0.68557185  1  0.051428  0  0.101314  0.108732  0  0.961559  0
H  H26  1  0.07936182  0.01117900  0.68091705  1  0.060812  0  0.100761  0.106209  0  0.969005  0
H  H27  1  0.81120811  0.00106314  0.38128107  1  0.008704  0  0.087193  0.113046  0  1.004594  0
H  H28  1  0.88759628  0.07988315  0.38410376  1  0.051829  0  0.089027  0.119935  0  0.999968  0
H  H29  1  0.80145286  0.00413130  0.29397002  1  0.052531  0  0.094685  0.124169  0  0.989729  0
H  H30  1  0.92063748  0.98882103  0.31908159  1  0.060782  0  0.100756  0.106189  0  0.96906  0
H  H31  1  0.84369920  0.90992590  0.31442631  1  0.051414  0  0.101305  0.108708  0  0.961572  0
C  C32  1  0.99957035  0.88944651  0.38847809  1  1.594634  0  0.232062  0.620845  0  4.180183  0
C  C33  1  0.00042850  0.11055177  0.61151997  1  1.593998  0  0.232125  0.620939  0  4.180119  0
C  C34  1  0.00043664  0.61152027  0.11056351  1  1.594874  0  0.232047  0.62087  0  4.180209  0
C  C35  1  0.99956195  0.38848035  0.88943835  1  1.59493  0  0.232075  0.620824  0  4.180245  0
C  C36  1  0.77983013  0.63914300  0.13929406  1  1.726163  0  0.235726  0.663904  0  4.253336  0
C  C37  1  0.22016707  0.36084949  0.86070059  1  1.726182  0  0.235692  0.664113  0  4.25338  0
C  C38  1  0.22017110  0.86070879  0.36084952  1  1.726196  0  0.2357  0.664024  0  4.253189  0
C  C39  1  0.77983481  0.13929295  0.63915253  1  1.725961  0  0.235631  0.66399  0  4.253274  0
C  C40  1  0.00000250  0.85907967  0.14092552  1  1.618249  0  0.236744  0.667209  0  4.242637  0
C  C41  1  0.99999775  0.14092209  0.85907629  1  1.618399  0  0.236836  0.667325  0  4.242372  0
C  C42  1  0.99999856  0.64083918  0.35915600  1  1.636781  0  0.241036  0.673331  0  4.232635  0
C  C43  1  0.00000478  0.35916257  0.64084507  1  1.636582  0  0.241062  0.673469  0  4.232589  0
C  C44  1  0.00000410  0.59704015  0.40296059  1  0.173522  0  -0.000585  -0.128516  0  3.829276  0
C  C45  1  0.00000531  0.40296115  0.59704548  1  0.173502  0  -0.000437  -0.128418  0  3.828967  0
C  C46  1  0.00000671  0.55965745  0.44034405  1  -0.17253  0  0.001913  0.039177  0  4.241828  0
C  C47  1  0.00000962  0.44035077  0.55966148  1  -0.172448  0  0.001796  0.03901  0  4.241735  0
C  C48  1  0.00000905  0.51880614  0.48120136  1  -0.136791  0  0.008138  0.004949  0  4.17509  0
C  C49  1  0.00000961  0.48119976  0.51880788  1  0.041262  0  0.008188  0.005044  0  4.175461  0
C  C50  1  0.02409890  0.49397366  0.06621456  1  0.27553  0  0.096047  0.050561  0  3.583166  0
C  C51  1  0.97589636  0.50602465  0.93378740  1  0.275361  0  0.096049  0.050486  0  3.583274  0
C  C52  1  0.97582036  0.93375615  0.50596792  1  0.276081  0  0.096127  0.050938  0  3.583115  0
C  C53  1  0.02417881  0.06624272  0.49403040  1  0.276055  0  0.096142  0.050985  0  3.583116  0
C  C54  1  0.07465234  0.51089224  0.02698323  1  -0.015641  0  -0.057578  -0.115455  0  3.592329  0
C  C55  1  0.92534291  0.48910607  0.97301633  1  -0.015548  0  -0.057549  -0.115354  0  3.592454  0
C  C56  1  0.92533108  0.97304124  0.48906008  1  -0.015131  0  -0.057511  -0.115636  0  3.591979  0
C  C57  1  0.07466809  0.02695762  0.51093776  1  -0.014972  0  -0.057513  -0.115658  0  3.591812  0
C  C58  1  0.99808433  0.44475578  0.94701712  1  0.01412  0  0.000627  -0.087062  0  3.640837  0
C  C59  1  0.00190970  0.55524311  0.05298211  1  0.014002  0  0.000768  -0.087062  0  3.640772  0
C  C60  1  0.00190007  0.05296890  0.55524497  1  0.013485  0  0.000605  -0.087626  0  3.64084  0
C  C61  1  0.99809910  0.94702996  0.44475336  1  0.01328  0  0.000591  -0.087606  0  3.640855  0
C  C62  1  0.94640001  0.42679579  0.98602093  1  0.025851  0  0.015651  0.089127  0  3.602701  0
C  C63  1  0.05359434  0.57320367  0.01397856  1  0.025569  0  0.015692  0.089168  0  3.602577  0
C  C64  1  0.05353038  0.01390961  0.57319787  1  0.025213  0  0.015581  0.089804  0  3.601538  0
C  C65  1  0.94646879  0.98608925  0.42680045  1  0.024838  0  0.015545  0.089758  0  3.601711  0
C  C66  1  0.30727068  0.90358131  0.40444880  1  -0.20167  0  -0.00119  -0.125942  0  3.831525  0
C  C67  1  0.69273724  0.09641751  0.59555095  1  -0.202213  0  -0.00125  -0.126009  0  3.831354  0
C  C68  1  0.69272890  0.59553640  0.09642188  1  -0.202149  0  -0.001216  -0.125859  0  3.831665  0
C  C69  1  0.30726088  0.40444917  0.90357310  1  -0.201886  0  -0.001117  -0.125893  0  3.83114  0
C  C70  1  0.38151957  0.94062634  0.44124496  1  0.104315  0  -0.00353  0.030606  0  4.24875  0
C  C71  1  0.61848472  0.05937247  0.55874046  1  0.104656  0  -0.003521  0.030624  0  4.248673  0
C  C72  1  0.61848370  0.55873584  0.05937892  1  0.10661  0  -0.003583  0.030507  0  4.248887  0
C  C73  1  0.38152017  0.44126126  0.94062079  1  0.10432  0  -0.003688  0.030453  0  4.248617  0
C  C74  1  0.46266401  0.98123471  0.48148720  1  -0.177382  0  0.005703  0.003794  0  4.180168  0
C  C75  1  0.53734420  0.01876467  0.51850177  1  0.107233  0  0.005761  0.003756  0  4.180345  0
C  C76  1  0.53733735  0.51850030  0.01876481  1  -0.177799  0  0.005778  0.003864  0  4.180097  0
C  C77  1  0.46265465  0.48148930  0.98122430  1  0.105575  0  0.005785  0.00379  0  4.180703  0
C  C78  1  0.00000444  0.90292854  0.09707974  1  0.175233  0  -0.001675  -0.129521  0  3.829342  0
C  C79  1  0.00000055  0.09707220  0.90292738  1  0.175398  0  -0.001773  -0.129642  0  3.830042  0
C  C80  1  0.99999656  0.94032439  0.05967347  1  -0.172813  0  0.000111  0.037001  0  4.240887  0
C  C81  1  0.00000027  0.05967679  0.94031875  1  -0.173242  0  5.1e-05  0.036938  0  4.241302  0
C  C82  1  0.00000166  0.98119550  0.01880915  1  0.042371  0  0.008319  0.005594  0  4.173294  0
C  C83  1  0.00000254  0.01880756  0.98119629  1  -0.135551  0  0.008632  0.006052  0  4.172724  0
C  C84  1  0.88774995  0.34861258  0.97250399  1  0.02209  0  -0.160368  -0.151904  0  4.001712  0
C  C85  1  0.84470179  0.35248078  0.01684061  1  -0.075889  0  -0.240812  -0.347847  0  3.96382  0
C  C86  1  0.11224633  0.65138572  0.02749501  1  0.022283  0  -0.160282  -0.151774  0  4.001646  0
C  C87  1  0.15529584  0.64751809  0.98315951  1  -0.075861  0  -0.240856  -0.347899  0  3.963692  0
C  C88  1  0.11212340  0.02735767  0.65136772  1  0.017076  0  -0.160588  -0.153262  0  4.002139  0
C  C89  1  0.15515647  0.98300413  0.64749133  1  -0.069561  0  -0.240272  -0.346441  0  3.963537  0
C  C90  1  0.88787661  0.97264177  0.34863106  1  0.017157  0  -0.160566  -0.153201  0  4.002197  0
C  C91  1  0.84484302  0.01699531  0.35250820  1  -0.069539  0  -0.240263  -0.346413  0  3.963535  0
N  N92  1  0.05455233  0.48625468  0.13809097  1  0.386029  0  0.056793  0.513228  0  4.22933  0
N  N93  1  0.94544177  0.51374247  0.86190789  1  0.385987  0  0.05683  0.513342  0  4.229443  0
N  N94  1  0.94526809  0.86185178  0.51361353  1  0.387127  0  0.056495  0.512588  0  4.231266  0
N  N95  1  0.05473076  0.13814651  0.48638646  1  0.386915  0  0.056427  0.512407  0  4.23141  0
O  O96  1  0.00000197  0.74935113  0.25064740  1  -1.225025  0  -0.570016  -1.03846  0  2.526016  0
O  O97  1  0.99999971  0.25064946  0.74935324  1  -1.22505  0  -0.570012  -1.03845  0  2.525968  0
O  O98  1  0.05737204  0.87779438  0.41669790  1  -1.165696  0  -0.309105  -0.540294  0  2.319872  0
O  O99  1  0.94262840  0.12220679  0.58329905  1  -1.165559  0  -0.309109  -0.540285  0  2.319793  0
O  O100  1  0.94262838  0.58330371  0.12220725  1  -1.165821  0  -0.309167  -0.540417  0  2.319856  0
O  O101  1  0.05736930  0.41669806  0.87779405  1  -1.165773  0  -0.309119  -0.540305  0  2.319852  0
O  O102  1  0.81344666  0.71187207  0.16024098  1  -1.139362  0  -0.303079  -0.526643  0  2.276846  0
O  O103  1  0.18655028  0.28812274  0.83975650  1  -1.13951  0  -0.303008  -0.52658  0  2.276847  0
O  O104  1  0.18655140  0.83976930  0.28812196  1  -1.139129  0  -0.303048  -0.526662  0  2.276917  0
O  O105  1  0.81345057  0.16023651  0.71187954  1  -1.139184  0  -0.30294  -0.526493  0  2.276949  0
O  O106  1  0.95245437  0.85046921  0.16653893  1  -1.127331  0  -0.30397  -0.529739  0  2.272253  0
O  O107  1  0.04754660  0.14953197  0.83346301  1  -1.127311  0  -0.303987  -0.529788  0  2.272196  0
O  O108  1  0.04755188  0.83346726  0.14953157  1  -1.127405  0  -0.304022  -0.529865  0  2.27224  0
O  O109  1  0.95244690  0.16653277  0.85046831  1  -1.127452  0  -0.30402  -0.529842  0  2.272192  0
O  O110  1  0.04772319  0.71408725  0.39834316  1  -1.129838  0  -0.30223  -0.528058  0  2.274825  0
O  O111  1  0.95227757  0.28591450  0.60165501  1  -1.129754  0  -0.30219  -0.528029  0  2.27483  0
O  O112  1  0.95226919  0.60165041  0.28590733  1  -1.129832  0  -0.302174  -0.527921  0  2.274954  0
O  O113  1  0.04772960  0.39834963  0.71409495  1  -1.129812  0  -0.302245  -0.528034  0  2.274928  0
O  O114  1  0.81419312  0.60076700  0.15161987  1  -1.136557  0  -0.301889  -0.528448  0  2.273781  0
O  O115  1  0.18580721  0.39922837  0.84837522  1  -1.136681  0  -0.301937  -0.528607  0  2.273771  0
O  O116  1  0.18581235  0.84838015  0.39922951  1  -1.137111  0  -0.301936  -0.528548  0  2.273571  0
O  O117  1  0.81419464  0.15162449  0.60077459  1  -1.13679  0  -0.301933  -0.528584  0  2.273736  0
O  O118  1  0.94369582  0.85823169  0.31787036  1  -1.169144  0  -0.303284  -0.533272  0  2.356254  0
O  O119  1  0.05630053  0.14176486  0.68212826  1  -1.169049  0  -0.303322  -0.533347  0  2.356256  0
O  O120  1  0.05630399  0.68212578  0.14177170  1  -1.169115  0  -0.303247  -0.533326  0  2.356295  0
O  O121  1  0.94369859  0.31787366  0.85823237  1  -1.169109  0  -0.303259  -0.533345  0  2.356443  0
O  O122  1  0.06279410  0.42979723  0.13310881  1  -0.452388  0  -0.138138  -0.335179  0  1.84701  0
O  O123  1  0.07063750  0.53575772  0.19753969  1  -0.439293  0  -0.134182  -0.329795  0  1.871209  0
O  O124  1  0.93720456  0.57020163  0.86688739  1  -0.45237  0  -0.13813  -0.335225  0  1.847175  0
O  O125  1  0.92935155  0.46423307  0.80245862  1  -0.439277  0  -0.134203  -0.329831  0  1.871156  0
O  O126  1  0.93692870  0.86681125  0.57001949  1  -0.452259  0  -0.137864  -0.335061  0  1.847988  0
O  O127  1  0.92922589  0.80242018  0.46413031  1  -0.44032  0  -0.13418  -0.329478  0  1.872148  0
O  O128  1  0.06306956  0.13318878  0.42998019  1  -0.452216  0  -0.13778  -0.334943  0  1.847973  0
O  O129  1  0.07077471  0.19757752  0.53587260  1  -0.4403  0  -0.134179  -0.32942  0  1.872201  0
