# generated using pymatgen
data_ErH35C39N6O7
_symmetry_space_group_name_H-M   'P 1'
_cell_length_a   9.83086964
_cell_length_b   9.83380820
_cell_length_c   22.39473320
_cell_angle_alpha   94.69678500
_cell_angle_beta   100.35364621
_cell_angle_gamma   113.82947564
_symmetry_Int_Tables_number   1
_chemical_formula_structural   ErH35C39N6O7
_chemical_formula_sum   'Er2 H70 C78 N12 O14'
_cell_volume   1919.27064096
_cell_formula_units_Z   2
loop_
 _symmetry_equiv_pos_site_id
 _symmetry_equiv_pos_as_xyz
  1  'x, y, z'
loop_
 _atom_site_type_symbol
 _atom_site_label
 _atom_site_symmetry_multiplicity
 _atom_site_fract_x
 _atom_site_fract_y
 _atom_site_fract_z
 _atom_site_occupancy
 _atom_site_pbe_bader_charge
 _atom_site_pbe_bader_spin_density
 _atom_site_pbe_cm5_charge
 _atom_site_pbe_ddec_charge
 _atom_site_pbe_ddec_spin_density
 _atom_site_pbe_ddec_sum_bond_order
 _atom_site_pbe_magmom
Er  Er0  1  0.81501021  0.44394688  0.51437889  1  2.166321  0  1.49399  1.983918  0  2.236614  0
Er  Er1  1  0.57041479  0.69922566  0.01443341  1  2.166519  0  1.493987  1.984502  0  2.23472  0
H  H2  1  0.02240142  0.02962655  0.47067650  1  0.01697  0  0.096192  0.1458  0  0.98922  0
H  H3  1  0.94145048  0.44833395  0.97042947  1  0.027511  0  0.096505  0.146296  0  0.989276  0
H  H4  1  0.16985010  0.14839807  0.53448242  1  0.067381  0  0.092102  0.138433  0  1.023008  0
H  H5  1  0.88614836  0.36436243  0.03412383  1  0.048099  0  0.092194  0.138538  0  1.022499  0
H  H6  1  0.13937872  0.22196188  0.46548183  1  0.068851  0  0.0949  0.145696  0  0.990773  0
H  H7  1  0.74378427  0.32616513  0.96509037  1  0.044307  0  0.095063  0.145716  0  0.990874  0
H  H8  1  0.90346686  0.01000307  0.56791197  1  0.049959  0  0.090286  0.123721  0  1.053606  0
H  H9  1  0.05830542  0.66445510  0.06754267  1  0.023774  0  0.090335  0.123944  0  1.053237  0
H  H10  1  0.74050680  0.85725828  0.60629210  1  0.080518  0  0.103052  0.103439  0  1.025028  0
H  H11  1  0.24934738  0.86561718  0.10651169  1  0.086863  0  0.102827  0.102651  0  1.026151  0
H  H12  1  0.58890129  0.71408832  0.67459498  1  0.088996  0  0.103589  0.109504  0  1.032124  0
H  H13  1  0.46043560  0.08528529  0.17501745  1  0.093145  0  0.10339  0.10956  0  1.032057  0
H  H14  1  0.48975381  0.08853075  0.72885183  1  0.043943  0  0.101588  0.10539  0  1.012038  0
H  H15  1  0.13953102  0.23856070  0.22868673  1  0.045738  0  0.101465  0.105188  0  1.012557  0
H  H16  1  0.64235692  0.23182894  0.65768073  1  0.107911  0  0.10626  0.107885  0  1.032715  0
H  H17  1  0.92540326  0.01474962  0.15743275  1  0.100184  0  0.106384  0.108141  0  1.032191  0
H  H18  1  0.26524999  0.88625870  0.73991547  1  0.104262  0  0.112948  0.106101  0  1.068594  0
H  H19  1  0.35320332  0.47429862  0.23978470  1  0.102833  0  0.112494  0.105544  0  1.069495  0
H  H20  1  0.19083911  0.70690530  0.82926115  1  0.115592  0  0.116494  0.111758  0  1.02255  0
H  H21  1  0.62213193  0.63859809  0.32897744  1  0.067624  0  0.116444  0.111477  0  1.020919  0
H  H22  1  0.57607076  0.69036957  0.77790262  1  0.138787  0  0.124655  0.080224  0  1.060756  0
H  H23  1  0.58738332  0.20190472  0.27827282  1  0.116874  0  0.124819  0.080507  0  1.061432  0
H  H24  1  0.74336072  0.83468701  0.41973236  1  0.032074  0  0.091777  0.138621  0  0.999856  0
H  H25  1  0.08555936  0.67717217  0.91962271  1  0.03026  0  0.092004  0.138927  0  1.00172  0
H  H26  1  0.65122122  0.89405997  0.47144093  1  0.067888  0  0.091227  0.141288  0  1.022547  0
H  H27  1  0.07751118  0.82073432  0.97131720  1  0.058144  0  0.091053  0.141019  0  1.022199  0
H  H28  1  0.53881259  0.75627131  0.40496541  1  0.040886  0  0.090232  0.133672  0  1.014163  0
H  H29  1  0.14930952  0.86696131  0.90496853  1  0.048864  0  0.090369  0.134128  0  1.013567  0
H  H30  1  0.45928557  0.67583258  0.51353460  1  0.028013  0  0.09129  0.123253  0  1.053106  0
H  H31  1  0.33810999  0.05471209  0.01362597  1  0.057024  0  0.091411  0.123061  0  1.053028  0
H  H32  1  0.27497852  0.57939112  0.55472398  1  0.093823  0  0.108356  0.109591  0  1.021287  0
H  H33  1  0.47476397  0.27912259  0.05522850  1  0.099647  0  0.108418  0.109717  0  1.022187  0
H  H34  1  0.13031456  0.52806467  0.63446694  1  0.103899  0  0.113216  0.116988  0  1.032889  0
H  H35  1  0.60614411  0.50376901  0.13483436  1  0.106494  0  0.113098  0.116997  0  1.032263  0
H  H36  1  0.36240997  0.26462340  0.70634606  1  0.038631  0  0.097802  0.098808  0  1.028978  0
H  H37  1  0.94274328  0.34470413  0.20625870  1  0.04492  0  0.098009  0.098729  0  1.028724  0
H  H38  1  0.51629902  0.32719156  0.62646120  1  0.117857  0  0.105345  0.108568  0  1.046867  0
H  H39  1  0.80035199  0.11090721  0.12640139  1  0.099916  0  0.105259  0.108679  0  1.04772  0
H  H40  1  0.95220342  0.39073896  0.67926056  1  0.161131  0  0.125703  0.131172  0  1.041946  0
H  H41  1  0.78952482  0.72732533  0.17921417  1  0.160394  0  0.125873  0.131458  0  1.042245  0
H  H42  1  0.87410916  0.32310470  0.78985423  1  0.066523  0  0.108719  0.099453  0  1.002619  0
H  H43  1  0.96812095  0.91614595  0.28972147  1  0.060945  0  0.108875  0.100219  0  1.002515  0
H  H44  1  0.30435594  0.32549944  0.79513444  1  0.103645  0  0.130058  0.093411  0  0.995138  0
H  H45  1  0.96957557  0.49078586  0.29526850  1  0.114862  0  0.129966  0.09361  0  0.995196  0
H  H46  1  0.35702524  0.85176423  0.55054708  1  0.057245  0  0.097231  0.148587  0  1.003744  0
H  H47  1  0.19770021  0.19346911  0.05014770  1  0.044852  0  0.097647  0.149286  0  1.002485  0
H  H48  1  0.30576292  0.00262881  0.56475508  1  0.036607  0  0.090226  0.135571  0  1.018474  0
H  H49  1  0.06126874  0.25911381  0.06456231  1  0.031801  0  0.090036  0.135321  0  1.018159  0
H  H50  1  0.23971288  0.88679246  0.48990329  1  0.058189  0  0.096125  0.145007  0  1.010115  0
H  H51  1  0.10213097  0.25066422  0.98966727  1  0.056549  0  0.096297  0.145271  0  1.010002  0
H  H52  1  0.15292749  0.93491227  0.63525766  1  0.038653  0  0.087563  0.113472  0  1.065258  0
H  H53  1  0.19954852  0.48256630  0.13502390  1  0.04017  0  0.087726  0.113706  0  1.065636  0
H  H54  1  0.05990483  0.00471455  0.70358732  1  0.066387  0  0.102588  0.099328  0  1.01223  0
H  H55  1  0.19900360  0.64257899  0.20393822  1  0.059212  0  0.10242  0.09967  0  1.012045  0
H  H56  1  0.00698592  0.06224384  0.80242417  1  0.125745  0  0.102483  0.109792  0  1.083151  0
H  H57  1  0.24058733  0.79419790  0.30281660  1  0.124568  0  0.102515  0.109826  0  1.082991  0
H  H58  1  0.77476130  0.58451941  0.80591966  1  0.072991  0  0.107773  0.112986  0  1.004214  0
H  H59  1  0.72132995  0.03151501  0.30558694  1  0.082014  0  0.107936  0.113133  0  1.004825  0
H  H60  1  0.82349273  0.52983006  0.70409317  1  0.094433  0  0.110069  0.115199  0  1.013118  0
H  H61  1  0.67390734  0.88093421  0.20373498  1  0.093995  0  0.110472  0.115581  0  1.012371  0
H  H62  1  0.95225576  0.10778134  0.88217597  1  0.143746  0  0.122209  0.124211  0  1.040429  0
H  H63  1  0.27456874  0.92982316  0.38221158  1  0.144797  0  0.122284  0.124373  0  1.041193  0
H  H64  1  0.80903390  0.06477654  0.98027691  1  0.12495  0  0.124812  0.120832  0  1.011086  0
H  H65  1  0.41583493  0.17133006  0.48020064  1  0.142031  0  0.124951  0.12162  0  1.010537  0
H  H66  1  0.71249112  0.63905927  0.88535275  1  0.15682  0  0.143277  0.111511  0  0.99178  0
H  H67  1  0.74669155  0.17226602  0.38535402  1  0.140479  0  0.143345  0.111901  0  0.99145  0
H  H68  1  0.79305869  0.46178695  0.37785376  1  0.636663  0  0.279282  0.340704  0  1.029772  0
H  H69  1  0.41608682  0.58460330  0.87785972  1  0.63837  0  0.279533  0.341125  0  1.029064  0
H  H70  1  0.96039188  0.55716431  0.42148306  1  0.601501  0  0.313448  0.400923  0  0.901666  0
H  H71  1  0.36434892  0.46093374  0.92151895  1  0.607334  0  0.313271  0.401086  0  0.901366  0
C  C72  1  0.08277859  0.14651600  0.49563153  1  -0.09902  0  -0.245629  -0.479187  0  3.896102  0
C  C73  1  0.84933876  0.41282758  0.99531971  1  -0.065857  0  -0.246607  -0.480131  0  3.89414  0
C  C74  1  0.97302493  0.19695425  0.51943455  1  0.7965  0  0.128885  0.516295  0  4.0249  0
C  C75  1  0.82270302  0.54634425  0.01919854  1  0.821265  0  0.129474  0.517145  0  4.020213  0
C  C76  1  0.88754005  0.11006319  0.55839882  1  -0.045927  0  -0.159593  -0.467482  0  3.974693  0
C  C77  1  0.94866308  0.67078719  0.05813575  1  -0.054878  0  -0.159553  -0.46738  0  3.972881  0
C  C78  1  0.78937651  0.15096272  0.58622117  1  0.71661  0  0.11703  0.389883  0  4.11532  0
C  C79  1  0.93537516  0.79645235  0.08609876  1  0.735363  0  0.117465  0.389854  0  4.11525  0
C  C80  1  0.70202262  0.05626698  0.62749299  1  -0.02027  0  -0.016343  -0.003437  0  3.951781  0
C  C81  1  0.07113020  0.92510092  0.12744009  1  -0.015821  0  -0.01631  -0.003229  0  3.949113  0
C  C82  1  0.68779587  0.91048270  0.63316216  1  -0.022892  0  -0.078753  -0.083036  0  3.967041  0
C  C83  1  0.22267740  0.94506440  0.13328357  1  -0.078809  0  -0.078473  -0.081872  0  3.966003  0
C  C84  1  0.60177105  0.82843727  0.67177122  1  -0.044155  0  -0.091359  -0.167817  0  3.986524  0
C  C85  1  0.34316478  0.06956992  0.17202195  1  0.013537  0  -0.091083  -0.16835  0  3.986589  0
C  C86  1  0.52968966  0.89239084  0.70580624  1  0.340837  0  0.09617  0.175179  0  4.018647  0
C  C87  1  0.31307560  0.17568883  0.20595023  1  0.298381  0  0.096252  0.175141  0  4.017006  0
C  C88  1  0.54323010  0.03809156  0.70101059  1  -0.034796  0  -0.097584  -0.178636  0  4.011509  0
C  C89  1  0.16245506  0.15734440  0.20093939  1  -0.008635  0  -0.097502  -0.178613  0  4.011235  0
C  C90  1  0.62839155  0.11790040  0.66206158  1  -0.042655  0  -0.082245  -0.084489  0  3.985996  0
C  C91  1  0.04384340  0.03327030  0.16191540  1  -0.060222  0  -0.082486  -0.085099  0  3.982465  0
C  C92  1  0.31949646  0.82193866  0.76241265  1  0.32265  0  -0.00727  -0.117083  0  3.940161  0
C  C93  1  0.44003768  0.44265458  0.26240248  1  0.293988  0  -0.007384  -0.118348  0  3.939808  0
C  C94  1  0.28381467  0.73180334  0.80620771  1  0.403246  0  0.000937  -0.020154  0  3.997099  0
C  C95  1  0.57414644  0.52241763  0.30609989  1  0.461212  0  0.00115  -0.019081  0  3.993133  0
C  C96  1  0.48065496  0.71696365  0.78114318  1  0.951716  0  0.134492  0.088762  0  3.929055  0
C  C97  1  0.56378402  0.30038657  0.28137551  1  0.975281  0  0.134173  0.087326  0  3.930171  0
C  C98  1  0.64511664  0.79715411  0.44102622  1  -0.103603  0  -0.25009  -0.48625  0  3.911256  0
C  C99  1  0.14429197  0.79662399  0.94098241  1  -0.097059  0  -0.25034  -0.487175  0  3.914296  0
C  C100  1  0.64496369  0.67274105  0.47660757  1  0.782578  0  0.127577  0.522421  0  4.011438  0
C  C101  1  0.30418072  0.83221209  0.97665271  1  0.770799  0  0.127343  0.522523  0  4.012101  0
C  C102  1  0.53228626  0.61790557  0.51087544  1  -0.01915  0  -0.159417  -0.467425  0  3.9726  0
C  C103  1  0.39320708  0.97890454  0.01104883  1  -0.028431  0  -0.159935  -0.467666  0  3.972272  0
C  C104  1  0.51541554  0.49745632  0.54307065  1  0.729941  0  0.119642  0.396633  0  4.092604  0
C  C105  1  0.54573617  0.02765409  0.04333894  1  0.727432  0  0.120193  0.397762  0  4.092514  0
C  C106  1  0.41187032  0.46126142  0.58673787  1  -0.04144  0  -0.017171  -0.005511  0  3.945538  0
C  C107  1  0.62574056  0.17491580  0.08696320  1  -0.066571  0  -0.016734  -0.00599  0  3.947267  0
C  C108  1  0.30042334  0.51515250  0.58888331  1  -0.011626  0  -0.071709  -0.069401  0  3.934898  0
C  C109  1  0.57364419  0.28822375  0.08921585  1  -0.00088  0  -0.07211  -0.070059  0  3.936071  0
C  C110  1  0.21564427  0.48420783  0.63367125  1  -0.017998  0  -0.085155  -0.158392  0  3.940478  0
C  C111  1  0.64941305  0.41783922  0.13395832  1  -0.00982  0  -0.085143  -0.15724  0  3.939232  0
C  C112  1  0.23885664  0.39587517  0.67687793  1  0.314184  0  0.09666  0.173738  0  4.021425  0
C  C113  1  0.78137797  0.43824228  0.17699351  1  0.322096  0  0.096548  0.173151  0  4.022053  0
C  C114  1  0.34683962  0.33754208  0.67423840  1  -0.021544  0  -0.102611  -0.193826  0  4.031781  0
C  C115  1  0.83740948  0.32791330  0.17426924  1  -0.084324  0  -0.103181  -0.193343  0  4.030717  0
C  C116  1  0.43206133  0.37102673  0.62981724  1  -0.087976  0  -0.08835  -0.095665  0  3.988257  0
C  C117  1  0.75951391  0.19821994  0.12987898  1  -0.028759  0  -0.088358  -0.096325  0  3.989326  0
C  C118  1  0.01301930  0.36893695  0.72002864  1  0.265665  0  -0.001801  -0.106429  0  3.908387  0
C  C119  1  0.85192336  0.70731920  0.22000036  1  0.294118  0  -0.002039  -0.106217  0  3.911611  0
C  C120  1  0.97703290  0.33483493  0.77513447  1  0.429727  0  -0.013917  -0.039714  0  4.055381  0
C  C121  1  0.94129213  0.79844742  0.27504972  1  0.378872  0  -0.013541  -0.039769  0  4.057661  0
C  C122  1  0.19534512  0.32943511  0.77937305  1  0.969582  0  0.129224  0.088806  0  3.971225  0
C  C123  1  0.95014309  0.58413078  0.27945535  1  0.962506  0  0.12963  0.089481  0  3.970687  0
C  C124  1  0.26408917  0.88765126  0.53969470  1  -0.091825  0  -0.245394  -0.488806  0  3.910095  0
C  C125  1  0.15114585  0.27576246  0.03945421  1  -0.078452  0  -0.245456  -0.489617  0  3.909469  0
C  C126  1  0.12395838  0.77716716  0.55671073  1  0.779756  0  0.131319  0.521539  0  4.009261  0
C  C127  1  0.27885531  0.43279434  0.05657038  1  0.787353  0  0.130553  0.520742  0  4.011706  0
C  C128  1  0.08414330  0.82018147  0.61050174  1  -0.056573  0  -0.157321  -0.467435  0  3.97083  0
C  C129  1  0.28976151  0.52641019  0.11037971  1  -0.086887  0  -0.156908  -0.466851  0  3.971433  0
C  C130  1  0.97292037  0.71714770  0.63616443  1  0.745319  0  0.120975  0.395599  0  4.103134  0
C  C131  1  0.41886694  0.66283962  0.13618728  1  0.774644  0  0.120813  0.394897  0  4.104472  0
C  C132  1  0.94785123  0.76162400  0.69711053  1  0.042629  0  -0.015893  -0.006011  0  3.955035  0
C  C133  1  0.43543244  0.74897114  0.19710298  1  -0.100291  0  -0.016153  -0.006032  0  3.957532  0
C  C134  1  0.99933190  0.91131568  0.72596457  1  -0.127051  0  -0.080907  -0.083233  0  3.976547  0
C  C135  1  0.31477223  0.72590068  0.22612517  1  -0.069999  0  -0.080094  -0.083439  0  3.977713  0
C  C136  1  0.96885858  0.94468754  0.78225546  1  0.008119  0  -0.09568  -0.171314  0  3.962376  0
C  C137  1  0.33783286  0.81252097  0.28247380  1  0.049494  0  -0.09642  -0.172203  0  3.961968  0
C  C138  1  0.88645148  0.82791913  0.81130162  1  0.258468  0  0.099205  0.172261  0  4.02793  0
C  C139  1  0.48356159  0.92438209  0.31135549  1  0.2438  0  0.099407  0.173294  0  4.028839  0
C  C140  1  0.83663608  0.67740332  0.78367942  1  -0.061383  0  -0.096495  -0.193994  0  4.025009  0
C  C141  1  0.60625455  0.94706542  0.28352313  1  -0.041248  0  -0.096728  -0.194959  0  4.027418  0
C  C142  1  0.86544203  0.64591408  0.72693858  1  0.010669  0  -0.078013  -0.07633  0  3.965257  0
C  C143  1  0.58089096  0.86160995  0.22675156  1  0.036982  0  -0.077865  -0.075816  0  3.965882  0
C  C144  1  0.88211239  0.00566543  0.89725657  1  0.267847  0  -0.001951  -0.112541  0  3.892142  0
C  C145  1  0.39180648  0.01492832  0.39727144  1  0.238294  0  -0.001161  -0.11162  0  3.893069  0
C  C146  1  0.81110979  0.98319018  0.94530992  1  0.409134  0  0.011673  0.005087  0  3.98232  0
C  C147  1  0.46236944  0.13410726  0.44524770  1  0.436666  0  0.011061  0.003356  0  3.984486  0
C  C148  1  0.75895976  0.76044786  0.89796047  1  0.967815  0  0.150748  0.118165  0  3.918815  0
C  C149  1  0.63787071  0.13852755  0.39796486  1  0.983667  0  0.150788  0.117663  0  3.916557  0
N  N150  1  0.44554310  0.81186419  0.74656863  1  -1.289401  0  -0.228472  0.005802  0  3.811244  0
N  N151  1  0.43423736  0.30069422  0.24674374  1  -1.27478  0  -0.228175  0.008118  0  3.807569  0
N  N152  1  0.38596599  0.66830426  0.81787295  1  -1.205821  0  -0.322754  -0.272362  0  3.398416  0
N  N153  1  0.64930899  0.43198803  0.31793720  1  -1.19216  0  -0.322131  -0.271538  0  3.398047  0
N  N154  1  0.15318764  0.36438142  0.72269455  1  -1.259276  0  -0.230038  -0.001819  0  3.7931  0
N  N155  1  0.85876775  0.56976131  0.22273358  1  -1.267593  0  -0.230078  -0.002458  0  3.795006  0
N  N156  1  0.09150159  0.31084791  0.81205985  1  -1.206594  0  -0.356528  -0.328598  0  3.314372  0
N  N157  1  0.00177626  0.72077082  0.31206161  1  -1.179228  0  -0.356786  -0.329322  0  3.314803  0
N  N158  1  0.84818665  0.86225242  0.86687128  1  -1.256309  0  -0.227089  -0.001304  0  3.794217  0
N  N159  1  0.50485659  0.01832423  0.36688896  1  -1.26699  0  -0.22793  -0.002151  0  3.794408  0
N  N160  1  0.73399893  0.83002892  0.94500054  1  -1.224146  0  -0.403533  -0.382469  0  3.484683  0
N  N161  1  0.61525286  0.21069810  0.44493269  1  -1.234487  0  -0.403225  -0.381335  0  3.484584  0
O  O162  1  0.96480809  0.31496833  0.50312015  1  -1.167699  0  -0.377029  -0.59073  0  2.284503  0
O  O163  1  0.68826261  0.53811971  0.00302327  1  -1.162633  0  -0.376798  -0.591089  0  2.282446  0
O  O164  1  0.76985432  0.27057572  0.57976890  1  -1.162171  0  -0.38878  -0.597102  0  2.383933  0
O  O165  1  0.80909354  0.80914231  0.07974987  1  -1.161389  0  -0.389821  -0.59775  0  2.386302  0
O  O166  1  0.74804145  0.62634691  0.47425747  1  -1.170986  0  -0.380592  -0.600194  0  2.251645  0
O  O167  1  0.34811337  0.72672054  0.97431266  1  -1.169819  0  -0.380394  -0.600178  0  2.249927  0
O  O168  1  0.58963815  0.41701642  0.53965316  1  -1.150992  0  -0.383184  -0.589624  0  2.372025  0
O  O169  1  0.62263875  0.94987348  0.03999038  1  -1.153088  0  -0.383268  -0.590168  0  2.370848  0
O  O170  1  0.05302617  0.64779503  0.52215093  1  -1.173026  0  -0.368539  -0.586059  0  2.260961  0
O  O171  1  0.37377792  0.46905577  0.02204909  1  -1.164512  0  -0.368152  -0.585714  0  2.262925  0
O  O172  1  0.89178901  0.57869708  0.61121402  1  -1.17095  0  -0.391438  -0.59164  0  2.372424  0
O  O173  1  0.53256254  0.71857469  0.11128312  1  -1.1638  0  -0.392118  -0.591818  0  2.372841  0
O  O174  1  0.87226209  0.45915482  0.41326528  1  -1.242557  0  -0.63305  -0.840252  0  2.156518  0
O  O175  1  0.45411224  0.54096186  0.91332747  1  -1.250415  0  -0.63281  -0.840254  0  2.155754  0
