# generated using pymatgen
data_AlH18C24(NO)6
_symmetry_space_group_name_H-M   'P 1'
_cell_length_a   3.95251712
_cell_length_b   29.17686072
_cell_length_c   29.17714608
_cell_angle_alpha   120.00303581
_cell_angle_beta   89.99488302
_cell_angle_gamma   89.99795222
_symmetry_Int_Tables_number   1
_chemical_formula_structural   AlH18C24(NO)6
_chemical_formula_sum   'Al2 H36 C48 N12 O12'
_cell_volume   2913.88544236
_cell_formula_units_Z   2
loop_
 _symmetry_equiv_pos_site_id
 _symmetry_equiv_pos_as_xyz
  1  'x, y, z'
loop_
 _atom_site_type_symbol
 _atom_site_label
 _atom_site_symmetry_multiplicity
 _atom_site_fract_x
 _atom_site_fract_y
 _atom_site_fract_z
 _atom_site_occupancy
 _atom_site_pbe_bader_charge
 _atom_site_pbe_bader_spin_density
 _atom_site_pbe_cm5_charge
 _atom_site_pbe_ddec_charge
 _atom_site_pbe_ddec_spin_density
 _atom_site_pbe_ddec_sum_bond_order
 _atom_site_pbe_magmom
Al  Al0  1  0.00003726  0.49997831  0.50000988  1  2.502561  0  0.42039  1.589886  0  2.572699  0
Al  Al1  1  0.99966429  0.16665792  0.83334378  1  2.502543  0  0.419224  1.589251  0  2.575672  0
H  H2  1  0.20991710  0.22771093  0.64723647  1  0.054596  0  0.100676  0.120009  0  1.003015  0
H  H3  1  0.78979614  0.35272461  0.77224627  1  0.055911  0  0.100569  0.119732  0  1.002925  0
H  H4  1  0.78886818  0.31378020  0.56098043  1  0.06063  0  0.100728  0.119786  0  1.003168  0
H  H5  1  0.21111013  0.43898252  0.68619290  1  0.060095  0  0.100704  0.119759  0  1.003122  0
H  H6  1  0.20977218  0.91948202  0.77224274  1  0.03893  0  0.100637  0.119833  0  1.003117  0
H  H7  1  0.78975586  0.91949162  0.64723432  1  0.040065  0  0.100734  0.120041  0  1.002954  0
H  H8  1  0.78879902  0.74718322  0.68619804  1  0.061561  0  0.10063  0.119679  0  1.002814  0
H  H9  1  0.21123940  0.74715977  0.56096757  1  0.060346  0  0.100614  0.119494  0  1.003066  0
H  H10  1  0.20981130  0.35281202  0.08048984  1  0.038501  0  0.100764  0.120276  0  1.002823  0
H  H11  1  0.78972852  0.22781247  0.08052240  1  0.039211  0  0.100573  0.119537  0  1.003064  0
H  H12  1  0.78864810  0.43912560  0.25285954  1  0.059299  0  0.100508  0.119484  0  1.0029  0
H  H13  1  0.21111815  0.31386666  0.25279356  1  0.059056  0  0.100596  0.119744  0  1.002591  0
H  H14  1  0.10766424  0.15407190  0.71413128  1  0.476329  0  0.300265  0.308862  0  0.982959  0
H  H15  1  0.99847180  0.16144439  0.66117416  1  0.438307  0  0.305786  0.304248  0  0.938531  0
H  H16  1  0.89168614  0.28586195  0.84591966  1  0.478103  0  0.299986  0.308737  0  0.982781  0
H  H17  1  0.00081399  0.33882374  0.83854025  1  0.43222  0  0.305687  0.304243  0  0.938826  0
H  H18  1  0.89163507  0.38069632  0.48736788  1  0.478503  0  0.29991  0.308702  0  0.982921  0
H  H19  1  0.00027333  0.32770554  0.49471454  1  0.437556  0  0.305729  0.304112  0  0.938334  0
H  H20  1  0.10840247  0.51261749  0.61930167  1  0.478572  0  0.299913  0.308546  0  0.983386  0
H  H21  1  0.99972507  0.50525815  0.67227928  1  0.437447  0  0.305736  0.303948  0  0.938617  0
H  H22  1  0.10769040  0.06002715  0.84591144  1  0.473447  0  0.300151  0.308556  0  0.983365  0
H  H23  1  0.99836517  0.99969563  0.83853332  1  0.443057  0  0.305805  0.30448  0  0.937823  0
H  H24  1  0.89183725  0.06002233  0.71412194  1  0.512653  0  0.300048  0.308534  0  0.982984  0
H  H25  1  0.00091991  0.99969296  0.66116094  1  0.42651  0  0.305855  0.304327  0  0.93877  0
H  H26  1  0.89154968  0.60665021  0.61930085  1  0.472201  0  0.299941  0.30857  0  0.983559  0
H  H27  1  0.00017437  0.66698089  0.67228315  1  0.443198  0  0.305738  0.304054  0  0.938389  0
H  H28  1  0.10855852  0.60663457  0.48736958  1  0.476268  0  0.300031  0.308824  0  0.983177  0
H  H29  1  0.99991724  0.66695412  0.49470626  1  0.438325  0  0.30589  0.304272  0  0.938378  0
H  H30  1  0.10753345  0.28587549  0.93995702  1  0.510709  0  0.300196  0.30871  0  0.983136  0
H  H31  1  0.99835608  0.33884864  0.00028475  1  0.445913  0  0.305728  0.304186  0  0.938364  0
H  H32  1  0.89160498  0.15409976  0.93998658  1  0.473374  0  0.299966  0.308485  0  0.983031  0
H  H33  1  0.00076622  0.16148633  0.00031857  1  0.433577  0  0.30588  0.304455  0  0.938715  0
H  H34  1  0.89154414  0.51265927  0.39339290  1  0.475165  0  0.299895  0.308758  0  0.982992  0
H  H35  1  0.00011692  0.50535467  0.33306767  1  0.438761  0  0.305724  0.304145  0  0.938119  0
H  H36  1  0.10856115  0.38069876  0.39332715  1  0.473758  0  0.2999  0.308537  0  0.983428  0
H  H37  1  0.99986194  0.32773820  0.33298789  1  0.443516  0  0.305724  0.303902  0  0.938681  0
C  C38  1  0.50005131  0.45846955  0.41696737  1  1.420134  0  0.258652  0.656938  0  4.037534  0
C  C39  1  0.50000707  0.45846079  0.54153627  1  1.47601  0  0.258537  0.656725  0  4.037299  0
C  C40  1  0.50002413  0.58303225  0.54153559  1  1.475064  0  0.258728  0.656889  0  4.038148  0
C  C41  1  0.49976027  0.20814243  0.79181683  1  1.434946  0  0.258145  0.656797  0  4.038629  0
C  C42  1  0.49978367  0.08363684  0.79184143  1  1.417233  0  0.258361  0.657125  0  4.038657  0
C  C43  1  0.49972109  0.20819029  0.91635172  1  1.428133  0  0.258308  0.656828  0  4.038519  0
C  C44  1  0.49977581  0.23703437  0.76291448  1  0.003208  0  -0.043838  -0.302951  0  3.871082  0
C  C45  1  0.32940911  0.21612539  0.71286899  1  0.440681  0  0.106503  0.322793  0  4.091135  0
C  C46  1  0.33982542  0.24380205  0.68511317  1  0.022511  0  -0.121603  -0.307422  0  3.955276  0
C  C47  1  0.49991284  0.29314494  0.70678650  1  0.01366  0  0.001549  0.190376  0  4.184717  0
C  C48  1  0.65988121  0.31483387  0.75614135  1  0.023049  0  -0.121393  -0.306761  0  3.954593  0
C  C49  1  0.66996833  0.28709819  0.78384204  1  0.442914  0  0.105977  0.322162  0  4.091038  0
C  C50  1  0.49990292  0.32123414  0.67871704  1  -0.132289  0  -0.038226  -0.093916  0  4.065335  0
C  C51  1  0.49988215  0.34536616  0.65457179  1  -0.240447  0  -0.036132  -0.088853  0  4.064665  0
C  C52  1  0.49997849  0.37344861  0.62651182  1  0.134568  0  0.000437  0.186994  0  4.187961  0
C  C53  1  0.65934082  0.35170205  0.57710407  1  0.006975  0  -0.121133  -0.3061  0  3.954681  0
C  C54  1  0.66974443  0.37946599  0.54943988  1  0.454345  0  0.105855  0.322229  0  4.091542  0
C  C55  1  0.49998141  0.42956346  0.57043165  1  -0.098924  0  -0.043256  -0.301841  0  3.869646  0
C  C56  1  0.33019522  0.45053757  0.62052017  1  0.454624  0  0.105892  0.322268  0  4.091432  0
C  C57  1  0.34057580  0.42285681  0.64826669  1  0.008219  0  -0.12102  -0.305917  0  3.953729  0
C  C58  1  0.49977228  0.02584313  0.76293109  1  0.090033  0  -0.044245  -0.303676  0  3.871262  0
C  C59  1  0.32935592  0.99671230  0.78384187  1  0.445973  0  0.106502  0.322781  0  4.09106  0
C  C60  1  0.33963602  0.94128672  0.75615868  1  -0.014076  0  -0.121442  -0.306789  0  3.955542  0
C  C61  1  0.49982893  0.91363064  0.70681647  1  0.099018  0  0.001581  0.189958  0  4.185055  0
C  C62  1  0.65983155  0.94128399  0.68512122  1  0.082944  0  -0.121367  -0.306968  0  3.956133  0
C  C63  1  0.66996122  0.99670936  0.71286114  1  0.336379  0  0.106304  0.322889  0  4.091236  0
C  C64  1  0.49986768  0.85746405  0.67872078  1  -0.128648  0  -0.038454  -0.093728  0  4.065846  0
C  C65  1  0.49992695  0.80917879  0.65458449  1  -0.174942  0  -0.0362  -0.089363  0  4.063775  0
C  C66  1  0.50003146  0.75301960  0.62650608  1  0.120912  0  0.000851  0.187218  0  4.186121  0
C  C67  1  0.65933674  0.72536534  0.64826926  1  -0.0014  0  -0.121037  -0.305993  0  3.954276  0
C  C68  1  0.66972312  0.66993464  0.62050893  1  0.415376  0  0.105556  0.322184  0  4.091583  0
C  C69  1  0.49999252  0.64082497  0.57041881  1  -0.010074  0  -0.043317  -0.302103  0  3.870192  0
C  C70  1  0.33026308  0.66992812  0.54943414  1  0.506032  0  0.105274  0.321459  0  4.092398  0
C  C71  1  0.34067613  0.72535588  0.57709215  1  -0.120187  0  -0.12091  -0.305267  0  3.954329  0
C  C72  1  0.49972707  0.23709752  0.97414454  1  0.069209  0  -0.044159  -0.303206  0  3.870661  0
C  C73  1  0.32937029  0.28715739  0.00327271  1  0.337089  0  0.106327  0.322505  0  4.091061  0
C  C74  1  0.33975030  0.31493115  0.05870482  1  0.081801  0  -0.121375  -0.307304  0  3.955938  0
C  C75  1  0.49987015  0.29326502  0.08637813  1  0.103621  0  0.001208  0.18975  0  4.185792  0
C  C76  1  0.65982624  0.24390183  0.05872410  1  -0.016393  0  -0.121298  -0.306195  0  3.95589  0
C  C77  1  0.66992938  0.21618907  0.00329437  1  0.447834  0  0.106562  0.322857  0  4.091467  0
C  C78  1  0.49981349  0.32136445  0.14254592  1  -0.128541  0  -0.037752  -0.093411  0  4.06683  0
C  C79  1  0.49980030  0.34552919  0.19082077  1  -0.161883  0  -0.036668  -0.089319  0  4.066088  0
C  C80  1  0.49982715  0.37356822  0.24697012  1  0.132273  0  0.00084  0.187178  0  4.186902  0
C  C81  1  0.65919920  0.42297408  0.27464027  1  -0.14119  0  -0.12077  -0.305413  0  3.953896  0
C  C82  1  0.66960958  0.45061642  0.33007631  1  0.501007  0  0.105498  0.322109  0  4.091158  0
C  C83  1  0.49994159  0.42960418  0.35916971  1  0.04484  0  -0.043085  -0.302019  0  3.869373  0
C  C84  1  0.33017923  0.37952153  0.33004119  1  0.419125  0  0.105808  0.322405  0  4.090688  0
C  C85  1  0.34052020  0.35179003  0.27460895  1  -0.000632  0  -0.121094  -0.306107  0  3.953313  0
N  N86  1  0.17225706  0.16752143  0.68921183  1  -1.226585  0  -0.60254  -0.622885  0  3.305744  0
N  N87  1  0.82706004  0.31077207  0.83245552  1  -1.222742  0  -0.601956  -0.622741  0  3.306034  0
N  N88  1  0.82660204  0.35577194  0.50079990  1  -1.239474  0  -0.601976  -0.622848  0  3.305996  0
N  N89  1  0.17341819  0.49918139  0.64422116  1  -1.239325  0  -0.601999  -0.622498  0  3.306597  0
N  N90  1  0.17222295  0.02164980  0.83244899  1  -1.25596  0  -0.602537  -0.623005  0  3.305237  0
N  N91  1  0.82716460  0.02165146  0.68921094  1  -1.261453  0  -0.60242  -0.622843  0  3.306484  0
N  N92  1  0.82652018  0.64500440  0.64421847  1  -1.246011  0  -0.601882  -0.622615  0  3.306276  0
N  N93  1  0.17355863  0.64498321  0.50079744  1  -1.253141  0  -0.602  -0.622877  0  3.306364  0
N  N94  1  0.17216057  0.31080358  0.97832287  1  -1.276071  0  -0.602334  -0.622627  0  3.305664  0
N  N95  1  0.82701209  0.16757545  0.97836253  1  -1.244632  0  -0.602615  -0.623351  0  3.306791  0
N  N96  1  0.82648038  0.49925411  0.35504468  1  -1.251464  0  -0.601975  -0.623152  0  3.305289  0
N  N97  1  0.17352234  0.35579683  0.35496576  1  -1.247968  0  -0.602037  -0.622596  0  3.306379  0
O  O98  1  0.73227630  0.55776015  0.55119708  1  -1.26662  0  -0.248742  -0.616465  0  2.402789  0
O  O99  1  0.73234911  0.49339077  0.44223820  1  -1.266642  0  -0.248383  -0.61642  0  2.402912  0
O  O100  1  0.73231429  0.44880270  0.50660745  1  -1.264961  0  -0.248673  -0.61682  0  2.403398  0
O  O101  1  0.26774079  0.55775955  0.50661369  1  -1.267249  0  -0.248527  -0.616481  0  2.402914  0
O  O102  1  0.26767675  0.49339068  0.55119514  1  -1.265574  0  -0.248651  -0.616688  0  2.403069  0
O  O103  1  0.26773693  0.44880072  0.44223242  1  -1.267487  0  -0.248758  -0.616841  0  2.402947  0
O  O104  1  0.73201330  0.17325066  0.89109177  1  -1.27  0  -0.247982  -0.616091  0  2.402721  0
O  O105  1  0.73203800  0.21780692  0.82674611  1  -1.270356  0  -0.248056  -0.616358  0  2.403453  0
O  O106  1  0.73206839  0.10890383  0.78217958  1  -1.274053  0  -0.248001  -0.616336  0  2.403031  0
O  O107  1  0.26738979  0.21783740  0.89107959  1  -1.27246  0  -0.248073  -0.616368  0  2.402829  0
O  O108  1  0.26750482  0.10891538  0.82677392  1  -1.271159  0  -0.248136  -0.616301  0  2.402556  0
O  O109  1  0.26746515  0.17321395  0.78215858  1  -1.269497  0  -0.248055  -0.616289  0  2.40234  0
