# generated using pymatgen
data_Co4H40C37O30
_symmetry_space_group_name_H-M   'P 1'
_cell_length_a   11.42404604
_cell_length_b   20.19440304
_cell_length_c   20.19429580
_cell_angle_alpha   89.99521098
_cell_angle_beta   89.99971188
_cell_angle_gamma   90.00015431
_symmetry_Int_Tables_number   1
_chemical_formula_structural   Co4H40C37O30
_chemical_formula_sum   'Co8 H80 C74 O60'
_cell_volume   4658.86017315
_cell_formula_units_Z   2
loop_
 _symmetry_equiv_pos_site_id
 _symmetry_equiv_pos_as_xyz
  1  'x, y, z'
loop_
 _atom_site_type_symbol
 _atom_site_label
 _atom_site_symmetry_multiplicity
 _atom_site_fract_x
 _atom_site_fract_y
 _atom_site_fract_z
 _atom_site_occupancy
 _atom_site_pbe_bader_charge
 _atom_site_pbe_bader_spin_density
 _atom_site_pbe_cm5_charge
 _atom_site_pbe_ddec_charge
 _atom_site_pbe_ddec_spin_density
 _atom_site_pbe_ddec_sum_bond_order
 _atom_site_pbe_magmom
Co  Co0  1  0.47688081  0.73795924  0.23796291  1  1.31327  2.663561  0.638683  1.02274  2.87432  2.348245  2.65
Co  Co1  1  0.52309867  0.23801876  0.26197913  1  1.313107  2.66361  0.638661  1.022921  2.874483  2.347316  2.65
Co  Co2  1  0.47688346  0.26205450  0.76206099  1  1.313245  2.663402  0.638614  1.02264  2.874067  2.348252  2.649
Co  Co3  1  0.52311270  0.76197672  0.73802335  1  1.313072  2.663565  0.638589  1.022848  2.874498  2.347354  2.65
Co  Co4  1  0.57724125  0.63584916  0.13585355  1  1.250302  2.580443  0.600775  0.983982  2.758452  2.319632  2.562
Co  Co5  1  0.42281826  0.13586483  0.36413714  1  1.250314  2.580661  0.601118  0.984416  2.758542  2.318889  2.562
Co  Co6  1  0.57731177  0.36417216  0.86417354  1  1.25078  2.580519  0.60111  0.984413  2.758866  2.320206  2.562
Co  Co7  1  0.42283807  0.86413051  0.63586711  1  1.250461  2.580663  0.601065  0.98443  2.758531  2.319234  2.562
H  H8  1  0.66870672  0.68412874  0.24727197  1  0.649967  0.000235  0.285838  0.379532  0.000372  0.981292  0.0
H  H9  1  0.33128988  0.24727190  0.31587097  1  0.650016  0.000233  0.285884  0.379567  0.000372  0.981242  0.0
H  H10  1  0.66870271  0.31588133  0.75272663  1  0.649931  0.000235  0.285882  0.37962  0.000372  0.981187  0.0
H  H11  1  0.33131310  0.75273469  0.68412711  1  0.650025  0.000233  0.28582  0.379521  0.000372  0.981322  0.0
H  H12  1  0.33129351  0.18413031  0.25273598  1  0.650178  0.000233  0.285886  0.379543  0.000372  0.981257  0.0
H  H13  1  0.33130947  0.81586984  0.74726656  1  0.650134  0.000233  0.285794  0.379393  0.000373  0.981497  0.0
H  H14  1  0.66869877  0.25273892  0.81587631  1  0.650037  0.000234  0.285894  0.379587  0.000371  0.981278  0.0
H  H15  1  0.66870452  0.74728105  0.18412626  1  0.649821  0.000236  0.285838  0.379635  0.000373  0.981168  0.0
H  H16  1  0.27768845  0.73430449  0.28850535  1  0.597973  -0.00037  0.320132  0.402107  -0.000459  0.889977  0.0
H  H17  1  0.72225151  0.28851295  0.26568719  1  0.597979  -0.000373  0.32002  0.401841  -0.000461  0.890173  0.0
H  H18  1  0.27769332  0.26570202  0.71150031  1  0.598111  -0.000371  0.320106  0.402061  -0.000459  0.889968  0.0
H  H19  1  0.72226708  0.71148977  0.73430433  1  0.597876  -0.000373  0.320112  0.402087  -0.000461  0.890063  0.0
H  H20  1  0.72225162  0.23431009  0.21148356  1  0.597878  -0.000373  0.320013  0.401758  -0.000461  0.890308  0.0
H  H21  1  0.72227397  0.76569263  0.78850796  1  0.598023  -0.000373  0.320123  0.402069  -0.000461  0.89  0.0
H  H22  1  0.27770082  0.21149712  0.76569560  1  0.598168  -0.000371  0.320085  0.402012  -0.00046  0.889963  0.0
H  H23  1  0.27768707  0.78850246  0.23430411  1  0.597985  -0.00037  0.320149  0.402152  -0.000458  0.889907  0.0
H  H24  1  0.48051316  0.58983112  0.03549707  1  0.611221  -7.1e-05  0.326371  0.409774  -0.000258  0.876228  0.0
H  H25  1  0.51947271  0.03551141  0.41015073  1  0.61132  -7.2e-05  0.326187  0.409646  -0.00026  0.876484  0.0
H  H26  1  0.48048759  0.41016579  0.96450850  1  0.61067  -6.9e-05  0.326452  0.409886  -0.000256  0.876027  0.0
H  H27  1  0.51946978  0.96449843  0.58983047  1  0.611497  -7.2e-05  0.326219  0.409579  -0.000259  0.876539  0.0
H  H28  1  0.51948223  0.08983904  0.46449053  1  0.61141  -7.3e-05  0.3263  0.409781  -0.00026  0.876404  0.0
H  H29  1  0.51946814  0.91016238  0.53549958  1  0.611379  -7.1e-05  0.326299  0.409769  -0.000259  0.876345  0.0
H  H30  1  0.48049759  0.46450539  0.91017852  1  0.611128  -6.9e-05  0.326351  0.409669  -0.000257  0.87648  0.0
H  H31  1  0.48051804  0.53549300  0.08983053  1  0.611212  -7.1e-05  0.326398  0.40984  -0.000258  0.87614  0.0
H  H32  1  0.73353219  0.72257926  0.08797084  1  0.636958  0.000512  0.322615  0.407468  0.000321  0.889379  0.0
H  H33  1  0.26648338  0.08797338  0.27738913  1  0.636619  0.000512  0.322809  0.407674  0.000321  0.889049  0.0
H  H34  1  0.73353621  0.27740961  0.91202461  1  0.636636  0.000516  0.322623  0.407414  0.000324  0.8894  0.0
H  H35  1  0.26647026  0.91201429  0.72259379  1  0.63656  0.000512  0.322803  0.407682  0.000321  0.889076  0.0
H  H36  1  0.26645422  0.22257981  0.41202449  1  0.636894  0.000512  0.322535  0.407362  0.000322  0.889456  0.0
H  H37  1  0.26649241  0.77738955  0.58797971  1  0.636557  0.000512  0.322893  0.407798  0.000321  0.88889  0.0
H  H38  1  0.73356426  0.41203323  0.77743247  1  0.637179  0.000514  0.322605  0.407331  0.000324  0.889474  0.0
H  H39  1  0.73350063  0.58797397  0.22260458  1  0.636831  0.000512  0.322755  0.407572  0.000321  0.889209  0.0
H  H40  1  0.68051525  0.68753939  0.02701655  1  0.616685  0.000406  0.331657  0.408264  4.9e-05  0.865346  0.0
H  H41  1  0.31942666  0.02702140  0.31246537  1  0.617186  0.000404  0.331746  0.408454  4.9e-05  0.865284  0.0
H  H42  1  0.68052853  0.31245832  0.97298351  1  0.616614  0.00041  0.331745  0.408349  5.2e-05  0.865165  0.0
H  H43  1  0.31944654  0.97296932  0.68753720  1  0.617075  0.000404  0.331692  0.408418  4.9e-05  0.865279  0.0
H  H44  1  0.31944209  0.18752254  0.47297428  1  0.617204  0.000404  0.331698  0.40841  4.9e-05  0.865362  0.0
H  H45  1  0.31943636  0.81245829  0.52702334  1  0.616952  0.000404  0.331787  0.408412  4.9e-05  0.865202  0.0
H  H46  1  0.68052700  0.47298871  0.81247058  1  0.616791  0.000408  0.331755  0.408362  5.1e-05  0.865129  0.0
H  H47  1  0.68053954  0.52701840  0.18753492  1  0.616905  0.000406  0.331714  0.408371  5e-05  0.865263  0.0
H  H48  1  0.25085926  0.83806363  0.10565288  1  0.102044  0.000159  0.108486  0.125882  1.2e-05  0.998113  0.0
H  H49  1  0.74908878  0.10563940  0.16193282  1  0.101774  0.000159  0.108533  0.125952  1.2e-05  0.998209  0.0
H  H50  1  0.25086113  0.16192997  0.89434890  1  0.102086  0.00016  0.108461  0.125795  1.3e-05  0.998138  0.0
H  H51  1  0.74908155  0.89435791  0.83805614  1  0.101699  0.000159  0.108481  0.125778  1.2e-05  0.998225  0.0
H  H52  1  0.74909268  0.33806588  0.39435805  1  0.102172  0.000159  0.108507  0.125892  1.2e-05  0.998233  0.0
H  H53  1  0.74908815  0.66194431  0.60564082  1  0.101681  0.000159  0.108467  0.125794  1.2e-05  0.998244  0.0
H  H54  1  0.25086185  0.39434962  0.66193742  1  0.102084  0.00016  0.108453  0.125787  1.3e-05  0.998251  0.0
H  H55  1  0.25086905  0.60565338  0.33806535  1  0.102043  0.000159  0.108456  0.125855  1.2e-05  0.998261  0.0
H  H56  1  0.21310128  0.88441265  0.89779845  1  0.117712  -6e-06  0.105428  0.117122  -8.3e-05  1.049288  0.0
H  H57  1  0.78689274  0.89780046  0.11558510  1  0.117648  -6e-06  0.105438  0.117163  -8.3e-05  1.049404  0.0
H  H58  1  0.21310033  0.11558138  0.10220046  1  0.117648  -6e-06  0.105429  0.117172  -8.3e-05  1.049329  0.0
H  H59  1  0.78689353  0.10220136  0.88441366  1  0.117617  -6e-06  0.105442  0.117143  -8.3e-05  1.049396  0.0
H  H60  1  0.78690335  0.38441264  0.60220188  1  0.117691  -6e-06  0.10545  0.117133  -8.3e-05  1.049321  0.0
H  H61  1  0.78689168  0.61558077  0.39780035  1  0.117342  -6e-06  0.105434  0.117136  -8.3e-05  1.049453  0.0
H  H62  1  0.21309923  0.60219674  0.61558352  1  0.117751  -6e-06  0.105393  0.117059  -8.3e-05  1.049302  0.0
H  H63  1  0.21310851  0.39779878  0.38441638  1  0.117641  -6e-06  0.105385  0.117098  -8.3e-05  1.049323  0.0
H  H64  1  0.45463242  0.73443460  0.95806396  1  0.089249  0.000544  0.101739  0.110989  0.000249  1.016835  0.0
H  H65  1  0.54532282  0.95807260  0.26557330  1  0.088566  0.000544  0.101779  0.110989  0.000249  1.01669  0.0
H  H66  1  0.45463535  0.26556425  0.04194069  1  0.089224  0.000543  0.101751  0.11104  0.000249  1.016852  0.0
H  H67  1  0.54533078  0.04193580  0.73442368  1  0.088688  0.000544  0.101745  0.111023  0.000249  1.016635  0.0
H  H68  1  0.54533297  0.23442886  0.54193108  1  0.088806  0.000544  0.101773  0.111038  0.000249  1.016645  0.0
H  H69  1  0.54533200  0.76557508  0.45806738  1  0.088694  0.000544  0.101791  0.111061  0.000249  1.016618  0.0
H  H70  1  0.45464681  0.54193881  0.76556418  1  0.088998  0.000543  0.101766  0.111082  0.000249  1.016676  0.0
H  H71  1  0.45462883  0.45806450  0.23443107  1  0.08924  0.000543  0.101779  0.111098  0.000249  1.01676  0.0
H  H72  1  0.02449983  0.90870840  0.94397559  1  0.091742  1e-05  0.107148  0.080888  -0.0  0.978764  0.0
H  H73  1  0.97551790  0.94399313  0.09129535  1  0.091077  1e-05  0.107098  0.080835  -0.0  0.978882  0.0
H  H74  1  0.02451055  0.09128535  0.05602286  1  0.092102  1e-05  0.107188  0.080951  -0.0  0.978804  0.0
H  H75  1  0.97552876  0.05600106  0.90869793  1  0.09096  1e-05  0.107152  0.081004  -0.0  0.978611  0.0
H  H76  1  0.97552680  0.40870312  0.55600884  1  0.090963  1e-05  0.107129  0.080934  -0.0  0.978643  0.0
H  H77  1  0.97552774  0.59129701  0.44399384  1  0.090962  1e-05  0.107112  0.081093  -0.0  0.978759  0.0
H  H78  1  0.02450142  0.55602145  0.59129024  1  0.091838  1e-05  0.10713  0.080852  -0.0  0.978849  0.0
H  H79  1  0.02451421  0.44397527  0.40871168  1  0.092026  1e-05  0.107182  0.080928  -0.0  0.978851  0.0
H  H80  1  0.13844651  0.96897407  0.93519172  1  0.086586  7e-06  0.1086  0.082636  -3e-06  0.980417  0.0
H  H81  1  0.86158478  0.93518421  0.03102539  1  0.085518  7e-06  0.108555  0.082589  -3e-06  0.980434  0.0
H  H82  1  0.13845599  0.03101787  0.06480295  1  0.086535  7e-06  0.108649  0.082695  -3e-06  0.980458  0.0
H  H83  1  0.86159952  0.06482119  0.96896870  1  0.085649  7e-06  0.108482  0.082525  -3e-06  0.980549  0.0
H  H84  1  0.86159092  0.46897283  0.56481888  1  0.085564  7e-06  0.108574  0.082593  -3e-06  0.980376  0.0
H  H85  1  0.86159427  0.53102812  0.43518165  1  0.085607  7e-06  0.10855  0.082569  -3e-06  0.980394  0.0
H  H86  1  0.13844820  0.56480768  0.53102517  1  0.086477  7e-06  0.108637  0.082705  -3e-06  0.980406  0.0
H  H87  1  0.13845517  0.43519466  0.46897891  1  0.086492  7e-06  0.108684  0.082761  -3e-06  0.980457  0.0
C  C88  1  0.40984304  0.74045460  0.09191671  1  1.542545  -0.007398  0.218479  0.612583  -0.010217  4.148703  -0.007
C  C89  1  0.59017001  0.09190615  0.25953643  1  1.54257  -0.007344  0.218472  0.612584  -0.010145  4.148721  -0.007
C  C90  1  0.40985839  0.25955013  0.90808362  1  1.541922  -0.007412  0.218291  0.612356  -0.010234  4.149003  -0.007
C  C91  1  0.59017860  0.90809241  0.74046190  1  1.54305  -0.007348  0.218496  0.612682  -0.010154  4.14859  -0.007
C  C92  1  0.59017234  0.24046537  0.40809396  1  1.542569  -0.007343  0.218427  0.612564  -0.010146  4.148698  -0.007
C  C93  1  0.59017802  0.75953369  0.59190735  1  1.542959  -0.007347  0.218618  0.612794  -0.010153  4.148626  -0.007
C  C94  1  0.40986116  0.40808065  0.75955230  1  1.541786  -0.007416  0.218326  0.612411  -0.010236  4.148967  -0.007
C  C95  1  0.40983764  0.59191466  0.24045199  1  1.541844  -0.007402  0.218406  0.612529  -0.010219  4.148755  -0.007
C  C96  1  0.35647962  0.78105026  0.03764086  1  -0.036472  0.010336  -0.020884  -0.021211  0.005431  3.987729  0.008
C  C97  1  0.64351806  0.03762750  0.21895241  1  -0.035943  0.010324  -0.021295  -0.02184  0.005425  3.987923  0.008
C  C98  1  0.35648729  0.21895192  0.96235814  1  -0.036206  0.010343  -0.020853  -0.021124  0.005435  3.987624  0.008
C  C99  1  0.64351955  0.96237807  0.78104131  1  -0.035656  0.010331  -0.021366  -0.021985  0.005429  3.988097  0.008
C  C100  1  0.64352282  0.28104963  0.46237534  1  -0.035898  0.010326  -0.02125  -0.02177  0.005426  3.987753  0.008
C  C101  1  0.64351304  0.71895495  0.53762532  1  -0.035838  0.010327  -0.021357  -0.021954  0.005427  3.988116  0.008
C  C102  1  0.35648896  0.46235626  0.71895647  1  -0.036133  0.010344  -0.02088  -0.021145  0.005436  3.987436  0.008
C  C103  1  0.35647358  0.53764046  0.28104699  1  -0.03669  0.010334  -0.020957  -0.021299  0.00543  3.987631  0.008
C  C104  1  0.27422510  0.82976350  0.05408318  1  -0.026227  -0.001537  -0.089706  -0.192993  -0.002007  3.923739  -0.001
C  C105  1  0.72574137  0.05406980  0.17022200  1  -0.026387  -0.00153  -0.089857  -0.193039  -0.002  3.92378  -0.001
C  C106  1  0.27422830  0.17023756  0.94591654  1  -0.026581  -0.001544  -0.08966  -0.192902  -0.002014  3.923534  -0.001
C  C107  1  0.72574060  0.94593540  0.82977396  1  -0.026229  -0.001539  -0.089756  -0.192716  -0.002009  3.92349  -0.001
C  C108  1  0.72574869  0.32977725  0.44592745  1  -0.02682  -0.001532  -0.089844  -0.192919  -0.002001  3.923709  -0.001
C  C109  1  0.72574466  0.67022647  0.55406406  1  -0.026074  -0.001535  -0.089774  -0.192826  -0.002005  3.923576  -0.001
C  C110  1  0.27422669  0.44591704  0.67024302  1  -0.025943  -0.001547  -0.089598  -0.192823  -0.002018  3.923446  -0.001
C  C111  1  0.27422408  0.55408500  0.32976463  1  -0.026256  -0.00154  -0.089678  -0.192933  -0.00201  3.923667  -0.001
C  C112  1  0.22164947  0.86750917  0.00417452  1  0.411976  0.0014  0.080335  0.257469  0.000647  4.084873  0.001
C  C113  1  0.77831474  0.00416650  0.13247672  1  0.413068  0.001397  0.080414  0.257575  0.000646  4.084504  0.001
C  C114  1  0.22165729  0.13248735  0.99582288  1  0.411951  0.001404  0.080328  0.257535  0.000649  4.084696  0.001
C  C115  1  0.77831824  0.99584027  0.86751909  1  0.412318  0.001403  0.080251  0.257327  0.000649  4.084619  0.001
C  C116  1  0.77832363  0.36752031  0.49582999  1  0.411473  0.001399  0.080402  0.257485  0.000647  4.084572  0.001
C  C117  1  0.77832248  0.63248101  0.50415988  1  0.412208  0.001401  0.080332  0.257535  0.000648  4.084356  0.001
C  C118  1  0.22165278  0.49582597  0.63249471  1  0.412117  0.001405  0.080373  0.257604  0.00065  4.084765  0.001
C  C119  1  0.22165660  0.50417797  0.36751111  1  0.411934  0.001401  0.080344  0.257586  0.000648  4.08471  0.001
C  C120  1  0.25243474  0.85700538  0.93830009  1  0.022589  -0.002387  -0.101847  -0.228889  -0.002916  3.978665  -0.001
C  C121  1  0.74754063  0.93828773  0.14299467  1  0.023042  -0.002378  -0.101829  -0.228967  -0.002906  3.978733  -0.001
C  C122  1  0.25244391  0.14299070  0.06170020  1  0.022699  -0.002395  -0.101856  -0.228931  -0.002926  3.978843  -0.001
C  C123  1  0.74754410  0.06171651  0.85700371  1  0.023174  -0.002385  -0.101772  -0.228869  -0.002913  3.978843  -0.001
C  C124  1  0.74754350  0.35700770  0.56171096  1  0.023073  -0.00238  -0.101888  -0.229063  -0.002908  3.978588  -0.001
C  C125  1  0.74753861  0.64299160  0.43828346  1  0.023591  -0.002383  -0.101854  -0.22903  -0.002912  3.978875  -0.001
C  C126  1  0.25244671  0.56169926  0.64299289  1  0.023214  -0.002397  -0.10188  -0.228913  -0.002927  3.978915  -0.001
C  C127  1  0.25244331  0.43830078  0.35700640  1  0.02279  -0.002391  -0.101776  -0.228793  -0.002921  3.978678  -0.001
C  C128  1  0.33776348  0.81007678  0.92207259  1  0.010683  0.006315  -0.019277  -0.01094  0.003337  4.004657  0.005
C  C129  1  0.66222648  0.92205151  0.18993546  1  0.011616  0.006305  -0.01925  -0.010443  0.003332  4.004083  0.005
C  C130  1  0.33776661  0.18992190  0.07792597  1  0.010627  0.006321  -0.019389  -0.01114  0.003339  4.00481  0.005
C  C131  1  0.66223132  0.07794766  0.81006465  1  0.01153  0.00631  -0.019233  -0.010357  0.003335  4.004263  0.005
C  C132  1  0.66222678  0.31007018  0.57795079  1  0.011351  0.006306  -0.019193  -0.010146  0.003333  4.004185  0.005
C  C133  1  0.66222664  0.68992848  0.42205278  1  0.010807  0.00631  -0.019165  -0.010232  0.003335  4.00408  0.005
C  C134  1  0.33777183  0.57792611  0.68992119  1  0.010503  0.006321  -0.019323  -0.011013  0.00334  4.004779  0.005
C  C135  1  0.33776439  0.42207405  0.31007440  1  0.010646  0.006315  -0.019319  -0.011096  0.003336  4.004886  0.005
C  C136  1  0.38952417  0.77144475  0.97130486  1  -0.013885  -0.000735  -0.088177  -0.12999  -0.001182  3.945764  -0.001
C  C137  1  0.61047331  0.97128676  0.22856864  1  -0.013739  -0.000731  -0.087896  -0.129813  -0.001177  3.945195  -0.001
C  C138  1  0.38952879  0.22855500  0.02869503  1  -0.013978  -0.00074  -0.088178  -0.130057  -0.001188  3.945829  -0.001
C  C139  1  0.61047738  0.02871678  0.77142963  1  -0.013844  -0.000734  -0.087855  -0.129887  -0.00118  3.94556  -0.001
C  C140  1  0.61047904  0.27143477  0.52871630  1  -0.013809  -0.000731  -0.08795  -0.130063  -0.001178  3.945495  -0.001
C  C141  1  0.61047340  0.72856630  0.47128445  1  -0.013223  -0.000735  -0.087905  -0.129926  -0.001181  3.94526  -0.001
C  C142  1  0.38953341  0.52869456  0.72855438  1  -0.013615  -0.00074  -0.088244  -0.130236  -0.001187  3.94577  -0.001
C  C143  1  0.38952305  0.47130617  0.27144106  1  -0.013821  -0.000737  -0.088164  -0.130048  -0.001184  3.945813  -0.001
C  C144  1  0.36895414  0.80418461  0.85023865  1  1.536286  0.00163  0.220105  0.593696  0.001138  4.139955  0.0
C  C145  1  0.63103943  0.85021896  0.19582383  1  1.535271  0.001624  0.21988  0.592943  0.001132  4.140849  0.0
C  C146  1  0.36895053  0.19581412  0.14976032  1  1.536227  0.001628  0.22013  0.593852  0.001136  4.139923  0.0
C  C147  1  0.63104992  0.14978808  0.80418033  1  1.53542  0.001625  0.219764  0.592862  0.001133  4.141086  0.0
C  C148  1  0.63104310  0.30418236  0.64978721  1  1.536133  0.001626  0.21987  0.592947  0.001134  4.141323  0.0
C  C149  1  0.63104713  0.69581577  0.35021695  1  1.536002  0.001625  0.219878  0.592934  0.001132  4.141121  0.0
C  C150  1  0.36896320  0.64975966  0.69581238  1  1.536317  0.001629  0.22026  0.593979  0.001138  4.139623  0.0
C  C151  1  0.36895284  0.35024055  0.30418113  1  1.536537  0.001629  0.220156  0.59377  0.001136  4.140109  0.0
C  C152  1  0.07747840  0.94570768  0.97048641  1  0.371749  2.2e-05  -0.062123  -0.024247  1.7e-05  3.855029  0.0
C  C153  1  0.92252377  0.97048663  0.05428931  1  0.373478  2.1e-05  -0.062003  -0.024079  1.6e-05  3.854879  0.0
C  C154  1  0.07748306  0.05428317  0.02950942  1  0.371354  2.2e-05  -0.062115  -0.024303  1.7e-05  3.85535  0.0
C  C155  1  0.92253155  0.02951342  0.94570560  1  0.373493  2.2e-05  -0.061986  -0.024273  1.7e-05  3.854958  0.0
C  C156  1  0.92253090  0.44570850  0.52951474  1  0.373548  2.2e-05  -0.061931  -0.024018  1.7e-05  3.854449  0.0
C  C157  1  0.92253142  0.55429204  0.47048561  1  0.373629  2.2e-05  -0.061943  -0.024325  1.7e-05  3.854899  0.0
C  C158  1  0.07748187  0.52951173  0.55429023  1  0.371596  2.2e-05  -0.062125  -0.024215  1.7e-05  3.855159  0.0
C  C159  1  0.07748309  0.47048606  0.44571501  1  0.371253  2.2e-05  -0.062191  -0.02439  1.7e-05  3.855272  0.0
C  C160  1  0.00000060  0.99999767  0.99999754  1  0.02597  5.6e-05  -0.018561  0.047705  3.2e-05  3.839169  0.0
C  C161  1  0.00000599  0.49999933  0.50000001  1  0.02628  5.5e-05  -0.018566  0.04771  3.2e-05  3.839082  0.0
O  O162  1  0.39000921  0.75804756  0.15154473  1  -1.166907  0.066009  -0.315718  -0.594821  0.033863  2.382486  0.058
O  O163  1  0.60998195  0.15154174  0.24195568  1  -1.166791  0.065824  -0.315664  -0.594971  0.033769  2.382107  0.058
O  O164  1  0.39001713  0.24195317  0.84845764  1  -1.166947  0.066083  -0.315658  -0.594738  0.033898  2.382644  0.058
O  O165  1  0.60998835  0.84845734  0.75804507  1  -1.166886  0.06584  -0.315678  -0.594929  0.033777  2.381975  0.058
O  O166  1  0.60998874  0.25804205  0.34845754  1  -1.166814  0.065809  -0.31569  -0.594969  0.033761  2.382097  0.058
O  O167  1  0.60999556  0.74195208  0.65154222  1  -1.166945  0.065846  -0.315757  -0.59501  0.033779  2.381949  0.058
O  O168  1  0.39001611  0.34845545  0.74195777  1  -1.167045  0.066071  -0.31564  -0.594739  0.033893  2.382696  0.058
O  O169  1  0.39001286  0.65154430  0.25804212  1  -1.166949  0.06602  -0.315647  -0.594798  0.033865  2.382603  0.058
O  O170  1  0.47291347  0.69071879  0.07531748  1  -1.173147  0.070278  -0.326341  -0.62402  0.03532  2.405502  0.064
O  O171  1  0.52708089  0.07530240  0.30926462  1  -1.173632  0.070294  -0.326406  -0.623976  0.035332  2.405195  0.064
O  O172  1  0.47293241  0.30928653  0.92467475  1  -1.172567  0.070263  -0.326255  -0.623934  0.035311  2.405768  0.064
O  O173  1  0.52708913  0.92469805  0.69073686  1  -1.173889  0.070298  -0.32638  -0.62406  0.035335  2.405332  0.064
O  O174  1  0.52707803  0.19073897  0.42470379  1  -1.173533  0.070296  -0.326344  -0.624018  0.035334  2.405222  0.064
O  O175  1  0.52709199  0.80925900  0.57530364  1  -1.173696  0.070287  -0.32647  -0.624112  0.035332  2.40531  0.064
O  O176  1  0.47294458  0.42467282  0.80928536  1  -1.172426  0.070269  -0.326406  -0.624061  0.035312  2.405813  0.064
O  O177  1  0.47290392  0.57531368  0.19071429  1  -1.172463  0.070298  -0.326327  -0.623967  0.035329  2.405477  0.064
O  O178  1  0.45497181  0.76782578  0.83373390  1  -1.142567  0.0708  -0.309474  -0.540721  0.036544  2.268095  0.06
O  O179  1  0.54502592  0.83369745  0.23217550  1  -1.142372  0.070754  -0.309316  -0.540233  0.036521  2.268475  0.06
O  O180  1  0.45495860  0.23218149  0.16627027  1  -1.142324  0.0708  -0.309456  -0.540767  0.036551  2.268118  0.06
O  O181  1  0.54503506  0.16630896  0.76782791  1  -1.142298  0.070748  -0.309302  -0.540304  0.036522  2.268578  0.06
O  O182  1  0.54503226  0.26783540  0.66631679  1  -1.142689  0.07073  -0.309381  -0.540363  0.036515  2.268648  0.06
O  O183  1  0.54503398  0.73217052  0.33369653  1  -1.142522  0.070775  -0.309352  -0.540289  0.036531  2.268578  0.06
O  O184  1  0.45497902  0.66626822  0.73217134  1  -1.142625  0.070807  -0.309554  -0.540775  0.036546  2.268063  0.06
O  O185  1  0.45496364  0.33373113  0.26781698  1  -1.142529  0.07079  -0.309442  -0.54068  0.036539  2.268335  0.06
O  O186  1  0.30446323  0.83731374  0.80983882  1  -1.177815  0.005963  -0.334859  -0.556233  0.002291  2.176583  0.005
O  O187  1  0.69555253  0.80983296  0.16269627  1  -1.177505  0.005946  -0.334879  -0.556172  0.002283  2.176915  0.005
O  O188  1  0.30446786  0.16267894  0.19015488  1  -1.177875  0.005965  -0.334867  -0.556332  0.002292  2.176609  0.005
O  O189  1  0.69555854  0.19017615  0.83731117  1  -1.177494  0.005942  -0.334826  -0.556082  0.002281  2.176829  0.005
O  O190  1  0.69556130  0.33730772  0.69017090  1  -1.177924  0.005946  -0.334832  -0.556092  0.002283  2.177202  0.005
O  O191  1  0.69555940  0.66268704  0.30982961  1  -1.177861  0.005951  -0.334775  -0.556053  0.002285  2.177095  0.005
O  O192  1  0.30448367  0.69015733  0.66267568  1  -1.177733  0.005965  -0.334885  -0.556414  0.002292  2.176392  0.005
O  O193  1  0.30445618  0.30984179  0.33730960  1  -1.178049  0.005964  -0.334886  -0.556286  0.002291  2.17652  0.005
O  O194  1  0.14097142  0.91407518  0.02317310  1  -1.074077  0.000546  -0.185664  -0.210723  0.000267  2.54122  0.0
O  O195  1  0.85900794  0.02316783  0.08590722  1  -1.075051  0.000545  -0.185648  -0.210738  0.000266  2.540753  0.0
O  O196  1  0.14097745  0.08591973  0.97682502  1  -1.073949  0.000547  -0.185683  -0.210748  0.000267  2.541099  0.0
O  O197  1  0.85900657  0.97683410  0.91408837  1  -1.075195  0.000546  -0.185628  -0.210649  0.000267  2.540875  0.0
O  O198  1  0.85901765  0.41408902  0.47683048  1  -1.073697  0.000545  -0.185775  -0.210872  0.000266  2.540642  0.0
O  O199  1  0.85901524  0.58591291  0.52316609  1  -1.07519  0.000546  -0.185661  -0.210821  0.000267  2.540803  0.0
O  O200  1  0.14097575  0.47682656  0.58592603  1  -1.075444  0.000547  -0.185676  -0.210803  0.000267  2.541106  0.0
O  O201  1  0.14097837  0.52317529  0.41408002  1  -1.073853  0.000546  -0.185749  -0.210885  0.000267  2.541056  0.0
O  O202  1  0.63475227  0.70069911  0.20069580  1  -1.262904  0.133327  -0.580276  -0.873022  0.070127  2.478187  0.116
O  O203  1  0.36529268  0.20071913  0.29928254  1  -1.262986  0.133236  -0.580318  -0.872828  0.070099  2.478733  0.116
O  O204  1  0.63477490  0.29932279  0.79931676  1  -1.263172  0.133318  -0.580361  -0.873036  0.070116  2.478171  0.116
O  O205  1  0.36532210  0.79927909  0.70071941  1  -1.262959  0.133241  -0.580086  -0.8726  0.070095  2.478943  0.116
O  O206  1  0.30914768  0.77811857  0.27811935  1  -1.134857  0.046416  -0.557334  -0.713642  0.023921  1.994049  0.037
O  O207  1  0.69092827  0.27816436  0.22183271  1  -1.134853  0.046387  -0.557295  -0.713063  0.023911  1.993695  0.037
O  O208  1  0.30914962  0.22188551  0.72187780  1  -1.135095  0.046405  -0.557322  -0.71353  0.023915  1.9938  0.037
O  O209  1  0.69093738  0.72184128  0.77815642  1  -1.134937  0.046384  -0.557503  -0.713695  0.023906  1.993404  0.037
O  O210  1  0.53254270  0.56111520  0.06111385  1  -1.158186  0.046069  -0.554614  -0.717087  0.02382  2.0211  0.035
O  O211  1  0.46745692  0.06112866  0.43886675  1  -1.159166  0.046137  -0.554333  -0.716879  0.023835  2.021585  0.035
O  O212  1  0.53251925  0.43888030  0.93889009  1  -1.156626  0.046057  -0.554651  -0.71704  0.02383  2.02148  0.035
O  O213  1  0.46744625  0.93886427  0.56112995  1  -1.156312  0.046002  -0.554266  -0.716721  0.023837  2.02173  0.035
O  O214  1  0.71872743  0.67868173  0.06924116  1  -1.195466  0.042477  -0.551833  -0.717202  0.021889  1.998021  0.032
O  O215  1  0.28128525  0.06926489  0.32130130  1  -1.195621  0.042455  -0.552188  -0.71769  0.021872  1.997655  0.032
O  O216  1  0.71869210  0.32130910  0.93074492  1  -1.195055  0.042515  -0.551821  -0.717156  0.021903  1.998532  0.032
O  O217  1  0.28129187  0.93072974  0.67868850  1  -1.195534  0.042457  -0.552118  -0.717661  0.021874  1.997638  0.032
O  O218  1  0.28127540  0.17867331  0.43074248  1  -1.196086  0.04247  -0.551846  -0.71733  0.021878  1.99791  0.032
O  O219  1  0.28129384  0.82129855  0.56926812  1  -1.195318  0.042453  -0.552326  -0.717786  0.021871  1.997394  0.032
O  O220  1  0.71870423  0.43075538  0.82132875  1  -1.195879  0.042517  -0.551802  -0.717092  0.021905  1.998445  0.032
O  O221  1  0.71873018  0.56925130  0.17869694  1  -1.195561  0.042482  -0.55205  -0.717428  0.021889  1.997847  0.032
