# generated using pymatgen
data_Co2H28C52SN4(O2F3)4
_symmetry_space_group_name_H-M   'P 1'
_cell_length_a   7.27644676
_cell_length_b   16.25827199
_cell_length_c   22.31196726
_cell_angle_alpha   103.20736336
_cell_angle_beta   90.00013856
_cell_angle_gamma   90.00019929
_symmetry_Int_Tables_number   1
_chemical_formula_structural   Co2H28C52SN4(O2F3)4
_chemical_formula_sum   'Co4 H56 C104 S2 N8 O16 F24'
_cell_volume   2569.74283775
_cell_formula_units_Z   2
loop_
 _symmetry_equiv_pos_site_id
 _symmetry_equiv_pos_as_xyz
  1  'x, y, z'
loop_
 _atom_site_type_symbol
 _atom_site_label
 _atom_site_symmetry_multiplicity
 _atom_site_fract_x
 _atom_site_fract_y
 _atom_site_fract_z
 _atom_site_occupancy
 _atom_site_pbe_bader_charge
 _atom_site_pbe_bader_spin_density
 _atom_site_pbe_cm5_charge
 _atom_site_pbe_ddec_charge
 _atom_site_pbe_ddec_spin_density
 _atom_site_pbe_ddec_sum_bond_order
 _atom_site_pbe_magmom
Co  Co0  1  0.62487277  0.03744971  0.48730069  1  1.200311  2.611547  0.616893  0.775093  2.827704  2.70435  2.596
Co  Co1  1  0.62491531  0.46255262  0.01270409  1  1.199764  2.611503  0.616802  0.774595  2.827652  2.704223  2.596
Co  Co2  1  0.37520503  0.96260088  0.51268547  1  1.19917  2.611462  0.61684  0.775234  2.827707  2.704538  2.596
Co  Co3  1  0.37525456  0.53740217  0.98731396  1  1.199396  2.61152  0.616892  0.775451  2.827765  2.704728  2.596
H  H4  1  0.03779642  0.91187379  0.34214027  1  0.073124  0.000424  0.108067  0.11245  0.000213  1.022044  0.0
H  H5  1  0.03778082  0.58814098  0.15785857  1  0.072496  0.000424  0.108019  0.112359  0.000213  1.022142  0.0
H  H6  1  0.96217143  0.08812690  0.65786619  1  0.072865  0.000424  0.107949  0.112249  0.000213  1.02207  0.0
H  H7  1  0.96215955  0.41186844  0.84212523  1  0.072821  0.000424  0.107947  0.112211  0.000213  1.022163  0.0
H  H8  1  0.91362597  0.90179043  0.23783467  1  0.094701  0.000122  0.104069  0.114593  5.3e-05  0.993083  0.0
H  H9  1  0.91363728  0.59823356  0.26217055  1  0.094546  0.000122  0.104091  0.11456  5.3e-05  0.993213  0.0
H  H10  1  0.08634738  0.09820404  0.76216620  1  0.094975  0.000122  0.104066  0.114524  5.3e-05  0.993262  0.0
H  H11  1  0.08634294  0.40179698  0.73783403  1  0.09503  0.000122  0.104079  0.114528  5.3e-05  0.993234  0.0
H  H12  1  0.40634467  0.02036735  0.18949203  1  0.075607  0.000126  0.091897  0.099939  6.8e-05  1.044137  0.0
H  H13  1  0.40635644  0.47964741  0.31050402  1  0.075616  0.000126  0.091956  0.100058  6.8e-05  1.044242  0.0
H  H14  1  0.59363692  0.97960817  0.81050549  1  0.074816  0.000126  0.091934  0.100105  6.8e-05  1.043931  0.0
H  H15  1  0.59362652  0.52038268  0.68949151  1  0.074953  0.000126  0.091943  0.100129  6.8e-05  1.043842  0.0
H  H16  1  0.53122469  0.02545203  0.29257108  1  0.115628  0.000379  0.104762  0.112765  0.000211  1.003604  0.0
H  H17  1  0.53120959  0.47456612  0.20742657  1  0.115849  0.00038  0.104736  0.112731  0.000211  1.003672  0.0
H  H18  1  0.46874729  0.97453809  0.70742588  1  0.115308  0.000379  0.104807  0.112883  0.00021  1.003431  0.0
H  H19  1  0.46872666  0.52544053  0.79256840  1  0.115695  0.000378  0.104765  0.112828  0.00021  1.00353  0.0
H  H20  1  0.71803142  0.92548148  0.08201847  1  0.084585  0.000123  0.092327  0.101912  6.8e-05  1.038453  0.0
H  H21  1  0.71804502  0.57451893  0.41797389  1  0.084798  0.000123  0.09229  0.101939  6.8e-05  1.038197  0.0
H  H22  1  0.28194330  0.07451282  0.91796086  1  0.084605  0.000123  0.092279  0.101885  6.8e-05  1.038376  0.0
H  H23  1  0.28195169  0.42548861  0.58203826  1  0.084692  0.000123  0.092332  0.101956  6.8e-05  1.038365  0.0
H  H24  1  0.57740993  0.78767795  0.04115763  1  0.08268  0.000188  0.101695  0.103064  9.8e-05  1.032595  0.0
H  H25  1  0.57740149  0.71231071  0.45883747  1  0.082543  0.000188  0.101708  0.103109  9.8e-05  1.032619  0.0
H  H26  1  0.42259091  0.21228673  0.95881331  1  0.087296  0.000189  0.101813  0.103127  9.9e-05  1.032579  0.0
H  H27  1  0.42259660  0.28770108  0.54118351  1  0.087253  0.000188  0.101763  0.103153  9.8e-05  1.032614  0.0
H  H28  1  0.04782562  0.66278142  0.09552629  1  0.136076  0.000483  0.107501  0.117238  0.000257  1.035666  0.0
H  H29  1  0.04778613  0.83723416  0.40446552  1  0.136132  0.000484  0.107518  0.117165  0.000257  1.035663  0.0
H  H30  1  0.95220957  0.33722861  0.90445896  1  0.136074  0.000484  0.107518  0.117212  0.000257  1.035661  0.0
H  H31  1  0.95218035  0.16277303  0.59553402  1  0.136053  0.000483  0.107459  0.117138  0.000257  1.035758  0.0
H  H32  1  0.18535222  0.80186153  0.14272423  1  0.092694  0.000133  0.104427  0.11346  5.3e-05  0.990381  0.0
H  H33  1  0.18533197  0.69815615  0.35727076  1  0.09285  0.000133  0.104469  0.113552  5.3e-05  0.990444  0.0
H  H34  1  0.81464724  0.19814877  0.85727765  1  0.09268  0.000134  0.104446  0.113548  5.3e-05  0.990418  0.0
H  H35  1  0.81463313  0.30186009  0.64272053  1  0.092748  0.000133  0.104439  0.113511  5.3e-05  0.990494  0.0
H  H36  1  0.67211784  0.24615080  0.50932665  1  0.127398  0.000538  0.115491  0.110226  0.000148  1.035243  0.001
H  H37  1  0.67213468  0.25384369  0.99067783  1  0.12774  0.000538  0.115517  0.110256  0.000148  1.03513  0.001
H  H38  1  0.32786787  0.75384611  0.49067869  1  0.127361  0.000536  0.115454  0.110115  0.000148  1.035521  0.001
H  H39  1  0.32789364  0.74614315  0.00932438  1  0.126261  0.000536  0.115439  0.110132  0.000147  1.035363  0.001
H  H40  1  0.92638622  0.31954882  0.44357699  1  0.116157  0.000444  0.115779  0.126704  0.000176  1.025189  0.0
H  H41  1  0.92640496  0.18044714  0.05642780  1  0.116299  0.000444  0.115826  0.1267  0.000176  1.025308  0.0
H  H42  1  0.07360224  0.68044189  0.55642187  1  0.116304  0.000443  0.115806  0.12678  0.000176  1.02548  0.0
H  H43  1  0.07361649  0.81954585  0.94358312  1  0.116467  0.000443  0.11577  0.126659  0.000176  1.025257  0.0
H  H44  1  0.99888475  0.05386611  0.40262999  1  0.168644  0.000303  0.136495  0.109358  -1.9e-05  1.025675  0.0
H  H45  1  0.99891402  0.44612687  0.09737254  1  0.168758  0.000304  0.136507  0.109455  -1.8e-05  1.025748  0.0
H  H46  1  0.00110921  0.94612840  0.59736909  1  0.16865  0.000302  0.136428  0.109271  -1.9e-05  1.025698  0.0
H  H47  1  0.00112392  0.55385458  0.90264396  1  0.168825  0.000302  0.136421  0.109206  -1.9e-05  1.02559  0.0
H  H48  1  0.35844223  0.17357079  0.43466132  1  0.112173  -6.1e-05  0.108395  0.1249  -0.000156  1.045196  0.0
H  H49  1  0.35844839  0.32643167  0.06534238  1  0.112244  -6.1e-05  0.10845  0.12502  -0.000156  1.045078  0.0
H  H50  1  0.64153387  0.82643639  0.56533822  1  0.112131  -6.1e-05  0.108412  0.125027  -0.000155  1.044998  0.0
H  H51  1  0.64150435  0.67355824  0.93466441  1  0.111943  -6.1e-05  0.108327  0.124998  -0.000156  1.045  0.0
H  H52  1  0.62132041  0.19749926  0.37086109  1  0.082901  2.8e-05  0.101266  0.10757  -2.5e-05  1.038339  0.0
H  H53  1  0.62133232  0.30250066  0.12913743  1  0.082888  2.8e-05  0.101257  0.107566  -2.5e-05  1.038325  0.0
H  H54  1  0.37866119  0.80251615  0.62913946  1  0.083066  2.8e-05  0.10122  0.107553  -2.5e-05  1.038255  0.0
H  H55  1  0.37865889  0.69747999  0.87085741  1  0.083031  2.8e-05  0.101169  0.107458  -2.5e-05  1.038313  0.0
H  H56  1  0.97662556  0.22783051  0.30097799  1  0.102492  1.4e-05  0.097036  0.108438  6e-06  1.036531  0.0
H  H57  1  0.97663224  0.27217387  0.19902296  1  0.102522  1.4e-05  0.09703  0.10846  6e-06  1.03655  0.0
H  H58  1  0.02334779  0.77216456  0.69902434  1  0.102437  1.4e-05  0.097006  0.10848  6e-06  1.036455  0.0
H  H59  1  0.02334660  0.72783573  0.80098239  1  0.102457  1.4e-05  0.096991  0.108503  6e-06  1.036521  0.0
C  C60  1  0.36739589  0.97841900  0.38787752  1  1.538442  -0.011594  0.211714  0.554114  -0.01515  4.183824  -0.01
C  C61  1  0.36744681  0.52157361  0.11212080  1  1.537133  -0.01159  0.212028  0.554393  -0.015145  4.183447  -0.01
C  C62  1  0.63261869  0.02161164  0.61212259  1  1.537951  -0.011574  0.211689  0.55439  -0.015142  4.183384  -0.01
C  C63  1  0.63265298  0.47834918  0.88788127  1  1.537883  -0.011578  0.211453  0.554296  -0.015148  4.183898  -0.01
C  C64  1  0.29375392  0.96907160  0.32414766  1  -0.093972  0.010443  -0.017185  -0.033474  0.005517  3.974873  0.008
C  C65  1  0.29373939  0.53093498  0.17584321  1  -0.091942  0.010443  -0.017179  -0.033726  0.005518  3.975162  0.008
C  C66  1  0.70624417  0.03093749  0.67585177  1  -0.092213  0.010439  -0.017075  -0.033362  0.005515  3.974774  0.008
C  C67  1  0.70622297  0.46904326  0.82414582  1  -0.09104  0.010438  -0.017146  -0.033608  0.005515  3.974825  0.008
C  C68  1  0.11945163  0.93423351  0.30814971  1  0.079956  -0.002551  -0.082081  -0.087676  -0.002902  3.963016  -0.001
C  C69  1  0.11944846  0.56578272  0.19184766  1  0.080489  -0.00255  -0.081991  -0.087374  -0.002901  3.962988  -0.001
C  C70  1  0.88052447  0.06577216  0.69186122  1  0.080473  -0.00255  -0.081924  -0.087414  -0.002901  3.962716  -0.001
C  C71  1  0.88051664  0.43421920  0.80813078  1  0.081308  -0.002551  -0.081859  -0.0873  -0.002901  3.962816  -0.001
C  C72  1  0.04907365  0.92935412  0.24948383  1  -0.089839  0.001733  -0.091687  -0.128033  0.000705  3.970727  0.001
C  C73  1  0.04907368  0.57066580  0.25051279  1  -0.089799  0.001733  -0.091706  -0.127996  0.000704  3.970639  0.001
C  C74  1  0.95089970  0.07063699  0.75052630  1  -0.090399  0.001733  -0.091655  -0.12785  0.000704  3.970637  0.001
C  C75  1  0.95089143  0.42936019  0.74946723  1  -0.090817  0.001733  -0.091773  -0.127935  0.000704  3.970638  0.001
C  C76  1  0.14995664  0.96017978  0.20562303  1  -0.040253  -0.004613  -0.018459  0.081832  -0.004916  3.949125  -0.003
C  C77  1  0.14995674  0.53983590  0.29437337  1  -0.039724  -0.004611  -0.01857  0.081714  -0.004914  3.948757  -0.003
C  C78  1  0.85001121  0.03980700  0.79438141  1  -0.040466  -0.004611  -0.018548  0.081615  -0.004913  3.949396  -0.003
C  C79  1  0.84998500  0.46018363  0.70561222  1  -0.039733  -0.004613  -0.018503  0.081612  -0.004916  3.949084  -0.003
C  C80  1  0.32433727  0.99485774  0.22169570  1  0.036423  0.001671  -0.098228  -0.137819  0.000674  3.976328  0.001
C  C81  1  0.32434387  0.50515700  0.27830157  1  0.036171  0.001672  -0.098181  -0.13789  0.000674  3.976313  0.001
C  C82  1  0.67562509  0.00512421  0.77829758  1  0.037016  0.001671  -0.098336  -0.138161  0.000674  3.976502  0.001
C  C83  1  0.67560199  0.49486408  0.72170088  1  0.036958  0.001671  -0.098291  -0.138141  0.000673  3.97664  0.001
C  C84  1  0.39590676  0.99836146  0.28010883  1  -0.076473  -0.00287  -0.080091  -0.070848  -0.003215  3.949695  -0.002
C  C85  1  0.39588956  0.50165291  0.21988261  1  -0.078544  -0.002866  -0.080204  -0.070833  -0.003212  3.949832  -0.002
C  C86  1  0.60407621  0.00163388  0.71988100  1  -0.07811  -0.002866  -0.080111  -0.070888  -0.003212  3.949428  -0.002
C  C87  1  0.60404943  0.49835115  0.78011458  1  -0.080675  -0.002868  -0.080043  -0.070704  -0.003214  3.949607  -0.002
C  C88  1  0.05650696  0.95923944  0.14351793  1  0.053914  -6.8e-05  -0.009804  -0.266012  -0.000322  3.846844  0.0
C  C89  1  0.05651438  0.54077534  0.35648182  1  0.053109  -6.8e-05  -0.009816  -0.266179  -0.000322  3.846876  0.0
C  C90  1  0.94346501  0.04077017  0.85648652  1  0.053814  -6.8e-05  -0.009755  -0.266079  -0.000322  3.846617  0.0
C  C91  1  0.94345485  0.45922952  0.64350745  1  0.052043  -6.8e-05  -0.009757  -0.265913  -0.000322  3.846977  0.0
C  C92  1  0.91707466  0.03443874  0.15676398  1  1.70866  -0.000269  0.301958  0.668664  -0.000311  3.974022  0.0
C  C93  1  0.91707281  0.46557442  0.34323624  1  1.708713  -0.000269  0.302162  0.669106  -0.000311  3.973334  0.0
C  C94  1  0.08293167  0.96557882  0.84325444  1  1.708213  -0.000269  0.302371  0.669826  -0.000311  3.972705  0.0
C  C95  1  0.08289367  0.53443237  0.65675203  1  1.708487  -0.000269  0.302215  0.668917  -0.000311  3.973837  0.0
C  C96  1  0.19497003  0.97365157  0.09345118  1  1.716165  -0.000245  0.30219  0.674908  -0.000286  3.9699  0.0
C  C97  1  0.19500792  0.52638006  0.40654450  1  1.716156  -0.000245  0.302267  0.675304  -0.000286  3.969873  0.0
C  C98  1  0.80498133  0.02638834  0.90655954  1  1.716709  -0.000245  0.302124  0.674956  -0.000286  3.97026  0.0
C  C99  1  0.80500666  0.47362135  0.59342847  1  1.717362  -0.000245  0.302035  0.674772  -0.000287  3.970409  0.0
C  C100  1  0.96118162  0.87423960  0.11705910  1  0.000698  -0.004269  -0.019452  0.078532  -0.004555  3.960189  -0.003
C  C101  1  0.96119811  0.62577007  0.38293824  1  0.000652  -0.004267  -0.019474  0.078361  -0.004553  3.960974  -0.003
C  C102  1  0.03877386  0.12577797  0.88292928  1  0.000954  -0.004266  -0.019402  0.078459  -0.004552  3.961066  -0.003
C  C103  1  0.03877661  0.37423071  0.61706420  1  0.001264  -0.004269  -0.019444  0.078304  -0.004556  3.960681  -0.003
C  C104  1  0.79106962  0.86918440  0.08705933  1  0.000259  0.0016  -0.101651  -0.143854  0.000654  4.000848  0.001
C  C105  1  0.79108911  0.63081617  0.41293268  1  -0.000691  0.001601  -0.101565  -0.143656  0.000654  4.000558  0.001
C  C106  1  0.20888449  0.13080364  0.91291620  1  -0.00066  0.001602  -0.101496  -0.143596  0.000655  4.000455  0.001
C  C107  1  0.20890211  0.36919581  0.58707982  1  -0.000619  0.001602  -0.101367  -0.14327  0.000655  4.000183  0.001
C  C108  1  0.71095734  0.79104112  0.06337101  1  -0.060422  -0.00268  -0.084798  -0.07759  -0.003031  3.969865  -0.002
C  C109  1  0.71094872  0.70895352  0.43662391  1  -0.060045  -0.002678  -0.08486  -0.077845  -0.003029  3.969964  -0.002
C  C110  1  0.28904487  0.20893921  0.93660942  1  -0.064008  -0.002677  -0.084992  -0.077873  -0.003028  3.970163  -0.002
C  C111  1  0.28904249  0.29105847  0.56338814  1  -0.064194  -0.002681  -0.08511  -0.078183  -0.003032  3.970137  -0.002
C  C112  1  0.79947006  0.71612907  0.06750218  1  -0.032169  0.010359  -0.016197  -0.029591  0.005472  3.9692  0.008
C  C113  1  0.79945372  0.78386635  0.43249430  1  -0.031514  0.01036  -0.016145  -0.029382  0.005474  3.969344  0.008
C  C114  1  0.20056788  0.28385357  0.93248853  1  -0.032264  0.010367  -0.016329  -0.029516  0.005478  3.969967  0.008
C  C115  1  0.20054848  0.21614073  0.56751015  1  -0.032408  0.010366  -0.016171  -0.02947  0.005476  3.969366  0.008
C  C116  1  0.97292846  0.72071012  0.09518255  1  -0.037357  -0.002363  -0.076098  -0.075038  -0.002814  3.939509  -0.001
C  C117  1  0.97290778  0.77929969  0.40480945  1  -0.038015  -0.002363  -0.076203  -0.075025  -0.002813  3.939686  -0.001
C  C118  1  0.02710536  0.27930357  0.90480918  1  -0.038095  -0.00236  -0.076238  -0.075047  -0.00281  3.939999  -0.001
C  C119  1  0.02707932  0.22070185  0.59518730  1  -0.037981  -0.002364  -0.07614  -0.074945  -0.002814  3.939713  -0.001
C  C120  1  0.05143100  0.79916776  0.12046139  1  -0.071887  0.001663  -0.089634  -0.130386  0.000678  3.966545  0.001
C  C121  1  0.05141917  0.70084712  0.37953345  1  -0.071277  0.001663  -0.089688  -0.13053  0.000678  3.967139  0.001
C  C122  1  0.94857258  0.20086422  0.87953493  1  -0.071248  0.001664  -0.089556  -0.130453  0.000679  3.967599  0.001
C  C123  1  0.94856243  0.29914871  0.62046319  1  -0.071344  0.001664  -0.08967  -0.130511  0.000679  3.967306  0.001
C  C124  1  0.70562853  0.63388884  0.04238991  1  1.524998  -0.010743  0.213722  0.555974  -0.013835  4.174684  -0.01
C  C125  1  0.70555390  0.86609107  0.45761091  1  1.524552  -0.010735  0.213707  0.555991  -0.01383  4.174388  -0.01
C  C126  1  0.29452485  0.36606160  0.95762378  1  1.523651  -0.010731  0.213428  0.555371  -0.013823  4.175485  -0.01
C  C127  1  0.29447580  0.13392310  0.54238807  1  1.524739  -0.01074  0.213647  0.555854  -0.013834  4.174789  -0.01
C  C128  1  0.77706033  0.21737151  0.47704258  1  0.394885  -0.000196  0.000949  -0.021571  -0.000969  4.003846  0.0
C  C129  1  0.77707410  0.28262227  0.02296126  1  0.394986  -0.000196  0.000834  -0.02183  -0.000968  4.003948  0.0
C  C130  1  0.22295150  0.78262875  0.52295439  1  0.394971  -0.000197  0.000962  -0.021472  -0.000969  4.003546  0.0
C  C131  1  0.22296384  0.71736137  0.97704218  1  0.395459  -0.000196  0.000993  -0.021478  -0.000969  4.003791  0.0
C  C132  1  0.90014515  0.25445241  0.44478272  1  0.301358  0.002818  -0.003696  -0.117391  0.001452  3.929048  0.002
C  C133  1  0.90016712  0.24554224  0.05522137  1  0.300952  0.002821  -0.003686  -0.117263  0.001453  3.929159  0.002
C  C134  1  0.09984881  0.74553204  0.55521234  1  0.300987  0.002813  -0.003815  -0.117545  0.001449  3.928632  0.002
C  C135  1  0.09985845  0.75444625  0.94479190  1  0.301252  0.002811  -0.003709  -0.117402  0.001448  3.928796  0.002
C  C136  1  0.94164008  0.11545089  0.42287869  1  0.949252  0.002304  0.149052  0.107721  0.001366  3.863386  0.002
C  C137  1  0.94165638  0.38454765  0.07712522  1  0.949027  0.002301  0.149096  0.1075  0.001364  3.863741  0.002
C  C138  1  0.05836075  0.88454493  0.57711839  1  0.949482  0.002293  0.149088  0.107889  0.001359  3.863461  0.002
C  C139  1  0.05836920  0.61544467  0.92288737  1  0.949781  0.002298  0.149176  0.108063  0.001363  3.862911  0.002
C  C140  1  0.15389997  0.19983209  0.37101926  1  0.233011  0.000516  0.084139  0.148815  0.000295  4.026525  0.0
C  C141  1  0.15391324  0.30017058  0.12898520  1  0.233243  0.000517  0.08419  0.148803  0.000295  4.026721  0.0
C  C142  1  0.84608300  0.80016621  0.62898094  1  0.232337  0.000516  0.0842  0.148673  0.000295  4.026627  0.0
C  C143  1  0.84607523  0.69983122  0.87102863  1  0.231821  0.000516  0.084057  0.148378  0.000295  4.026863  0.0
C  C144  1  0.33382986  0.19108248  0.39113498  1  0.044955  0.000465  -0.087405  -0.141596  0.000145  3.957879  0.0
C  C145  1  0.33383344  0.30891489  0.10886690  1  0.044928  0.000465  -0.087514  -0.141794  0.000145  3.958172  0.0
C  C146  1  0.66614761  0.80892271  0.60886869  1  0.046089  0.000465  -0.087401  -0.1417  0.000145  3.957801  0.0
C  C147  1  0.66613579  0.69107315  0.89113822  1  0.046274  0.000465  -0.087314  -0.141598  0.000145  3.957724  0.0
C  C148  1  0.48179349  0.20476663  0.35538649  1  0.018125  3.7e-05  -0.092483  -0.108452  -2e-06  4.008203  0.0
C  C149  1  0.48180408  0.29523360  0.14461377  1  0.01796  3.6e-05  -0.092495  -0.108414  -3e-06  4.008335  0.0
C  C150  1  0.51817711  0.79523978  0.64461919  1  0.017641  3.6e-05  -0.092461  -0.108313  -3e-06  4.008015  0.0
C  C151  1  0.51817751  0.70475778  0.85538341  1  0.017687  3.6e-05  -0.09251  -0.108341  -3e-06  4.008196  0.0
C  C152  1  0.44715560  0.22851715  0.30024645  1  -0.19797  0.000215  -0.006466  0.009056  0.000102  4.031549  0.0
C  C153  1  0.44715678  0.27148053  0.19975153  1  -0.197866  0.000216  -0.006469  0.009031  0.000102  4.031472  0.0
C  C154  1  0.55282875  0.77148738  0.69975844  1  -0.198133  0.000215  -0.006556  0.008944  0.000101  4.031724  0.0
C  C155  1  0.55281382  0.72851523  0.80024867  1  -0.198084  0.000215  -0.00657  0.008877  0.000101  4.031965  0.0
C  C156  1  0.26574833  0.23748467  0.27919219  1  0.03252  6.7e-05  -0.014843  0.03749  2.7e-05  4.006478  0.0
C  C157  1  0.26574548  0.26251444  0.22081083  1  -0.022453  6.8e-05  -0.014809  0.037432  2.6e-05  4.006517  0.0
C  C158  1  0.73423051  0.76251659  0.72081706  1  -0.022482  6.8e-05  -0.014885  0.037214  2.7e-05  4.00639  0.0
C  C159  1  0.73422238  0.73748939  0.77919708  1  0.032714  6.8e-05  -0.014703  0.03767  2.7e-05  4.00623  0.0
C  C160  1  0.11796199  0.22203149  0.31549812  1  0.025932  0.000452  -0.088083  -0.181792  0.000246  3.945417  0.0
C  C161  1  0.11797136  0.27796924  0.18450462  1  0.026016  0.000452  -0.088075  -0.181735  0.000246  3.945526  0.0
C  C162  1  0.88200587  0.77796803  0.68450365  1  0.026613  0.000451  -0.087981  -0.181491  0.000246  3.944982  0.0
C  C163  1  0.88201436  0.72203645  0.81550541  1  0.026191  0.000451  -0.08795  -0.181615  0.000245  3.945222  0.0
S  S164  1  0.61402266  0.24999455  0.24999965  1  0.177133  0.000297  0.056027  0.045061  0.000143  2.77287  0.0
S  S165  1  0.38596855  0.74999673  0.75000201  1  0.177138  0.000296  0.056024  0.045068  0.000143  2.773286  0.0
N  N166  1  0.80317847  0.13105594  0.46278264  1  -1.185377  0.048813  -0.337705  -0.253473  0.027695  3.473753  0.038
N  N167  1  0.80319986  0.36893599  0.03722134  1  -1.185119  0.048846  -0.337767  -0.253292  0.027708  3.473931  0.038
N  N168  1  0.19683886  0.86895252  0.53721668  1  -1.185472  0.048755  -0.337543  -0.25354  0.027665  3.472961  0.037
N  N169  1  0.19685045  0.63103607  0.96278991  1  -1.185849  0.048736  -0.337752  -0.25385  0.027655  3.472737  0.037
N  N170  1  0.00395050  0.18896638  0.41024265  1  -1.249773  0.002907  -0.229716  -0.003484  0.001239  3.8123  0.002
N  N171  1  0.00396221  0.31102715  0.08976007  1  -1.250195  0.002908  -0.229683  -0.003317  0.001239  3.812131  0.002
N  N172  1  0.99604071  0.81103002  0.58975722  1  -1.249839  0.002898  -0.229741  -0.003583  0.001235  3.811878  0.002
N  N173  1  0.99603863  0.68895571  0.91025040  1  -1.250001  0.0029  -0.229573  -0.003254  0.001236  3.811807  0.002
O  O174  1  0.51958611  0.01721307  0.40088216  1  -1.125683  0.086091  -0.300062  -0.519851  0.044484  2.397508  0.078
O  O175  1  0.51963078  0.48277432  0.09912975  1  -1.1254  0.086082  -0.30024  -0.519885  0.044473  2.397274  0.078
O  O176  1  0.48041610  0.98283163  0.59911282  1  -1.125905  0.086085  -0.300083  -0.520039  0.044487  2.397713  0.078
O  O177  1  0.48045251  0.51713272  0.90089732  1  -1.12479  0.086098  -0.30005  -0.52003  0.044497  2.397592  0.078
O  O178  1  0.27242924  0.94917429  0.42654502  1  -1.130807  0.088165  -0.297485  -0.510365  0.046016  2.365982  0.078
O  O179  1  0.27248010  0.55081689  0.07345208  1  -1.129885  0.088171  -0.29764  -0.510512  0.046023  2.365812  0.078
O  O180  1  0.72761283  0.05085694  0.57345699  1  -1.130147  0.088131  -0.297596  -0.510647  0.045993  2.365191  0.078
O  O181  1  0.72766778  0.44910048  0.92653693  1  -1.131052  0.088099  -0.297374  -0.510373  0.045967  2.36558  0.078
O  O182  1  0.54556407  0.63788632  0.01934730  1  -1.14582  0.074325  -0.301823  -0.541058  0.038104  2.438858  0.07
O  O183  1  0.54549370  0.86208506  0.48065189  1  -1.145575  0.074336  -0.301692  -0.540923  0.038111  2.438332  0.07
O  O184  1  0.45459206  0.36202897  0.98064985  1  -1.145969  0.074354  -0.301709  -0.54055  0.038114  2.438049  0.07
O  O185  1  0.45454699  0.13794224  0.51935570  1  -1.145986  0.074343  -0.301889  -0.540928  0.038107  2.438064  0.07
O  O186  1  0.78545982  0.56497092  0.04471591  1  -1.114499  0.093078  -0.29435  -0.482724  0.048644  2.310822  0.08
O  O187  1  0.78536096  0.93502097  0.45529606  1  -1.114662  0.093105  -0.294538  -0.483067  0.04866  2.311376  0.08
O  O188  1  0.21473616  0.43500530  0.95533820  1  -1.113184  0.093151  -0.294251  -0.482734  0.048693  2.312426  0.08
O  O189  1  0.21467286  0.06498914  0.54468517  1  -1.114218  0.093145  -0.29434  -0.482786  0.048687  2.311909  0.08
F  F190  1  0.99520109  0.10561111  0.19092456  1  -0.6292  -5.2e-05  -0.089611  -0.207897  -4.5e-05  1.433801  0.0
F  F191  1  0.99520809  0.39440217  0.30907708  1  -0.628993  -5.2e-05  -0.089731  -0.208039  -4.5e-05  1.433554  0.0
F  F192  1  0.00484922  0.89438915  0.80910244  1  -0.628591  -5.2e-05  -0.089909  -0.208469  -4.5e-05  1.433491  0.0
F  F193  1  0.00476251  0.60560797  0.69090236  1  -0.629238  -5.2e-05  -0.089727  -0.208038  -4.5e-05  1.433652  0.0
F  F194  1  0.76930341  0.01681681  0.18922112  1  -0.625057  1e-06  -0.087094  -0.197631  4e-06  1.35825  0.0
F  F195  1  0.76931658  0.48319993  0.31077558  1  -0.625031  1e-06  -0.087049  -0.19766  4e-06  1.358132  0.0
F  F196  1  0.23068506  0.98321347  0.81079552  1  -0.624958  1e-06  -0.087103  -0.197887  4e-06  1.358402  0.0
F  F197  1  0.23064715  0.51680866  0.68921749  1  -0.62513  1e-06  -0.087139  -0.197698  4e-06  1.358587  0.0
F  F198  1  0.85012430  0.05500755  0.10478318  1  -0.617537  -3.2e-05  -0.096663  -0.208676  -3.2e-05  1.344678  0.0
F  F199  1  0.85012128  0.44500551  0.39521562  1  -0.617443  -3.2e-05  -0.096701  -0.208798  -3.2e-05  1.344699  0.0
F  F200  1  0.14988616  0.94502636  0.89524172  1  -0.617359  -3.2e-05  -0.096704  -0.208827  -3.2e-05  1.34416  0.0
F  F201  1  0.14987406  0.55499118  0.60477086  1  -0.617164  -3.2e-05  -0.096674  -0.208677  -3.2e-05  1.344604  0.0
F  F202  1  0.26580063  0.05346961  0.10509267  1  -0.614928  -4.8e-05  -0.098782  -0.20347  -4e-05  1.313033  0.0
F  F203  1  0.26587734  0.44656774  0.39490145  1  -0.614956  -4.8e-05  -0.098871  -0.203609  -3.9e-05  1.313126  0.0
F  F204  1  0.73415623  0.94656951  0.89495512  1  -0.615178  -4.8e-05  -0.098787  -0.203542  -4e-05  1.313042  0.0
F  F205  1  0.73418122  0.55343807  0.60504362  1  -0.615274  -4.8e-05  -0.09875  -0.203492  -4e-05  1.312994  0.0
F  F206  1  0.33977675  0.91909441  0.08865760  1  -0.626791  -6e-06  -0.087894  -0.194989  -0.0  1.334285  0.0
F  F207  1  0.33976698  0.58095538  0.41133290  1  -0.627096  -6e-06  -0.087868  -0.195102  -0.0  1.334708  0.0
F  F208  1  0.66018286  0.08094152  0.91133224  1  -0.626882  -6e-06  -0.087854  -0.194945  -1e-06  1.334814  0.0
F  F209  1  0.66019949  0.41906442  0.58863974  1  -0.626575  -6e-06  -0.08799  -0.195022  -0.0  1.334611  0.0
F  F210  1  0.11624042  0.95976520  0.03677821  1  -0.619366  -4.4e-05  -0.098185  -0.20243  -3.7e-05  1.360794  0.0
F  F211  1  0.11627057  0.54024408  0.46321792  1  -0.618719  -4.3e-05  -0.098102  -0.202399  -3.7e-05  1.360409  0.0
F  F212  1  0.88372057  0.04031268  0.96323655  1  -0.619259  -4.3e-05  -0.098163  -0.202435  -3.7e-05  1.360439  0.0
F  F213  1  0.88376875  0.45970972  0.53675737  1  -0.618496  -4.3e-05  -0.098018  -0.202272  -3.7e-05  1.360736  0.0
