# generated using pymatgen
data_ZnH14C20(N2O3)2
_symmetry_space_group_name_H-M   'P 1'
_cell_length_a   8.60843881
_cell_length_b   10.22078098
_cell_length_c   13.57680026
_cell_angle_alpha   108.58971945
_cell_angle_beta   89.99952092
_cell_angle_gamma   90.00312711
_symmetry_Int_Tables_number   1
_chemical_formula_structural   ZnH14C20(N2O3)2
_chemical_formula_sum   'Zn2 H28 C40 N8 O12'
_cell_volume   1132.22920384
_cell_formula_units_Z   2
loop_
 _symmetry_equiv_pos_site_id
 _symmetry_equiv_pos_as_xyz
  1  'x, y, z'
loop_
 _atom_site_type_symbol
 _atom_site_label
 _atom_site_symmetry_multiplicity
 _atom_site_fract_x
 _atom_site_fract_y
 _atom_site_fract_z
 _atom_site_occupancy
 _atom_site_pbe_bader_charge
 _atom_site_pbe_bader_spin_density
 _atom_site_pbe_cm5_charge
 _atom_site_pbe_ddec_charge
 _atom_site_pbe_ddec_spin_density
 _atom_site_pbe_ddec_sum_bond_order
 _atom_site_pbe_magmom
Zn  Zn0  1  0.31899154  0.24999767  0.24998433  1  1.268142  0  0.71086  0.803553  0  2.368963  0
Zn  Zn1  1  0.68101401  0.75000269  0.75000615  1  1.268073  0  0.710878  0.8035  0  2.369251  0
H  H2  1  0.37020431  0.59075527  0.35001282  1  0.137218  0  0.14179  0.10436  0  0.978344  0
H  H3  1  0.37021393  0.90925666  0.14999188  1  0.137127  0  0.141817  0.104358  0  0.978377  0
H  H4  1  0.62979658  0.40925158  0.64999728  1  0.137226  0  0.141763  0.10428  0  0.97825  0
H  H5  1  0.62976955  0.09077016  0.85000913  1  0.137308  0  0.141745  0.104286  0  0.978236  0
H  H6  1  0.62019692  0.68367430  0.45389350  1  0.549057  0  0.315043  0.296557  0  0.976043  0
H  H7  1  0.62020512  0.81631425  0.04611968  1  0.549009  0  0.315073  0.296668  0  0.975757  0
H  H8  1  0.37978655  0.31632693  0.54611193  1  0.549128  0  0.315042  0.296537  0  0.975994  0
H  H9  1  0.37978299  0.18365401  0.95388741  1  0.549215  0  0.315092  0.296538  0  0.976082  0
H  H10  1  0.64185981  0.24757774  0.35092360  1  0.134881  0  0.122621  0.12704  0  1.009452  0
H  H11  1  0.64185127  0.25241985  0.14908072  1  0.134803  0  0.122654  0.127038  0  1.009612  0
H  H12  1  0.35814806  0.75242483  0.64909242  1  0.134793  0  0.122665  0.127048  0  1.009602  0
H  H13  1  0.35814847  0.74754973  0.85092882  1  0.134553  0  0.122585  0.126965  0  1.009551  0
H  H14  1  0.90645746  0.67038711  0.41767283  1  0.099221  0  0.103488  0.105587  0  1.013761  0
H  H15  1  0.90646187  0.82963666  0.08237075  1  0.098957  0  0.103384  0.105577  0  1.013555  0
H  H16  1  0.09353995  0.32962693  0.58233852  1  0.099207  0  0.103497  0.105667  0  1.013675  0
H  H17  1  0.09353206  0.17034642  0.91765815  1  0.099584  0  0.103568  0.105778  0  1.013802  0
H  H18  1  0.83090759  0.30570800  0.50579997  1  0.075502  0  0.101869  0.10008  0  1.018202  0
H  H19  1  0.83089872  0.19428578  0.99420022  1  0.074022  0  0.101785  0.100001  0  1.018087  0
H  H20  1  0.16909795  0.69431183  0.49420943  1  0.074703  0  0.10181  0.099987  0  1.017972  0
H  H21  1  0.16909753  0.80571130  0.00582816  1  0.074151  0  0.10191  0.100117  0  1.018235  0
H  H22  1  0.98627234  0.09879000  0.29852275  1  0.651445  0  0.301162  0.35295  0  0.971542  0
H  H23  1  0.98630115  0.40118430  0.20144762  1  0.651285  0  0.301102  0.352925  0  0.97159  0
H  H24  1  0.01371926  0.90121173  0.70145466  1  0.651509  0  0.300985  0.352678  0  0.971882  0
H  H25  1  0.01372646  0.59881073  0.79854046  1  0.651447  0  0.301144  0.352853  0  0.971736  0
H  H26  1  0.27138536  0.05105974  0.56238960  1  0.108297  0  0.108464  0.132976  0  0.99016  0
H  H27  1  0.27139226  0.44893741  0.93759143  1  0.108384  0  0.1084  0.132968  0  0.990071  0
H  H28  1  0.72860857  0.94896166  0.43760824  1  0.107981  0  0.108503  0.133064  0  0.990273  0
H  H29  1  0.72860748  0.55105258  0.06239650  1  0.10827  0  0.108417  0.132986  0  0.989999  0
C  C30  1  0.46647385  0.52921441  0.36187898  1  0.96825  0  0.14996  0.159074  0  3.939741  0
C  C31  1  0.46648337  0.97079642  0.13812967  1  0.968716  0  0.149901  0.159035  0  3.940263  0
C  C32  1  0.53351543  0.47079655  0.63813184  1  0.968602  0  0.149988  0.159144  0  3.940085  0
C  C33  1  0.53351288  0.02920426  0.86187936  1  0.968762  0  0.150047  0.159203  0  3.939442  0
C  C34  1  0.69389602  0.47229375  0.41345750  1  0.349252  0  0.088218  0.11757  0  4.010697  0
C  C35  1  0.69386529  0.02772001  0.08654133  1  0.354159  0  0.088009  0.1174  0  4.010685  0
C  C36  1  0.30612695  0.52771935  0.58654629  1  0.353864  0  0.08815  0.11758  0  4.010492  0
C  C37  1  0.30609611  0.97228161  0.91346712  1  0.348297  0  0.088192  0.117602  0  4.010854  0
C  C38  1  0.60921381  0.35457695  0.36586104  1  0.400038  0  0.003108  -0.083642  0  3.943146  0
C  C39  1  0.60919507  0.14543723  0.13413517  1  0.394725  0  0.003213  -0.083548  0  3.943668  0
C  C40  1  0.39079638  0.64543951  0.63414556  1  0.394586  0  0.003065  -0.083635  0  3.943324  0
C  C41  1  0.39077911  0.85456663  0.86587516  1  0.400911  0  0.00308  -0.08359  0  3.942579  0
C  C42  1  0.84892809  0.48779491  0.45795293  1  -0.048863  0  -0.008968  0.046488  0  4.04799  0
C  C43  1  0.84890686  0.01220593  0.04205280  1  -0.048538  0  -0.008837  0.046532  0  4.0469  0
C  C44  1  0.15109139  0.51220564  0.54203906  1  -0.048339  0  -0.009019  0.046313  0  4.047355  0
C  C45  1  0.15108358  0.98777620  0.95796854  1  -0.048917  0  -0.008929  0.046745  0  4.048635  0
C  C46  1  0.94637330  0.59677253  0.45510859  1  -0.020496  0  -0.090547  -0.116315  0  3.981634  0
C  C47  1  0.94639675  0.90322511  0.04489038  1  -0.020407  0  -0.090553  -0.116524  0  3.98061  0
C  C48  1  0.05361366  0.40322866  0.54488056  1  -0.020338  0  -0.090546  -0.116396  0  3.981232  0
C  C49  1  0.05364248  0.09674653  0.95511952  1  -0.020755  0  -0.090657  -0.116737  0  3.981802  0
C  C50  1  0.90512662  0.39087740  0.50304251  1  -0.012387  0  -0.088401  -0.121497  0  3.987768  0
C  C51  1  0.90514331  0.10911465  0.99694310  1  -0.010494  0  -0.088311  -0.121327  0  3.987283  0
C  C52  1  0.09485918  0.60912781  0.49694660  1  -0.011678  0  -0.088325  -0.12135  0  3.987296  0
C  C53  1  0.09490986  0.89088305  0.00306615  1  -0.010982  0  -0.088404  -0.121453  0  3.988153  0
C  C54  1  0.21663655  0.12940142  0.39705230  1  1.508938  0  0.201505  0.571772  0  4.21493  0
C  C55  1  0.21661138  0.37060218  0.10293809  1  1.508679  0  0.201553  0.571429  0  4.214866  0
C  C56  1  0.78336899  0.87061297  0.60294580  1  1.508823  0  0.201605  0.571573  0  4.214538  0
C  C57  1  0.78338371  0.62939175  0.89705719  1  1.508758  0  0.201553  0.571728  0  4.214792  0
C  C58  1  0.10413229  0.05979543  0.44711165  1  -0.033468  0  -0.037777  -0.163045  0  4.026247  0
C  C59  1  0.10414917  0.44020909  0.05286741  1  -0.034272  0  -0.037707  -0.162508  0  4.026158  0
C  C60  1  0.89583956  0.94021376  0.55286113  1  -0.034005  0  -0.037534  -0.162411  0  4.025406  0
C  C61  1  0.89587147  0.55979020  0.94710662  1  -0.03389  0  -0.037833  -0.163102  0  4.0267  0
C  C62  1  0.94925172  0.03042441  0.41018630  1  0.503704  0  0.07393  0.280374  0  4.089007  0
C  C63  1  0.94926422  0.46957740  0.08979932  1  0.504447  0  0.073894  0.280156  0  4.088754  0
C  C64  1  0.05072478  0.96959228  0.58979814  1  0.503943  0  0.073695  0.279929  0  4.089178  0
C  C65  1  0.05075294  0.53041782  0.91019027  1  0.50349  0  0.073983  0.280378  0  4.08913  0
C  C66  1  0.15201312  0.02844000  0.53563612  1  0.012813  0  -0.103655  -0.206027  0  3.975025  0
C  C67  1  0.15203132  0.47156336  0.96436042  1  0.013449  0  -0.103783  -0.206288  0  3.974854  0
C  C68  1  0.84795293  0.97157258  0.46434761  1  0.013406  0  -0.103888  -0.206347  0  3.974542  0
C  C69  1  0.84798352  0.52843091  0.03562161  1  0.012312  0  -0.103767  -0.206213  0  3.974629  0
N  N70  1  0.46858547  0.39161432  0.33391718  1  -1.219052  0  -0.363162  -0.301006  0  3.644119  0
N  N71  1  0.46861562  0.10838309  0.16606619  1  -1.219433  0  -0.363168  -0.300883  0  3.64476  0
N  N72  1  0.53140265  0.60839084  0.66608745  1  -1.219346  0  -0.363124  -0.300934  0  3.644319  0
N  N73  1  0.53143058  0.89159987  0.83391387  1  -1.218821  0  -0.363151  -0.301107  0  3.643756  0
N  N74  1  0.60079798  0.58146773  0.40967637  1  -1.270953  0  -0.366182  -0.240756  0  3.614499  0
N  N75  1  0.60078170  0.91852821  0.09034185  1  -1.270285  0  -0.366147  -0.240856  0  3.614633  0
N  N76  1  0.39920989  0.41853436  0.59033586  1  -1.270395  0  -0.366161  -0.240753  0  3.614642  0
N  N77  1  0.39919480  0.08145736  0.90967491  1  -1.271188  0  -0.366294  -0.240881  0  3.614555  0
O  O78  1  0.16947873  0.14810127  0.31055574  1  -1.164777  0  -0.322339  -0.548679  0  2.336292  0
O  O79  1  0.16942688  0.35188844  0.18942572  1  -1.164111  0  -0.322329  -0.548479  0  2.336326  0
O  O80  1  0.83053959  0.85188695  0.68943411  1  -1.164354  0  -0.322329  -0.548491  0  2.3362  0
O  O81  1  0.83056820  0.64811081  0.81057197  1  -1.164234  0  -0.322336  -0.548525  0  2.33608  0
O  O82  1  0.34711964  0.16891091  0.43630376  1  -1.191978  0  -0.321661  -0.555439  0  2.175612  0
O  O83  1  0.34708037  0.33107283  0.06367316  1  -1.191917  0  -0.321703  -0.555385  0  2.175565  0
O  O84  1  0.65288939  0.83109887  0.56368170  1  -1.192213  0  -0.321748  -0.555489  0  2.17543  0
O  O85  1  0.65290775  0.66889719  0.93632388  1  -1.192099  0  -0.321732  -0.555477  0  2.175398  0
O  O86  1  0.89510245  0.05892717  0.32527700  1  -1.171404  0  -0.36371  -0.460032  0  2.285223  0
O  O87  1  0.89510814  0.44105825  0.17471260  1  -1.170833  0  -0.363698  -0.46006  0  2.284898  0
O  O88  1  0.10490658  0.94109814  0.67472005  1  -1.17092  0  -0.363635  -0.459825  0  2.284857  0
O  O89  1  0.10488927  0.55893118  0.82527894  1  -1.171281  0  -0.363716  -0.45993  0  2.285432  0
