# generated using pymatgen
data_NiH18C23(N2O3)2
_symmetry_space_group_name_H-M   'P 1'
_cell_length_a   7.98788317
_cell_length_b   10.04191436
_cell_length_c   12.80316712
_cell_angle_alpha   96.38803911
_cell_angle_beta   99.55661673
_cell_angle_gamma   92.75099772
_symmetry_Int_Tables_number   1
_chemical_formula_structural   NiH18C23(N2O3)2
_chemical_formula_sum   'Ni2 H36 C46 N8 O12'
_cell_volume   1004.13065295
_cell_formula_units_Z   2
loop_
 _symmetry_equiv_pos_site_id
 _symmetry_equiv_pos_as_xyz
  1  'x, y, z'
loop_
 _atom_site_type_symbol
 _atom_site_label
 _atom_site_symmetry_multiplicity
 _atom_site_fract_x
 _atom_site_fract_y
 _atom_site_fract_z
 _atom_site_occupancy
 _atom_site_pbe_bader_charge
 _atom_site_pbe_bader_spin_density
 _atom_site_pbe_cm5_charge
 _atom_site_pbe_ddec_charge
 _atom_site_pbe_ddec_spin_density
 _atom_site_pbe_ddec_sum_bond_order
 _atom_site_pbe_magmom
Ni  Ni0  1  0.99440368  0.30350260  0.89718211  1  1.191775  -1.582617  0.657004  0.811084  -1.778109  2.449776  -1.567
Ni  Ni1  1  0.00559877  0.69649669  0.10281939  1  1.191757  -1.582618  0.656973  0.810998  -1.778113  2.44989  -1.567
H  H2  1  0.00136443  0.80550675  0.36459747  1  0.637124  -0.000181  0.313144  0.376304  -0.000198  0.940747  0.0
H  H3  1  0.99863194  0.19449553  0.63540129  1  0.637138  -0.000181  0.313162  0.376317  -0.000198  0.940702  0.0
H  H4  1  0.57920160  0.40430087  0.15704902  1  0.105043  -0.000707  0.123138  0.128004  -0.000303  1.009447  0.0
H  H5  1  0.42080747  0.59570146  0.84295112  1  0.105144  -0.000708  0.123159  0.127949  -0.000303  1.009448  0.0
H  H6  1  0.33432424  0.49339443  0.00435133  1  0.145376  -0.000811  0.117085  0.115942  -0.000216  1.047253  -0.001
H  H7  1  0.66568100  0.50660788  0.99564996  1  0.145419  -0.000811  0.117076  0.115902  -0.000216  1.047237  -0.001
H  H8  1  0.19983283  0.09034523  0.03722855  1  0.192394  -0.000637  0.132562  0.110639  -0.000215  1.040729  0.0
H  H9  1  0.80016868  0.90965807  0.96277320  1  0.192344  -0.000637  0.132597  0.110703  -0.000215  1.040853  0.0
H  H10  1  0.62511980  0.13726664  0.19875631  1  0.095825  -7.6e-05  0.107394  0.092887  0.0  1.016182  0.0
H  H11  1  0.37488432  0.86273767  0.80124659  1  0.095851  -7.6e-05  0.107409  0.092935  0.0  1.016142  0.0
H  H12  1  0.43053794  0.03783858  0.17571070  1  0.065752  -3.5e-05  0.114725  0.100544  1.2e-05  0.995752  0.0
H  H13  1  0.56946470  0.96216272  0.82428943  1  0.065688  -3.5e-05  0.114708  0.100521  1.2e-05  0.995784  0.0
H  H14  1  0.29710013  0.35151624  0.25756683  1  0.063144  4.8e-05  0.098087  0.093  8.1e-05  1.054403  0.0
H  H15  1  0.70290027  0.64848906  0.74243420  1  0.063181  4.8e-05  0.098106  0.093002  8.1e-05  1.054387  0.0
H  H16  1  0.26554019  0.44269145  0.43975963  1  0.088023  -8e-06  0.102817  0.117479  -7e-06  1.034278  0.0
H  H17  1  0.73445505  0.55731283  0.56024075  1  0.088192  -8e-06  0.102818  0.117491  -7e-06  1.034231  0.0
H  H18  1  0.57403362  0.13947246  0.56780303  1  0.082265  3.5e-05  0.099475  0.098176  5.2e-05  1.026233  0.0
H  H19  1  0.42596156  0.86053082  0.43219648  1  0.082238  3.5e-05  0.099483  0.098139  5.2e-05  1.026224  0.0
H  H20  1  0.60867933  0.04987416  0.38623924  1  0.038303  0.0  0.09973  0.102518  1e-06  1.010311  0.0
H  H21  1  0.39131709  0.95012911  0.61376274  1  0.038225  0.0  0.09971  0.102441  1e-06  1.010359  0.0
H  H22  1  0.40435396  0.47100205  0.62858298  1  0.091401  7.7e-05  0.111979  0.098365  6.9e-05  0.995232  0.0
H  H23  1  0.59564843  0.52899722  0.37142476  1  0.091423  7.7e-05  0.111935  0.098351  6.9e-05  0.995251  0.0
H  H24  1  0.26537991  0.33296293  0.63942982  1  0.080244  -0.000244  0.121278  0.115196  -0.000101  0.976  0.0
H  H25  1  0.73461740  0.66703632  0.36057659  1  0.080322  -0.000243  0.121274  0.115153  -0.000101  0.97595  0.0
H  H26  1  0.75638319  0.39382688  0.68195651  1  0.180029  -0.000574  0.134586  0.112475  -0.0001  1.032472  0.0
H  H27  1  0.24361672  0.60617239  0.31804550  1  0.179987  -0.000574  0.134607  0.112453  -0.000101  1.032468  0.0
H  H28  1  0.63643495  0.19467099  0.93557326  1  0.10119  -0.000933  0.116552  0.112884  -0.000285  1.007823  -0.001
H  H29  1  0.36357062  0.80531927  0.06442544  1  0.101272  -0.000933  0.116555  0.112845  -0.000285  1.007829  -0.001
H  H30  1  0.33447727  0.22460453  0.79583907  1  0.161192  -0.000763  0.118804  0.130152  -0.000211  1.052277  -0.001
H  H31  1  0.66552556  0.77538371  0.20416228  1  0.160987  -0.000763  0.118829  0.130183  -0.000211  1.052166  -0.001
H  H32  1  0.05350272  0.84973399  0.91849077  1  0.117192  -9.4e-05  0.110786  0.116818  0.000103  1.051941  0.0
H  H33  1  0.94649741  0.15026730  0.08150519  1  0.11721  -9.4e-05  0.110795  0.11683  0.000103  1.051953  0.0
H  H34  1  0.08544507  0.55658712  0.65149598  1  0.116881  -0.000378  0.109091  0.116842  -0.00027  1.033224  0.0
H  H35  1  0.91455075  0.44340812  0.34850211  1  0.116922  -0.000378  0.109119  0.116845  -0.00027  1.033254  0.0
H  H36  1  0.02654356  0.97045799  0.60391314  1  0.126643  -0.000251  0.110219  0.120174  -0.00017  1.046203  0.0
H  H37  1  0.97345261  0.02954128  0.39608221  1  0.126715  -0.000252  0.110204  0.120126  -0.00017  1.046201  0.0
C  C38  1  0.46580042  0.35333455  0.10793158  1  0.291773  -0.002389  -0.001782  -0.113443  -0.001306  3.921106  -0.002
C  C39  1  0.53420482  0.64666776  0.89206971  1  0.291777  -0.002389  -0.00183  -0.113433  -0.001306  3.921099  -0.002
C  C40  1  0.34514194  0.39545764  0.03144158  1  0.413108  0.001142  0.00095  -0.019818  0.001772  3.981329  0.001
C  C41  1  0.65486221  0.60454667  0.96855821  1  0.413157  0.001142  0.000862  -0.019867  0.001772  3.981427  0.001
C  C42  1  0.26967155  0.18744162  0.04490114  1  0.939405  0.002447  0.136163  0.085261  0.003014  3.889303  0.001
C  C43  1  0.73033131  0.81256269  0.95510084  1  0.939328  0.002447  0.136086  0.085091  0.003014  3.889436  0.001
C  C44  1  0.48770134  0.14104893  0.19829340  1  0.304876  -0.001004  -0.044357  -0.103158  -0.000616  3.889797  -0.001
C  C45  1  0.51230273  0.85895438  0.80170706  1  0.304761  -0.001005  -0.044335  -0.103249  -0.000616  3.88978  -0.001
C  C46  1  0.45713329  0.19505496  0.30845439  1  -0.055079  -0.000103  -0.016398  0.082856  -4.7e-05  3.970515  0.0
C  C47  1  0.54287468  0.80494937  0.69154502  1  -0.055566  -0.000103  -0.016457  0.082856  -4.7e-05  3.970528  0.0
C  C48  1  0.35907368  0.30451714  0.32503950  1  0.037509  4.7e-05  -0.098038  -0.138657  7.7e-05  4.015928  0.0
C  C49  1  0.64092640  0.69548415  0.67496114  1  0.037808  4.7e-05  -0.098034  -0.13862  7.7e-05  4.015991  0.0
C  C50  1  0.34097346  0.35625961  0.42784294  1  -0.090043  -0.000121  -0.096007  -0.140046  -6.6e-05  3.983077  0.0
C  C51  1  0.65902163  0.64374266  0.57215725  1  -0.090376  -0.000121  -0.09604  -0.140148  -6.6e-05  3.983014  0.0
C  C52  1  0.41829288  0.29864722  0.51648732  1  -0.045933  0.000163  -0.015252  0.088395  0.000195  3.975232  0.0
C  C53  1  0.58170221  0.70135504  0.48351287  1  -0.045764  0.000163  -0.015239  0.088382  0.000195  3.975279  0.0
C  C54  1  0.51219304  0.18645043  0.50010225  1  -0.096298  -0.000126  -0.095572  -0.132745  -5e-05  3.995182  0.0
C  C55  1  0.48780570  0.81354984  0.49989815  1  -0.096317  -0.000126  -0.095561  -0.132674  -5e-05  3.995152  0.0
C  C56  1  0.53153482  0.13549048  0.39717340  1  0.009768  1.8e-05  -0.096724  -0.135401  2.9e-05  3.996069  0.0
C  C57  1  0.46846168  0.86451380  0.60282868  1  0.010041  1.8e-05  -0.096684  -0.1353  2.9e-05  3.995976  0.0
C  C58  1  0.39365444  0.36093814  0.62541867  1  0.303655  -0.001105  -0.042376  -0.107763  -0.000664  3.890109  -0.001
C  C59  1  0.60634291  0.63906112  0.37458462  1  0.303628  -0.001105  -0.04225  -0.107612  -0.000664  3.889948  -0.001
C  C60  1  0.68413660  0.34575760  0.73377204  1  0.944055  0.003848  0.138367  0.083846  0.004738  3.891169  0.002
C  C61  1  0.31586316  0.65423967  0.26622899  1  0.94403  0.003848  0.13835  0.083795  0.004738  3.891199  0.002
C  C62  1  0.61578395  0.23875610  0.86146551  1  0.42666  0.000221  -0.008237  -0.037457  0.000608  4.019815  0.0
C  C63  1  0.38422169  0.76123516  0.13853407  1  0.426787  0.000221  -0.008244  -0.037432  0.000608  4.019877  0.0
C  C64  1  0.46664142  0.25294759  0.79402900  1  0.269587  -0.003216  -0.004024  -0.113603  -0.001723  3.909479  -0.002
C  C65  1  0.53336145  0.74704066  0.20597001  1  0.269644  -0.003216  -0.00401  -0.113644  -0.001723  3.909521  -0.002
C  C66  1  0.03567666  0.92548108  0.76594580  1  -0.042836  -0.004953  -0.019934  -0.038154  -0.003083  3.997921  -0.004
C  C67  1  0.96432084  0.07451920  0.23405135  1  -0.042266  -0.004952  -0.01993  -0.038127  -0.003083  3.998076  -0.004
C  C68  1  0.05407284  0.82487717  0.83364529  1  -0.033338  -0.000871  -0.073003  -0.108267  -0.000125  3.92538  -0.001
C  C69  1  0.94592839  0.17512212  0.16635218  1  -0.033495  -0.00087  -0.072986  -0.108192  -0.000125  3.925372  -0.001
C  C70  1  0.07217967  0.69201769  0.79326105  1  -0.003125  -0.008935  -0.019263  -0.04564  -0.005183  3.971021  -0.007
C  C71  1  0.92781518  0.30798157  0.20673807  1  -0.003106  -0.008933  -0.019296  -0.045767  -0.005182  3.971073  -0.007
C  C72  1  0.07683324  0.66027044  0.68451729  1  -0.056769  -0.000176  -0.065753  -0.090772  0.00014  3.89396  0.0
C  C73  1  0.92315893  0.33972680  0.31547979  1  -0.056209  -0.000175  -0.065801  -0.090762  0.000141  3.893921  0.0
C  C74  1  0.06198321  0.76125305  0.61693710  1  -0.021547  -0.000502  -0.015486  -0.046348  -0.000165  3.992496  0.0
C  C75  1  0.93801037  0.23874620  0.38306188  1  -0.022138  -0.000502  -0.015521  -0.046361  -0.000165  3.992632  0.0
C  C76  1  0.04088087  0.89354567  0.65752753  1  -0.018132  -0.000489  -0.07272  -0.100168  -7.6e-05  3.90478  0.0
C  C77  1  0.95911026  0.10645458  0.34247049  1  -0.018642  -0.000489  -0.072663  -0.100131  -7.5e-05  3.904802  0.0
C  C78  1  0.00937467  0.06450541  0.81183446  1  1.547411  0.003506  0.205473  0.555476  0.005262  4.170848  0.005
C  C79  1  0.99062919  0.93549490  0.18816259  1  1.547547  0.003506  0.205356  0.555319  0.005261  4.17112  0.005
C  C80  1  0.07693209  0.58607162  0.86839575  1  1.575511  -0.00543  0.212862  0.578191  -0.00408  4.193023  -0.006
C  C81  1  0.92306665  0.41392865  0.13160466  1  1.575354  -0.005429  0.212978  0.578456  -0.004079  4.19263  -0.006
C  C82  1  0.06192455  0.72596592  0.50058418  1  1.53092  -0.000245  0.234285  0.577719  -0.000121  4.124788  0.0
C  C83  1  0.93807612  0.27402633  0.49941260  1  1.530644  -0.000245  0.23427  0.57756  -0.000121  4.124663  0.0
N  N84  1  0.22376268  0.29125690  0.99236732  1  -1.212243  -0.054065  -0.356026  -0.299232  -0.031105  3.60848  -0.048
N  N85  1  0.77624128  0.70874541  0.00763461  1  -1.212357  -0.054064  -0.355939  -0.29912  -0.031106  3.608464  -0.048
N  N86  1  0.41637079  0.22116364  0.11564739  1  -1.236077  -0.001356  -0.249542  0.035521  -0.000296  3.783597  -0.001
N  N87  1  0.58363328  0.77883967  0.88435229  1  -1.236057  -0.001355  -0.24949  0.035683  -0.000296  3.783413  -0.001
N  N88  1  0.51197242  0.32105304  0.71383688  1  -1.238311  -0.00152  -0.246104  0.042549  -0.000465  3.790302  -0.001
N  N89  1  0.48802835  0.67894121  0.28616556  1  -1.238314  -0.00152  -0.246134  0.042592  -0.000465  3.79027  -0.001
N  N90  1  0.74959260  0.29671630  0.82286490  1  -1.195618  -0.064294  -0.357239  -0.277991  -0.03708  3.632883  -0.056
N  N91  1  0.25041202  0.70327797  0.17713483  1  -1.195482  -0.064295  -0.357285  -0.277972  -0.037079  3.632982  -0.056
O  O92  1  0.00654593  0.82502862  0.44393464  1  -1.15639  -0.000786  -0.332388  -0.493042  -0.000384  2.348492  0.0
O  O93  1  0.99344748  0.17496862  0.55606571  1  -1.156414  -0.000786  -0.332388  -0.492971  -0.000383  2.348498  0.0
O  O94  1  0.10485163  0.61854665  0.46103946  1  -1.161079  -0.000153  -0.27853  -0.488892  -4.8e-05  2.194801  0.0
O  O95  1  0.89514090  0.38145561  0.53896124  1  -1.160761  -0.000153  -0.278543  -0.488852  -4.8e-05  2.194407  0.0
O  O96  1  0.05730499  0.46394032  0.82539773  1  -1.135871  -0.09301  -0.309301  -0.531095  -0.050828  2.340821  -0.085
O  O97  1  0.94269263  0.53606195  0.17460351  1  -1.135738  -0.093014  -0.309286  -0.531125  -0.05083  2.340587  -0.085
O  O98  1  0.10227800  0.62440248  0.96744272  1  -1.169889  -0.03539  -0.31413  -0.569416  -0.019454  2.451099  -0.03
O  O99  1  0.89772234  0.37560182  0.03255744  1  -1.169881  -0.035387  -0.314249  -0.569636  -0.019453  2.451109  -0.03
O  O100  1  0.04914907  0.16656112  0.76557144  1  -1.161539  -0.077477  -0.304973  -0.553185  -0.042571  2.297322  -0.07
O  O101  1  0.95085851  0.83343820  0.23442592  1  -1.16157  -0.077478  -0.304966  -0.553138  -0.042571  2.297493  -0.07
O  O102  1  0.95260739  0.08177483  0.89892177  1  -1.143927  -0.06553  -0.293393  -0.514958  -0.036431  2.246229  -0.059
O  O103  1  0.04739781  0.91822648  0.10107630  1  -1.144057  -0.065524  -0.293266  -0.514827  -0.036428  2.246313  -0.059
