# generated using pymatgen
data_KH11C14O3
_symmetry_space_group_name_H-M   'P 1'
_cell_length_a   8.99717154
_cell_length_b   10.26119558
_cell_length_c   14.21596292
_cell_angle_alpha   112.66199416
_cell_angle_beta   89.99992920
_cell_angle_gamma   89.99990828
_symmetry_Int_Tables_number   1
_chemical_formula_structural   KH11C14O3
_chemical_formula_sum   'K4 H44 C56 O12'
_cell_volume   1211.11378723
_cell_formula_units_Z   4
loop_
 _symmetry_equiv_pos_site_id
 _symmetry_equiv_pos_as_xyz
  1  'x, y, z'
loop_
 _atom_site_type_symbol
 _atom_site_label
 _atom_site_symmetry_multiplicity
 _atom_site_fract_x
 _atom_site_fract_y
 _atom_site_fract_z
 _atom_site_occupancy
 _atom_site_hle17_bader_spin_density
 _atom_site_hle17_ddec_charge
 _atom_site_hle17_ddec_spin_density
 _atom_site_hle17_ddec_sum_bond_order
 _atom_site_hle17_magmom
 _atom_site_hse06_10hf_bader_spin_density
 _atom_site_hse06_10hf_ddec_charge
 _atom_site_hse06_10hf_ddec_spin_density
 _atom_site_hse06_10hf_ddec_sum_bond_order
 _atom_site_hse06_10hf_magmom
 _atom_site_hse06_bader_spin_density
 _atom_site_hse06_ddec_charge
 _atom_site_hse06_ddec_spin_density
 _atom_site_hse06_ddec_sum_bond_order
 _atom_site_hse06_magmom
 _atom_site_pbe_bader_spin_density
 _atom_site_pbe_cm5_charge
 _atom_site_pbe_ddec_charge
 _atom_site_pbe_ddec_spin_density
 _atom_site_pbe_ddec_sum_bond_order
 _atom_site_pbe_magmom
K  K0  1  0.02839149  0.81107171  0.02369016  1  0  0.937545  0  0.467428  0  0  0.892505  0  0.649213  0  0  0.906285  0  0.629524  0  0  0.775322  0.88257  0  0.662771  0
K  K1  1  0.47161013  0.31107059  0.02368652  1  0  0.937539  0  0.46744  0  0  0.892499  0  0.649229  0  0  0.906273  0  0.629542  0  0  0.775328  0.882576  0  0.662787  0
K  K2  1  0.97160867  0.18892633  0.97630938  1  0  0.937542  0  0.467427  0  0  0.892511  0  0.649201  0  0  0.906291  0  0.62951  0  0  0.775322  0.88258  0  0.662761  0
K  K3  1  0.52839114  0.68892848  0.97631120  1  0  0.937546  0  0.467445  0  0  0.892525  0  0.649208  0  0  0.906297  0  0.62952  0  0  0.775335  0.882595  0  0.662763  0
H  H4  1  0.19573231  0.62571006  0.86456053  1  0  0.377756  0  0.903722  0  0  0.351291  0  0.983752  0  0  0.362018  0  0.970767  0  0  0.295045  0.343735  0  0.992961  0
H  H5  1  0.30426577  0.12571039  0.86456093  1  0  0.377811  0  0.903643  0  0  0.351357  0  0.983641  0  0  0.362085  0  0.970655  0  0  0.295088  0.343802  0  0.992849  0
H  H6  1  0.80426562  0.37428903  0.13543930  1  0  0.377844  0  0.903586  0  0  0.351392  0  0.983584  0  0  0.362118  0  0.970601  0  0  0.295095  0.343837  0  0.992796  0
H  H7  1  0.69573327  0.87428870  0.13543820  1  0  0.377805  0  0.903669  0  0  0.351347  0  0.983678  0  0  0.362074  0  0.970693  0  0  0.295074  0.343793  0  0.992882  0
H  H8  1  0.39371610  0.26123526  0.74528472  1  0  0.091718  0  0.968131  0  0  0.102629  0  1.031953  0  0  0.105433  0  1.030598  0  0  0.103031  0.099901  0  1.034462  0
H  H9  1  0.10628419  0.76123512  0.74528445  1  0  0.091716  0  0.968166  0  0  0.102632  0  1.031984  0  0  0.105438  0  1.030626  0  0  0.103025  0.099902  0  1.03449  0
H  H10  1  0.60628405  0.73876595  0.25471569  1  0  0.091717  0  0.968174  0  0  0.102637  0  1.031986  0  0  0.105443  0  1.030628  0  0  0.103016  0.099908  0  1.034492  0
H  H11  1  0.89371485  0.23876502  0.25471426  1  0  0.091702  0  0.968148  0  0  0.102614  0  1.031969  0  0  0.105418  0  1.030615  0  0  0.103023  0.099886  0  1.034476  0
H  H12  1  0.53440496  0.20875335  0.58564307  1  0  0.078174  0  0.98132  0  0  0.087566  0  1.046286  0  0  0.089726  0  1.046363  0  0  0.094021  0.0861  0  1.046104  0
H  H13  1  0.96559446  0.70875456  0.58564289  1  0  0.078182  0  0.981315  0  0  0.087574  0  1.046277  0  0  0.089733  0  1.046352  0  0  0.09403  0.086106  0  1.046097  0
H  H14  1  0.46559519  0.79124892  0.41435762  1  0  0.078171  0  0.981329  0  0  0.087563  0  1.046295  0  0  0.089724  0  1.046372  0  0  0.094027  0.086098  0  1.046115  0
H  H15  1  0.03440458  0.29124769  0.41435640  1  0  0.078183  0  0.9813  0  0  0.087561  0  1.046275  0  0  0.089719  0  1.046354  0  0  0.094028  0.086094  0  1.046093  0
H  H16  1  0.44943052  0.30349696  0.45771157  1  0  0.087658  0  0.976575  0  0  0.096649  0  1.040303  0  0  0.098861  0  1.040917  0  0  0.094625  0.095186  0  1.039878  0
H  H17  1  0.05057026  0.80349588  0.45771038  1  0  0.087665  0  0.976465  0  0  0.096671  0  1.040187  0  0  0.098881  0  1.040803  0  0  0.094643  0.095207  0  1.039761  0
H  H18  1  0.55056963  0.69650530  0.54228912  1  0  0.087623  0  0.976557  0  0  0.096631  0  1.040274  0  0  0.098841  0  1.04089  0  0  0.094629  0.095171  0  1.039842  0
H  H19  1  0.94942989  0.19650426  0.54228833  1  0  0.087638  0  0.976556  0  0  0.096635  0  1.040283  0  0  0.098845  0  1.040899  0  0  0.094618  0.095173  0  1.039854  0
H  H20  1  0.22211779  0.45376703  0.49252334  1  0  0.081858  0  0.958587  0  0  0.093997  0  1.017221  0  0  0.096567  0  1.01656  0  0  0.096942  0.091801  0  1.018439  0
H  H21  1  0.27788264  0.95376653  0.49252283  1  0  0.081894  0  0.958573  0  0  0.09403  0  1.017204  0  0  0.096601  0  1.016544  0  0  0.096951  0.091835  0  1.01842  0
H  H22  1  0.77788236  0.54623629  0.50747764  1  0  0.081864  0  0.958595  0  0  0.094027  0  1.017202  0  0  0.0966  0  1.016539  0  0  0.096963  0.091833  0  1.018417  0
H  H23  1  0.72211640  0.04623572  0.50747716  1  0  0.08189  0  0.958583  0  0  0.094034  0  1.017209  0  0  0.096606  0  1.016546  0  0  0.096969  0.091843  0  1.018422  0
H  H24  1  0.07852135  0.50301376  0.65153172  1  0  0.088678  0  0.961052  0  0  0.099776  0  1.025343  0  0  0.102489  0  1.02395  0  0  0.098943  0.097848  0  1.02638  0
H  H25  1  0.42147737  0.00301594  0.65153112  1  0  0.08866  0  0.961012  0  0  0.099756  0  1.025317  0  0  0.102468  0  1.023923  0  0  0.098918  0.097834  0  1.026351  0
H  H26  1  0.92147769  0.49698429  0.34846923  1  0  0.08866  0  0.961007  0  0  0.099756  0  1.025316  0  0  0.102472  0  1.023912  0  0  0.098933  0.097838  0  1.026343  0
H  H27  1  0.57852055  0.99698737  0.34846916  1  0  0.088678  0  0.961017  0  0  0.099774  0  1.025312  0  0  0.102487  0  1.023917  0  0  0.098933  0.097848  0  1.026347  0
H  H28  1  0.85830173  0.51579210  0.88525475  1  0  0.093021  0  0.974988  0  0  0.099414  0  1.045382  0  0  0.103334  0  1.042709  0  0  0.107828  0.0968  0  1.04686  0
H  H29  1  0.64169745  0.01579275  0.88525396  1  0  0.093049  0  0.974968  0  0  0.099455  0  1.045348  0  0  0.103361  0  1.04269  0  0  0.107825  0.096837  0  1.046829  0
H  H30  1  0.14169842  0.48420700  0.11474508  1  0  0.093045  0  0.97498  0  0  0.099447  0  1.045367  0  0  0.103354  0  1.042708  0  0  0.107832  0.096832  0  1.04685  0
H  H31  1  0.35830270  0.98420738  0.11474475  1  0  0.09305  0  0.974998  0  0  0.099456  0  1.045379  0  0  0.103362  0  1.04272  0  0  0.107835  0.096841  0  1.046862  0
H  H32  1  0.62531756  0.37643950  0.85565481  1  0  0.077423  0  0.979739  0  0  0.085828  0  1.047744  0  0  0.089317  0  1.045754  0  0  0.103372  0.083161  0  1.049819  0
H  H33  1  0.87468102  0.87644196  0.85565503  1  0  0.077413  0  0.97977  0  0  0.085825  0  1.047765  0  0  0.089316  0  1.045773  0  0  0.10337  0.083153  0  1.049839  0
H  H34  1  0.37468148  0.62355853  0.14434332  1  0  0.077407  0  0.979765  0  0  0.085814  0  1.047762  0  0  0.089305  0  1.045769  0  0  0.103366  0.083145  0  1.049841  0
H  H35  1  0.12531913  0.12356135  0.14434454  1  0  0.077409  0  0.979772  0  0  0.085822  0  1.04777  0  0  0.089313  0  1.045778  0  0  0.10337  0.083154  0  1.049844  0
H  H36  1  0.62732742  0.11900884  0.74874278  1  0  0.091999  0  0.972632  0  0  0.101541  0  1.037558  0  0  0.104467  0  1.035792  0  0  0.100347  0.099537  0  1.038652  0
H  H37  1  0.87267407  0.61901029  0.74874624  1  0  0.092005  0  0.972623  0  0  0.101566  0  1.037532  0  0  0.104475  0  1.035786  0  0  0.100358  0.09956  0  1.038623  0
H  H38  1  0.37267273  0.88099127  0.25125381  1  0  0.091955  0  0.972615  0  0  0.101519  0  1.037535  0  0  0.104425  0  1.03579  0  0  0.10033  0.099514  0  1.03863  0
H  H39  1  0.12732831  0.38099200  0.25125657  1  0  0.091961  0  0.97262  0  0  0.101521  0  1.037542  0  0  0.104431  0  1.035794  0  0  0.100327  0.099515  0  1.03864  0
H  H40  1  0.86542688  0.00310759  0.66750186  1  0  0.09053  0  0.95898  0  0  0.102297  0  1.016555  0  0  0.104543  0  1.016888  0  0  0.100434  0.101035  0  1.015765  0
H  H41  1  0.63457276  0.50310744  0.66750648  1  0  0.090529  0  0.95894  0  0  0.102308  0  1.016507  0  0  0.104553  0  1.016837  0  0  0.100431  0.101043  0  1.015722  0
H  H42  1  0.13457105  0.99689146  0.33249374  1  0  0.090526  0  0.958974  0  0  0.102308  0  1.016531  0  0  0.104552  0  1.016869  0  0  0.100445  0.101046  0  1.015739  0
H  H43  1  0.36542851  0.49689169  0.33249687  1  0  0.090528  0  0.958971  0  0  0.102298  0  1.016543  0  0  0.104543  0  1.016876  0  0  0.100427  0.101033  0  1.015759  0
H  H44  1  0.09536583  0.14361314  0.69313968  1  0  0.093638  0  0.975023  0  0  0.102182  0  1.041742  0  0  0.103813  0  1.043071  0  0  0.099667  0.101039  0  1.040976  0
H  H45  1  0.40463478  0.64361346  0.69314282  1  0  0.093665  0  0.97504  0  0  0.10219  0  1.041768  0  0  0.103821  0  1.043096  0  0  0.099676  0.101043  0  1.041007  0
H  H46  1  0.90463432  0.85638488  0.30685845  1  0  0.093658  0  0.975042  0  0  0.102185  0  1.041767  0  0  0.103816  0  1.043095  0  0  0.099673  0.10104  0  1.041001  0
H  H47  1  0.59536759  0.35638565  0.30685913  1  0  0.093639  0  0.975024  0  0  0.102183  0  1.041737  0  0  0.103814  0  1.043065  0  0  0.099664  0.101038  0  1.040977  0
C  C48  1  0.23602516  0.39475366  0.89029937  1  0  0.630669  0  3.893398  0  0  0.587905  0  4.19019  0  0  0.619038  0  4.182308  0  0  0.193622  0.566637  0  4.195096  0
C  C49  1  0.26397015  0.89475951  0.89029991  1  0  0.630719  0  3.893379  0  0  0.587878  0  4.190283  0  0  0.619027  0  4.182376  0  0  0.193614  0.566622  0  4.195175  0
C  C50  1  0.76397388  0.60524438  0.10970017  1  0  0.630607  0  3.893419  0  0  0.587842  0  4.190219  0  0  0.618972  0  4.18234  0  0  0.193601  0.566581  0  4.195115  0
C  C51  1  0.73602889  0.10524064  0.10970021  1  0  0.630623  0  3.893543  0  0  0.587773  0  4.190468  0  0  0.618918  0  4.182571  0  0  0.193543  0.56651  0  4.19536  0
C  C52  1  0.13739200  0.42368855  0.80889553  1  0  0.149574  0  3.600682  0  0  0.145417  0  3.830931  0  0  0.149102  0  3.839778  0  0  0.080853  0.142668  0  3.825213  0
C  C53  1  0.36260787  0.92368892  0.80889519  1  0  0.149533  0  3.600754  0  0  0.14539  0  3.831013  0  0  0.149048  0  3.839926  0  0  0.080821  0.142639  0  3.825291  0
C  C54  1  0.86260815  0.57631055  0.19110430  1  0  0.149517  0  3.60074  0  0  0.145343  0  3.831021  0  0  0.149007  0  3.839935  0  0  0.08082  0.14259  0  3.825306  0
C  C55  1  0.63739117  0.07631018  0.19110464  1  0  0.149542  0  3.600737  0  0  0.14541  0  3.830993  0  0  0.149096  0  3.83983  0  0  0.080835  0.142659  0  3.825275  0
C  C56  1  0.22608667  0.38614144  0.70981191  1  0  0.015013  0  3.715578  0  0  0.034386  0  3.943824  0  0  0.033284  0  3.967444  0  0  -0.012232  0.035403  0  3.927871  0
C  C57  1  0.27391346  0.88614095  0.70981211  1  0  0.015042  0  3.715596  0  0  0.03439  0  3.94387  0  0  0.033289  0  3.967485  0  0  -0.012216  0.035408  0  3.927915  0
C  C58  1  0.77391459  0.61385872  0.29018821  1  0  0.015145  0  3.715415  0  0  0.034447  0  3.943781  0  0  0.033345  0  3.967397  0  0  -0.012189  0.035459  0  3.927836  0
C  C59  1  0.72608669  0.11385815  0.29018772  1  0  0.014943  0  3.715699  0  0  0.034303  0  3.943958  0  0  0.0332  0  3.967579  0  0  -0.012255  0.03532  0  3.928006  0
C  C60  1  0.35437597  0.30285375  0.68984107  1  0  -0.107813  0  3.742663  0  0  -0.130347  0  3.990609  0  0  -0.132781  0  4.012622  0  0  -0.090688  -0.128744  0  3.977352  0
C  C61  1  0.14562435  0.80285353  0.68984074  1  0  -0.107814  0  3.74273  0  0  -0.130346  0  3.990677  0  0  -0.132779  0  4.012685  0  0  -0.09068  -0.128738  0  3.977405  0
C  C62  1  0.64562529  0.69714746  0.31015933  1  0  -0.1079  0  3.742772  0  0  -0.130425  0  3.990733  0  0  -0.132858  0  4.012744  0  0  -0.090695  -0.128813  0  3.977464  0
C  C63  1  0.85437469  0.19714662  0.31015867  1  0  -0.107761  0  3.742751  0  0  -0.130286  0  3.99069  0  0  -0.13272  0  4.012704  0  0  -0.090671  -0.128683  0  3.977429  0
C  C64  1  0.43363655  0.27235527  0.59935870  1  0  -0.076707  0  3.794164  0  0  -0.085979  0  4.038605  0  0  -0.088197  0  4.060639  0  0  -0.096406  -0.083929  0  4.023644  0
C  C65  1  0.06636511  0.77235626  0.59935806  1  0  -0.076717  0  3.794213  0  0  -0.085988  0  4.038662  0  0  -0.088203  0  4.060694  0  0  -0.096416  -0.083939  0  4.0237  0
C  C66  1  0.56636471  0.72764700  0.40064199  1  0  -0.076709  0  3.79429  0  0  -0.085972  0  4.038717  0  0  -0.088192  0  4.060754  0  0  -0.096421  -0.083925  0  4.023758  0
C  C67  1  0.93363504  0.22764493  0.40064093  1  0  -0.076726  0  3.794229  0  0  -0.085982  0  4.038676  0  0  -0.088199  0  4.06071  0  0  -0.096412  -0.083929  0  4.023711  0
C  C68  1  0.38653844  0.32578867  0.52773806  1  0  -0.074771  0  3.767673  0  0  -0.085853  0  4.006608  0  0  -0.087507  0  4.027781  0  0  -0.094574  -0.085341  0  3.992681  0
C  C69  1  0.11346327  0.82578747  0.52773820  1  0  -0.074796  0  3.767622  0  0  -0.085889  0  4.00656  0  0  -0.087544  0  4.027735  0  0  -0.094605  -0.085376  0  3.992638  0
C  C70  1  0.61346282  0.67421464  0.47226222  1  0  -0.074768  0  3.767729  0  0  -0.085865  0  4.006675  0  0  -0.087519  0  4.027851  0  0  -0.094598  -0.085349  0  3.992741  0
C  C71  1  0.88653688  0.17421267  0.47226122  1  0  -0.074776  0  3.767751  0  0  -0.085864  0  4.00669  0  0  -0.087517  0  4.027865  0  0  -0.094573  -0.085349  0  3.99276  0
C  C72  1  0.25840030  0.40925311  0.54710160  1  0  -0.07528  0  3.787972  0  0  -0.084275  0  4.032386  0  0  -0.086352  0  4.053635  0  0  -0.093601  -0.082667  0  4.018604  0
C  C73  1  0.24160011  0.90925269  0.54710114  1  0  -0.075288  0  3.787965  0  0  -0.084277  0  4.032379  0  0  -0.086355  0  4.053628  0  0  -0.093588  -0.082679  0  4.018613  0
C  C74  1  0.74160097  0.59074915  0.45289839  1  0  -0.075306  0  3.78812  0  0  -0.084324  0  4.032545  0  0  -0.086401  0  4.053794  0  0  -0.093635  -0.082717  0  4.018766  0
C  C75  1  0.75840004  0.09074851  0.45289856  1  0  -0.075262  0  3.787973  0  0  -0.08426  0  4.032389  0  0  -0.086338  0  4.053639  0  0  -0.093617  -0.082664  0  4.018618  0
C  C76  1  0.17814274  0.43775644  0.63681627  1  0  -0.098563  0  3.735678  0  0  -0.120714  0  3.984229  0  0  -0.122533  0  4.004814  0  0  -0.090911  -0.119817  0  3.970474  0
C  C77  1  0.32185633  0.93775584  0.63681499  1  0  -0.098541  0  3.735577  0  0  -0.120683  0  3.984132  0  0  -0.122498  0  4.00471  0  0  -0.090894  -0.119795  0  3.970386  0
C  C78  1  0.82185519  0.56224689  0.36318613  1  0  -0.098501  0  3.735678  0  0  -0.120638  0  3.984245  0  0  -0.122454  0  4.004828  0  0  -0.090887  -0.119755  0  3.9705  0
C  C79  1  0.67814271  0.06224536  0.36318471  1  0  -0.09855  0  3.735603  0  0  -0.120693  0  3.984161  0  0  -0.122511  0  4.004744  0  0  -0.090892  -0.1198  0  3.970415  0
C  C80  1  0.99268089  0.34050827  0.78998644  1  0  0.025193  0  3.718921  0  0  0.041768  0  3.948121  0  0  0.040639  0  3.971907  0  0  -0.013671  0.042807  0  3.931798  0
C  C81  1  0.50731900  0.84050940  0.78998659  1  0  0.02519  0  3.718982  0  0  0.041834  0  3.948064  0  0  0.04071  0  3.971839  0  0  -0.013603  0.042876  0  3.931738  0
C  C82  1  0.00731926  0.65948977  0.21001310  1  0  0.02523  0  3.718955  0  0  0.041879  0  3.948038  0  0  0.040753  0  3.971813  0  0  -0.013591  0.04292  0  3.931713  0
C  C83  1  0.49268115  0.15948970  0.21001395  1  0  0.025228  0  3.718896  0  0  0.04182  0  3.948061  0  0  0.04069  0  3.971842  0  0  -0.013652  0.042862  0  3.931736  0
C  C84  1  0.85949115  0.40407380  0.83618248  1  0  -0.111606  0  3.740822  0  0  -0.132123  0  3.986678  0  0  -0.134412  0  4.007542  0  0  -0.089573  -0.13013  0  3.971624  0
C  C85  1  0.64050853  0.90407676  0.83618303  1  0  -0.111668  0  3.740784  0  0  -0.132217  0  3.986617  0  0  -0.1345  0  4.007491  0  0  -0.089605  -0.130223  0  3.971557  0
C  C86  1  0.14050900  0.59592318  0.16381677  1  0  -0.111693  0  3.740834  0  0  -0.132239  0  3.986661  0  0  -0.134526  0  4.007542  0  0  -0.089617  -0.130246  0  3.97161  0
C  C87  1  0.35949162  0.09592445  0.16381738  1  0  -0.111681  0  3.740833  0  0  -0.132206  0  3.986667  0  0  -0.134496  0  4.007557  0  0  -0.089595  -0.130212  0  3.971612  0
C  C88  1  0.72849229  0.32483403  0.82016661  1  0  -0.090903  0  3.814528  0  0  -0.101468  0  4.063455  0  0  -0.103604  0  4.085633  0  0  -0.090943  -0.099798  0  4.048392  0
C  C89  1  0.77150868  0.82483567  0.82016739  1  0  -0.090849  0  3.814513  0  0  -0.101415  0  4.063446  0  0  -0.103548  0  4.085609  0  0  -0.090916  -0.099745  0  4.048373  0
C  C90  1  0.27150897  0.67516399  0.17983152  1  0  -0.090818  0  3.814508  0  0  -0.101377  0  4.063437  0  0  -0.103511  0  4.085601  0  0  -0.090892  -0.09971  0  4.048378  0
C  C91  1  0.22849147  0.17516554  0.17983301  1  0  -0.090904  0  3.814558  0  0  -0.10148  0  4.063498  0  0  -0.103613  0  4.085659  0  0  -0.090957  -0.099812  0  4.048432  0
C  C92  1  0.72915936  0.18064278  0.75941604  1  0  -0.101553  0  3.806583  0  0  -0.115833  0  4.055127  0  0  -0.118027  0  4.077143  0  0  -0.096816  -0.114583  0  4.040208  0
C  C93  1  0.77083977  0.68064338  0.75941865  1  0  -0.101592  0  3.806603  0  0  -0.115904  0  4.05518  0  0  -0.118085  0  4.077202  0  0  -0.096873  -0.114654  0  4.040257  0
C  C94  1  0.27083968  0.81935629  0.24058167  1  0  -0.101536  0  3.806529  0  0  -0.115849  0  4.055091  0  0  -0.118024  0  4.077113  0  0  -0.096848  -0.114597  0  4.040172  0
C  C95  1  0.22916149  0.31935680  0.24058429  1  0  -0.101456  0  3.806542  0  0  -0.115756  0  4.055085  0  0  -0.117936  0  4.077107  0  0  -0.096763  -0.114506  0  4.040165  0
C  C96  1  0.86231909  0.11586734  0.71420540  1  0  -0.085296  0  3.797519  0  0  -0.094333  0  4.041957  0  0  -0.096665  0  4.064065  0  0  -0.094539  -0.092504  0  4.026465  0
C  C97  1  0.63768136  0.61586717  0.71420861  1  0  -0.08527  0  3.797407  0  0  -0.094322  0  4.041843  0  0  -0.096657  0  4.063958  0  0  -0.094525  -0.092493  0  4.026354  0
C  C98  1  0.13767995  0.88413173  0.28579161  1  0  -0.085248  0  3.797422  0  0  -0.094301  0  4.041863  0  0  -0.096633  0  4.063964  0  0  -0.094523  -0.09247  0  4.02636  0
C  C99  1  0.36231990  0.38413301  0.28579433  1  0  -0.085305  0  3.797455  0  0  -0.094348  0  4.041893  0  0  -0.096679  0  4.063998  0  0  -0.094542  -0.092519  0  4.026409  0
C  C100  1  0.99247101  0.19539221  0.72881282  1  0  -0.117804  0  3.752541  0  0  -0.137939  0  3.999552  0  0  -0.139672  0  4.020547  0  0  -0.094597  -0.136829  0  3.985358  0
C  C101  1  0.50753037  0.69539230  0.72881480  1  0  -0.117829  0  3.752595  0  0  -0.137962  0  3.999589  0  0  -0.139694  0  4.02058  0  0  -0.094633  -0.136854  0  3.985401  0
C  C102  1  0.00752914  0.80460688  0.27118630  1  0  -0.117881  0  3.752599  0  0  -0.138013  0  3.99959  0  0  -0.139744  0  4.020582  0  0  -0.094651  -0.136898  0  3.985392  0
C  C103  1  0.49247200  0.30460682  0.27118715  1  0  -0.117803  0  3.752497  0  0  -0.137936  0  3.999498  0  0  -0.139669  0  4.020497  0  0  -0.094589  -0.136824  0  3.98531  0
O  O104  1  0.10136605  0.57153528  0.84912540  1  0  -0.612249  0  2.081035  0  0  -0.570557  0  2.307124  0  0  -0.586046  0  2.295554  0  0  -0.439278  -0.559208  0  2.314538  0
O  O105  1  0.39863216  0.07153539  0.84912425  1  0  -0.612311  0  2.08104  0  0  -0.570636  0  2.307151  0  0  -0.586118  0  2.295586  0  0  -0.439331  -0.559294  0  2.314571  0
O  O106  1  0.89863187  0.42846383  0.15087514  1  0  -0.612339  0  2.081039  0  0  -0.570641  0  2.307119  0  0  -0.586123  0  2.29555  0  0  -0.439314  -0.559293  0  2.314543  0
O  O107  1  0.60136799  0.92846475  0.15087516  1  0  -0.612305  0  2.08109  0  0  -0.570628  0  2.307193  0  0  -0.586113  0  2.295618  0  0  -0.439306  -0.559283  0  2.314609  0
O  O108  1  0.20327494  0.29151371  0.91508033  1  0  -0.74123  0  2.039534  0  0  -0.690574  0  2.281863  0  0  -0.714317  0  2.272103  0  0  -0.472041  -0.673983  0  2.288217  0
O  O109  1  0.29672496  0.79151001  0.91507964  1  0  -0.741317  0  2.039111  0  0  -0.690632  0  2.281483  0  0  -0.71437  0  2.271697  0  0  -0.472108  -0.674051  0  2.287832  0
O  O110  1  0.79672410  0.70848750  0.08492007  1  0  -0.741172  0  2.039493  0  0  -0.690505  0  2.281808  0  0  -0.714241  0  2.272043  0  0  -0.472017  -0.673915  0  2.28815  0
O  O111  1  0.70327408  0.20848909  0.08492090  1  0  -0.741197  0  2.039282  0  0  -0.690514  0  2.281649  0  0  -0.714252  0  2.271865  0  0  -0.472031  -0.673942  0  2.288021  0
O  O112  1  0.34371334  0.47794750  0.92580975  1  0  -0.71669  0  1.980174  0  0  -0.67518  0  2.227777  0  0  -0.698821  0  2.218504  0  0  -0.474179  -0.658707  0  2.233667  0
O  O113  1  0.15629064  0.97794411  0.92580996  1  0  -0.716603  0  1.980629  0  0  -0.675083  0  2.228309  0  0  -0.698733  0  2.219042  0  0  -0.474105  -0.658621  0  2.234198  0
O  O114  1  0.65628792  0.52205265  0.07419036  1  0  -0.71666  0  1.980238  0  0  -0.675159  0  2.227859  0  0  -0.698793  0  2.218579  0  0  -0.474169  -0.65869  0  2.233751  0
O  O115  1  0.84370951  0.02205605  0.07419087  1  0  -0.716621  0  1.980542  0  0  -0.675094  0  2.228219  0  0  -0.698748  0  2.218958  0  0  -0.474111  -0.658626  0  2.234103  0
