# generated using pymatgen
data_AgH12C17S2O2F7
_symmetry_space_group_name_H-M   'P 1'
_cell_length_a   6.86196477
_cell_length_b   11.03506804
_cell_length_c   12.95021414
_cell_angle_alpha   87.42111225
_cell_angle_beta   83.97908033
_cell_angle_gamma   77.19812704
_symmetry_Int_Tables_number   1
_chemical_formula_structural   AgH12C17S2O2F7
_chemical_formula_sum   'Ag2 H24 C34 S4 O4 F14'
_cell_volume   950.72896834
_cell_formula_units_Z   2
loop_
 _symmetry_equiv_pos_site_id
 _symmetry_equiv_pos_as_xyz
  1  'x, y, z'
loop_
 _atom_site_type_symbol
 _atom_site_label
 _atom_site_symmetry_multiplicity
 _atom_site_fract_x
 _atom_site_fract_y
 _atom_site_fract_z
 _atom_site_occupancy
 _atom_site_hle17_bader_spin_density
 _atom_site_hle17_ddec_charge
 _atom_site_hle17_ddec_spin_density
 _atom_site_hle17_ddec_sum_bond_order
 _atom_site_hle17_magmom
 _atom_site_hse06_10hf_bader_spin_density
 _atom_site_hse06_10hf_ddec_charge
 _atom_site_hse06_10hf_ddec_spin_density
 _atom_site_hse06_10hf_ddec_sum_bond_order
 _atom_site_hse06_10hf_magmom
 _atom_site_hse06_bader_spin_density
 _atom_site_hse06_ddec_charge
 _atom_site_hse06_ddec_spin_density
 _atom_site_hse06_ddec_sum_bond_order
 _atom_site_hse06_magmom
 _atom_site_pbe_bader_spin_density
 _atom_site_pbe_cm5_charge
 _atom_site_pbe_ddec_charge
 _atom_site_pbe_ddec_spin_density
 _atom_site_pbe_ddec_sum_bond_order
 _atom_site_pbe_magmom
Ag  Ag0  1  0.45549287  0.37105297  0.50341781  1  0  0.426662  0  1.564819  0  0  0.300804  0  2.055241  0  0  0.330517  0  2.001187  0  0  0.359975  0.279395  0  2.093432  0
Ag  Ag1  1  0.54450556  0.62894639  0.49658332  1  0  0.426639  0  1.564869  0  0  0.300781  0  2.055316  0  0  0.330492  0  2.001265  0  0  0.359964  0.279374  0  2.093511  0
H  H2  1  0.24188804  0.29267571  0.70750040  1  0  0.096801  0  0.995024  0  0  0.103545  0  1.065654  0  0  0.106518  0  1.063989  0  0  0.091737  0.101348  0  1.067016  0
H  H3  1  0.75811073  0.70732273  0.29249996  1  0  0.096756  0  0.995048  0  0  0.103503  0  1.06567  0  0  0.106479  0  1.064001  0  0  0.091719  0.101303  0  1.06704  0
H  H4  1  0.31043276  0.17101347  0.86987206  1  0  0.085578  0  0.956686  0  0  0.094965  0  1.018106  0  0  0.097639  0  1.017064  0  0  0.092749  0.093052  0  1.018993  0
H  H5  1  0.68955948  0.82898678  0.13012937  1  0  0.085638  0  0.956616  0  0  0.095027  0  1.01803  0  0  0.097702  0  1.016986  0  0  0.092782  0.093115  0  1.018917  0
H  H6  1  0.38550047  0.94007277  0.86869616  1  0  0.081041  0  0.972046  0  0  0.092364  0  1.033033  0  0  0.0948  0  1.031608  0  0  0.091874  0.090615  0  1.034133  0
H  H7  1  0.61449246  0.05992562  0.13130685  1  0  0.081017  0  0.971945  0  0  0.092356  0  1.032915  0  0  0.094782  0  1.0315  0  0  0.091858  0.090604  0  1.034018  0
H  H8  1  0.39005080  0.83016065  0.70417662  1  0  0.096486  0  0.973609  0  0  0.102422  0  1.043374  0  0  0.105763  0  1.041123  0  0  0.090189  0.099875  0  1.045266  0
H  H9  1  0.60994248  0.16983681  0.29582640  1  0  0.096549  0  0.973574  0  0  0.102494  0  1.043329  0  0  0.105839  0  1.041077  0  0  0.090197  0.099947  0  1.045212  0
H  H10  1  0.30954777  0.95317936  0.54181387  1  0  0.077338  0  1.007065  0  0  0.079572  0  1.08775  0  0  0.082213  0  1.086959  0  0  0.083425  0.077635  0  1.088434  0
H  H11  1  0.69045024  0.04681720  0.45818738  1  0  0.077331  0  1.007081  0  0  0.079577  0  1.08775  0  0  0.082219  0  1.086957  0  0  0.083413  0.077636  0  1.088441  0
H  H12  1  0.94343904  0.37931823  0.46980731  1  0  0.127086  0  0.966113  0  0  0.141209  0  1.028105  0  0  0.142891  0  1.027344  0  0  0.100184  0.13996  0  1.028828  0
H  H13  1  0.05656335  0.62067837  0.53019292  1  0  0.127033  0  0.966128  0  0  0.14117  0  1.028121  0  0  0.142853  0  1.027361  0  0  0.100167  0.139919  0  1.02885  0
H  H14  1  0.99104183  0.37249338  0.60292482  1  0  0.134897  0  0.947457  0  0  0.148732  0  1.00764  0  0  0.150598  0  1.006887  0  0  0.107449  0.147531  0  1.008165  0
H  H15  1  0.00895660  0.62750598  0.39707553  1  0  0.134882  0  0.947428  0  0  0.148741  0  1.00759  0  0  0.150608  0  1.006836  0  0  0.107461  0.14754  0  1.008112  0
H  H16  1  0.67346640  0.41391118  0.73613948  1  0  0.09738  0  0.969887  0  0  0.107397  0  1.035705  0  0  0.109825  0  1.034846  0  0  0.094657  0.105584  0  1.036459  0
H  H17  1  0.32653642  0.58608822  0.26385985  1  0  0.097374  0  0.969883  0  0  0.107396  0  1.035698  0  0  0.109817  0  1.034846  0  0  0.094649  0.10558  0  1.036452  0
H  H18  1  0.66034323  0.38058191  0.92760445  1  0  0.090024  0  0.961879  0  0  0.098816  0  1.024791  0  0  0.101899  0  1.022697  0  0  0.090765  0.096529  0  1.026518  0
H  H19  1  0.33965967  0.61942121  0.07239552  1  0  0.090018  0  0.961951  0  0  0.098787  0  1.024873  0  0  0.101868  0  1.022776  0  0  0.090758  0.0965  0  1.0266  0
H  H20  1  0.74822660  0.16730609  0.00340895  1  0  0.08355  0  0.964889  0  0  0.093233  0  1.028629  0  0  0.096196  0  1.02655  0  0  0.094136  0.091113  0  1.030117  0
H  H21  1  0.25176934  0.83269606  0.99659145  1  0  0.083558  0  0.964894  0  0  0.093238  0  1.028634  0  0  0.096205  0  1.026552  0  0  0.094133  0.091119  0  1.030122  0
H  H22  1  0.84450402  0.98491098  0.88741576  1  0  0.084673  0  0.952734  0  0  0.094367  0  1.013468  0  0  0.097445  0  1.011742  0  0  0.094152  0.092088  0  1.014876  0
H  H23  1  0.15548788  0.01509020  0.11258644  1  0  0.084681  0  0.952789  0  0  0.094411  0  1.013469  0  0  0.097488  0  1.011745  0  0  0.094175  0.09213  0  1.014877  0
H  H24  1  0.85712790  0.01724160  0.69562099  1  0  0.098118  0  0.949283  0  0  0.105474  0  1.01607  0  0  0.108483  0  1.014719  0  0  0.097926  0.103343  0  1.017052  0
H  H25  1  0.14286580  0.98275866  0.30438114  1  0  0.098172  0  0.949258  0  0  0.105549  0  1.015993  0  0  0.108557  0  1.014641  0  0  0.09799  0.103417  0  1.016974  0
C  C26  1  0.70246253  0.44514099  0.30772549  1  0  0.537138  0  3.980152  0  0  0.48071  0  4.280283  0  0  0.512919  0  4.276507  0  0  0.186233  0.458617  0  4.282278  0
C  C27  1  0.29753513  0.55485651  0.69227343  1  0  0.536971  0  3.980281  0  0  0.480558  0  4.280382  0  0  0.512756  0  4.276624  0  0  0.186134  0.458482  0  4.28235  0
C  C28  1  0.82558276  0.42837530  0.19868157  1  0  0.337051  0  3.632025  0  0  0.288153  0  3.943389  0  0  0.301775  0  3.932569  0  0  0.192595  0.278327  0  3.95136  0
C  C29  1  0.17442006  0.57162410  0.80131854  1  0  0.336947  0  3.632139  0  0  0.288018  0  3.943463  0  0  0.301626  0  3.93266  0  0  0.192572  0.27819  0  3.951433  0
C  C30  1  0.03663859  0.34086121  0.20439637  1  0  0.276043  0  3.691859  0  0  0.214849  0  4.011087  0  0  0.228832  0  4.000329  0  0  0.190248  0.20485  0  4.019209  0
C  C31  1  0.96336457  0.65913726  0.79560220  1  0  0.275986  0  3.691927  0  0  0.215008  0  4.010785  0  0  0.22899  0  4.000028  0  0  0.190324  0.205001  0  4.018927  0
C  C32  1  0.17579001  0.31848512  0.10051412  1  0  0.68717  0  3.710249  0  0  0.604052  0  4.066011  0  0  0.633956  0  4.038852  0  0  0.297523  0.582414  0  4.086171  0
C  C33  1  0.82421142  0.68151801  0.89948130  1  0  0.687211  0  3.710267  0  0  0.604043  0  4.066032  0  0  0.633958  0  4.038824  0  0  0.297437  0.582402  0  4.086197  0
C  C34  1  0.27259890  0.12985316  0.61511332  1  0  0.018658  0  3.790341  0  0  0.043384  0  4.034813  0  0  0.042154  0  4.061169  0  0  -0.02254  0.043856  0  4.017582  0
C  C35  1  0.72740237  0.87014249  0.38488778  1  0  0.018727  0  3.790401  0  0  0.043435  0  4.034895  0  0  0.042205  0  4.061252  0  0  -0.022465  0.043912  0  4.017657  0
C  C36  1  0.27241254  0.19156174  0.70728359  1  0  -0.116101  0  3.758988  0  0  -0.136427  0  4.004577  0  0  -0.139678  0  4.028639  0  0  -0.100176  -0.134168  0  3.988805  0
C  C37  1  0.72758658  0.80843576  0.29271834  1  0  -0.115971  0  3.758996  0  0  -0.136288  0  4.00457  0  0  -0.139536  0  4.028626  0  0  -0.100165  -0.134031  0  3.988802  0
C  C38  1  0.31015005  0.12276586  0.79838771  1  0  -0.046183  0  3.766247  0  0  -0.056586  0  4.011953  0  0  -0.059197  0  4.035743  0  0  -0.088771  -0.054888  0  3.996075  0
C  C39  1  0.68984692  0.87723349  0.20161427  1  0  -0.046314  0  3.76622  0  0  -0.05672  0  4.011954  0  0  -0.05933  0  4.035739  0  0  -0.088803  -0.055024  0  3.996079  0
C  C40  1  0.35261233  0.99300999  0.79729177  1  0  -0.065633  0  3.760827  0  0  -0.082583  0  4.010404  0  0  -0.084187  0  4.032378  0  0  -0.092675  -0.081521  0  3.995623  0
C  C41  1  0.64738060  0.00698840  0.20270970  1  0  -0.065591  0  3.760602  0  0  -0.082551  0  4.01018  0  0  -0.084146  0  4.032156  0  0  -0.092691  -0.081488  0  3.9954  0
C  C42  1  0.35592127  0.93146476  0.70512250  1  0  -0.068334  0  3.760818  0  0  -0.07967  0  4.008965  0  0  -0.082384  0  4.031186  0  0  -0.098155  -0.077703  0  3.993917  0
C  C43  1  0.64407492  0.06853272  0.29487959  1  0  -0.068474  0  3.760679  0  0  -0.079823  0  4.008843  0  0  -0.082551  0  4.031082  0  0  -0.0982  -0.077846  0  3.99377  0
C  C44  1  0.31354975  0.00001907  0.61360683  1  0  -0.11253  0  3.768702  0  0  -0.130313  0  4.013061  0  0  -0.133004  0  4.035853  0  0  -0.099433  -0.128301  0  3.997487  0
C  C45  1  0.68645745  0.99998035  0.38639535  1  0  -0.11253  0  3.768618  0  0  -0.13033  0  4.012996  0  0  -0.133021  0  4.035788  0  0  -0.099429  -0.128315  0  3.997418  0
C  C46  1  0.98026006  0.31684344  0.53663130  1  0  -0.200424  0  3.583521  0  0  -0.23409  0  3.847035  0  0  -0.232919  0  3.855502  0  0  -0.144376  -0.235379  0  3.841745  0
C  C47  1  0.01974018  0.68315501  0.46336975  1  0  -0.200326  0  3.583431  0  0  -0.234027  0  3.84697  0  0  -0.232857  0  3.855435  0  0  -0.144367  -0.235311  0  3.841672  0
C  C48  1  0.76741382  0.21710552  0.70469866  1  0  0.030797  0  3.777203  0  0  0.055591  0  4.022153  0  0  0.053997  0  4.049121  0  0  -0.0135  0.056378  0  4.004002  0
C  C49  1  0.23258495  0.78289291  0.29530248  1  0  0.030794  0  3.777193  0  0  0.0556  0  4.022134  0  0  0.054006  0  4.049099  0  0  -0.013492  0.056387  0  4.003983  0
C  C50  1  0.71098014  0.32002367  0.76938329  1  0  -0.111718  0  3.738549  0  0  -0.131822  0  3.983093  0  0  -0.134482  0  4.006445  0  0  -0.097173  -0.129688  0  3.967095  0
C  C51  1  0.28902302  0.67997480  0.23061606  1  0  -0.111719  0  3.738632  0  0  -0.131839  0  3.983174  0  0  -0.134494  0  4.006529  0  0  -0.097188  -0.129701  0  3.967166  0
C  C52  1  0.70386941  0.30113943  0.87682197  1  0  -0.055315  0  3.756615  0  0  -0.070644  0  4.010711  0  0  -0.072912  0  4.032247  0  0  -0.095596  -0.069096  0  3.996013  0
C  C53  1  0.29613169  0.69886461  0.12317807  1  0  -0.055307  0  3.75673  0  0  -0.070605  0  4.010823  0  0  -0.072869  0  4.032356  0  0  -0.095585  -0.069057  0  3.996124  0
C  C54  1  0.75198117  0.18083041  0.91941255  1  0  -0.069154  0  3.767299  0  0  -0.087991  0  4.020958  0  0  -0.088907  0  4.042081  0  0  -0.09448  -0.08708  0  4.006269  0
C  C55  1  0.24801699  0.81917361  0.08058688  1  0  -0.06921  0  3.76721  0  0  -0.088052  0  4.020886  0  0  -0.088972  0  4.042006  0  0  -0.094517  -0.087143  0  4.006203  0
C  C56  1  0.80625473  0.07881413  0.85449477  1  0  -0.060741  0  3.768169  0  0  -0.069453  0  4.014017  0  0  -0.072623  0  4.036856  0  0  -0.089104  -0.067185  0  3.998441  0
C  C57  1  0.19374525  0.92118898  0.14550613  1  0  -0.060684  0  3.768194  0  0  -0.069424  0  4.014038  0  0  -0.072594  0  4.036878  0  0  -0.089098  -0.067155  0  3.998463  0
C  C58  1  0.81377587  0.09636859  0.74685291  1  0  -0.087379  0  3.738934  0  0  -0.108156  0  3.981568  0  0  -0.110067  0  4.004884  0  0  -0.084121  -0.106697  0  3.965898  0
C  C59  1  0.18622402  0.90363079  0.25314891  1  0  -0.087499  0  3.73888  0  0  -0.108286  0  3.98154  0  0  -0.110196  0  4.004855  0  0  -0.084176  -0.106826  0  3.96587  0
S  S60  1  0.22140873  0.21524816  0.49740770  1  0  0.028774  0  2.590926  0  0  0.048414  0  2.972799  0  0  0.043458  0  2.967615  0  0  0.00143  0.052689  0  2.977144  0
S  S61  1  0.77859262  0.78475123  0.50259172  1  0  0.028736  0  2.590924  0  0  0.048391  0  2.972813  0  0  0.043436  0  2.96763  0  0  0.001414  0.052665  0  2.97716  0
S  S62  1  0.77727217  0.23533781  0.56715609  1  0  0.014311  0  2.666715  0  0  0.040697  0  3.063047  0  0  0.035532  0  3.057494  0  0  0.007286  0.044716  0  3.067644  0
S  S63  1  0.22272660  0.76466063  0.43284351  1  0  0.014325  0  2.666752  0  0  0.040703  0  3.063105  0  0  0.035538  0  3.057554  0  0  0.007285  0.044718  0  3.067702  0
O  O64  1  0.56192772  0.38895775  0.32449776  1  0  -0.537113  0  2.077884  0  0  -0.488602  0  2.343955  0  0  -0.514429  0  2.332517  0  0  -0.308773  -0.4705  0  2.351329  0
O  O65  1  0.43808069  0.61104633  0.67550496  1  0  -0.537138  0  2.077614  0  0  -0.488678  0  2.34376  0  0  -0.514507  0  2.33233  0  0  -0.308805  -0.470573  0  2.351123  0
O  O66  1  0.76376695  0.51393913  0.36674210  1  0  -0.576586  0  2.141373  0  0  -0.516252  0  2.40849  0  0  -0.543954  0  2.397896  0  0  -0.317111  -0.496619  0  2.414918  0
O  O67  1  0.23623466  0.48607144  0.63325690  1  0  -0.576396  0  2.141612  0  0  -0.516049  0  2.4087  0  0  -0.543744  0  2.398111  0  0  -0.316978  -0.496424  0  2.415121  0
F  F68  1  0.85206207  0.54200106  0.15916787  1  0  -0.202648  0  1.207242  0  0  -0.161306  0  1.371451  0  0  -0.170397  0  1.360161  0  0  -0.10092  -0.154923  0  1.37943  0
F  F69  1  0.14794289  0.45799649  0.84083141  1  0  -0.20261  0  1.207254  0  0  -0.161287  0  1.371487  0  0  -0.170344  0  1.360172  0  0  -0.100918  -0.154901  0  1.379463  0
F  F70  1  0.72613101  0.37966946  0.12979695  1  0  -0.199396  0  1.200624  0  0  -0.159168  0  1.363387  0  0  -0.167062  0  1.350335  0  0  -0.101482  -0.153493  0  1.372452  0
F  F71  1  0.27387284  0.62032715  0.87020397  1  0  -0.199332  0  1.200583  0  0  -0.159118  0  1.363366  0  0  -0.167015  0  1.350323  0  0  -0.101486  -0.153439  0  1.372433  0
F  F72  1  0.00873812  0.22719765  0.24246624  1  0  -0.17936  0  1.206863  0  0  -0.139133  0  1.369953  0  0  -0.147668  0  1.358873  0  0  -0.086616  -0.133042  0  1.37771  0
F  F73  1  0.99126141  0.77280268  0.75752861  1  0  -0.17937  0  1.20684  0  0  -0.139186  0  1.369841  0  0  -0.147724  0  1.358761  0  0  -0.086616  -0.13309  0  1.377601  0
F  F74  1  0.14012489  0.38758766  0.27192780  1  0  -0.171012  0  1.240606  0  0  -0.129123  0  1.409672  0  0  -0.137515  0  1.397339  0  0  -0.085028  -0.123007  0  1.418098  0
F  F75  1  0.85988188  0.61240898  0.72806987  1  0  -0.170979  0  1.240649  0  0  -0.129145  0  1.409641  0  0  -0.13754  0  1.397312  0  0  -0.085064  -0.123023  0  1.418071  0
F  F76  1  0.21913376  0.42566711  0.06079492  1  0  -0.21004  0  1.201517  0  0  -0.18609  0  1.379984  0  0  -0.195126  0  1.362761  0  0  -0.083498  -0.179568  0  1.392191  0
F  F77  1  0.78087782  0.57433235  0.93920393  1  0  -0.20999  0  1.20146  0  0  -0.186041  0  1.379938  0  0  -0.195079  0  1.362706  0  0  -0.083429  -0.179515  0  1.392146  0
F  F78  1  0.35014462  0.23895946  0.11919846  1  0  -0.224848  0  1.199079  0  0  -0.183822  0  1.36389  0  0  -0.193503  0  1.34777  0  0  -0.079461  -0.176752  0  1.375178  0
F  F79  1  0.64985526  0.76103994  0.88079409  1  0  -0.224895  0  1.199129  0  0  -0.183855  0  1.363937  0  0  -0.19354  0  1.347809  0  0  -0.079497  -0.176781  0  1.375226  0
F  F80  1  0.08964749  0.26729006  0.02915804  1  0  -0.215023  0  1.196274  0  0  -0.187487  0  1.373469  0  0  -0.197365  0  1.357855  0  0  -0.081525  -0.180289  0  1.384498  0
F  F81  1  0.91035041  0.73271865  0.97083429  1  0  -0.215044  0  1.196295  0  0  -0.187514  0  1.373503  0  0  -0.197395  0  1.357878  0  0  -0.081483  -0.180314  0  1.384533  0
