# generated using pymatgen
data_ZnH17C12Br(NO)2
_symmetry_space_group_name_H-M   'P 1'
_cell_length_a   14.78697882
_cell_length_b   15.76180701
_cell_length_c   15.76247019
_cell_angle_alpha   119.99727774
_cell_angle_beta   90.00002633
_cell_angle_gamma   90.00006293
_symmetry_Int_Tables_number   1
_chemical_formula_structural   ZnH17C12Br(NO)2
_chemical_formula_sum   'Zn6 H102 C72 Br6 N12 O12'
_cell_volume   3181.64908975
_cell_formula_units_Z   6
loop_
 _symmetry_equiv_pos_site_id
 _symmetry_equiv_pos_as_xyz
  1  'x, y, z'
loop_
 _atom_site_type_symbol
 _atom_site_label
 _atom_site_symmetry_multiplicity
 _atom_site_fract_x
 _atom_site_fract_y
 _atom_site_fract_z
 _atom_site_occupancy
 _atom_site_pbe_bader_charge
 _atom_site_pbe_bader_spin_density
 _atom_site_pbe_cm5_charge
 _atom_site_pbe_ddec_charge
 _atom_site_pbe_ddec_spin_density
 _atom_site_pbe_ddec_sum_bond_order
 _atom_site_pbe_magmom
Zn  Zn0  1  0.48167553  0.35970393  0.75343485  1  1.152564  0  0.590751  0.693804  0  2.429083  0
Zn  Zn1  1  0.31517851  0.75332205  0.39371405  1  1.15092  0  0.590993  0.693785  0  2.4278  0
Zn  Zn2  1  0.14859802  0.39369308  0.64025984  1  1.152956  0  0.590973  0.69387  0  2.428381  0
Zn  Zn3  1  0.98167629  0.64029665  0.24656452  1  1.152548  0  0.590743  0.693785  0  2.429125  0
Zn  Zn4  1  0.81517898  0.24667852  0.60628612  1  1.150934  0  0.590987  0.693769  0  2.427813  0
Zn  Zn5  1  0.64859744  0.60630649  0.35974085  1  1.15297  0  0.59098  0.69391  0  2.428336  0
H  H6  1  0.44180189  0.38559329  0.51905012  1  0.051755  0  0.107414  0.0759  0  0.987718  0
H  H7  1  0.27479210  0.51902332  0.13354796  1  0.071267  0  0.107444  0.076074  0  0.987759  0
H  H8  1  0.10838478  0.13350282  0.61443237  1  0.011421  0  0.107597  0.076561  0  0.987355  0
H  H9  1  0.94179868  0.61440496  0.48094767  1  0.051713  0  0.107409  0.0759  0  0.987689  0
H  H10  1  0.77479230  0.48097682  0.86645252  1  0.071267  0  0.107455  0.076056  0  0.987723  0
H  H11  1  0.60838519  0.86649631  0.38556863  1  0.011427  0  0.107592  0.076554  0  0.987361  0
H  H12  1  0.40149266  0.20773796  0.44987852  1  0.033799  0  0.093008  0.094968  0  0.982558  0
H  H13  1  0.23451341  0.44982633  0.24212257  1  0.020887  0  0.092749  0.094563  0  0.982389  0
H  H14  1  0.06801423  0.24228903  0.79219658  1  0.027992  0  0.092848  0.094759  0  0.982226  0
H  H15  1  0.90149239  0.79226076  0.55012122  1  0.033765  0  0.093029  0.095008  0  0.982554  0
H  H16  1  0.73451296  0.55017512  0.75787776  1  0.021184  0  0.092761  0.094566  0  0.982352  0
H  H17  1  0.56801375  0.75771140  0.20780427  1  0.028005  0  0.092836  0.094736  0  0.982193  0
H  H18  1  0.46061767  0.20779705  0.54792874  1  0.03284  0  0.084155  0.081742  0  1.045465  0
H  H19  1  0.29347685  0.54792941  0.34024122  1  0.029299  0  0.084051  0.081718  0  1.045548  0
H  H20  1  0.12715213  0.34026689  0.79211680  1  0.08194  0  0.084017  0.081707  0  1.045243  0
H  H21  1  0.96061736  0.79220313  0.45207097  1  0.032835  0  0.084164  0.081727  0  1.045469  0
H  H22  1  0.79347691  0.45207176  0.65975956  1  0.029316  0  0.084028  0.081664  0  1.045588  0
H  H23  1  0.62715221  0.65973301  0.20788350  1  0.081935  0  0.084023  0.081721  0  1.045199  0
H  H24  1  0.60500959  0.24894966  0.48767740  1  0.017532  0  0.084759  0.052251  0  0.999809  0
H  H25  1  0.43804858  0.48786493  0.23932468  1  0.02661  0  0.084782  0.052185  0  1.000479  0
H  H26  1  0.27159468  0.23908854  0.75143465  1  0.027247  0  0.084635  0.051805  0  0.999873  0
H  H27  1  0.10500849  0.75104730  0.51232070  1  0.017498  0  0.084731  0.052261  0  0.999854  0
H  H28  1  0.93804809  0.51213549  0.76067600  1  0.026615  0  0.084777  0.052179  0  1.000484  0
H  H29  1  0.77159490  0.76091287  0.24856710  1  0.027439  0  0.084672  0.051893  0  0.999841  0
H  H30  1  0.57061063  0.52785825  0.74257891  1  0.101046  0  0.114816  0.108662  0  0.981243  0
H  H31  1  0.40358124  0.74259684  0.21466532  1  0.080301  0  0.114754  0.108603  0  0.980488  0
H  H32  1  0.23746119  0.21468549  0.47212798  1  0.094782  0  0.114861  0.109345  0  0.981014  0
H  H33  1  0.07061179  0.47214119  0.25742167  1  0.101117  0  0.114824  0.108667  0  0.981226  0
H  H34  1  0.90358113  0.25740288  0.78533469  1  0.080334  0  0.114743  0.108566  0  0.980424  0
H  H35  1  0.73746158  0.78531359  0.52787218  1  0.094757  0  0.11486  0.109404  0  0.980946  0
H  H36  1  0.45609433  0.53560713  0.71409648  1  0.04293  0  0.114522  0.102243  0  0.955942  0
H  H37  1  0.28905748  0.71398936  0.17848746  1  0.0614  0  0.114452  0.102359  0  0.955535  0
H  H38  1  0.12291782  0.17847154  0.46423289  1  0.057363  0  0.114444  0.102444  0  0.955748  0
H  H39  1  0.95609558  0.46439158  0.28590470  1  0.043004  0  0.114479  0.102206  0  0.95601  0
H  H40  1  0.78905675  0.28601218  0.82151294  1  0.061428  0  0.114435  0.102334  0  0.955561  0
H  H41  1  0.62291826  0.82152872  0.53576703  1  0.057417  0  0.114426  0.102437  0  0.955801  0
H  H42  1  0.62756579  0.08089632  0.35275377  1  0.021553  0  0.086054  0.119067  0  1.019491  0
H  H43  1  0.46044592  0.35269609  0.27210103  1  0.023774  0  0.086051  0.119201  0  1.019291  0
H  H44  1  0.29372976  0.27213826  0.91951375  1  0.03113  0  0.086144  0.11975  0  1.019065  0
H  H45  1  0.12756699  0.91910077  0.64724299  1  0.021606  0  0.086044  0.119022  0  1.01946  0
H  H46  1  0.96044624  0.64730409  0.72789868  1  0.023772  0  0.086043  0.119155  0  1.019301  0
H  H47  1  0.79372986  0.72786218  0.08048775  1  0.031123  0  0.086161  0.119752  0  1.019086  0
H  H48  1  0.50887689  0.05880130  0.34347291  1  0.030098  0  0.079949  0.10634  0  1.005908  0
H  H49  1  0.34173674  0.34330776  0.28466030  1  -0.015067  0  0.080101  0.106643  0  1.005725  0
H  H50  1  0.17497799  0.28473719  0.94126225  1  0.016309  0  0.080309  0.107116  0  1.00556  0
H  H51  1  0.00887676  0.94119750  0.65652560  1  0.030282  0  0.079934  0.106335  0  1.005784  0
H  H52  1  0.84173707  0.65669286  0.71533990  1  -0.01507  0  0.080096  0.10663  0  1.005701  0
H  H53  1  0.67497875  0.71526306  0.05873910  1  0.016335  0  0.080316  0.107132  0  1.005582  0
H  H54  1  0.56804182  0.08106056  0.45095751  1  0.01267  0  0.080451  0.111296  0  1.019419  0
H  H55  1  0.40079690  0.45077237  0.37011816  1  0.036333  0  0.080398  0.111358  0  1.019408  0
H  H56  1  0.23418080  0.37012271  0.91925085  1  -0.007628  0  0.080495  0.111711  0  1.018417  0
H  H57  1  0.06804162  0.91893617  0.54903817  1  0.012556  0  0.080428  0.11127  0  1.019422  0
H  H58  1  0.90079638  0.54922798  0.62988248  1  0.036341  0  0.080405  0.111339  0  1.019466  0
H  H59  1  0.73418146  0.62987800  0.08075022  1  -0.007609  0  0.080503  0.111724  0  1.018399  0
H  H60  1  0.60871143  0.22106525  0.31880686  1  0.018279  0  0.086553  0.122891  0  1.001935  0
H  H61  1  0.44214800  0.31920118  0.09812710  1  0.031525  0  0.086602  0.122811  0  1.001841  0
H  H62  1  0.27523903  0.09798879  0.77910953  1  0.039399  0  0.086485  0.122937  0  1.001894  0
H  H63  1  0.10871316  0.77893409  0.68119141  1  0.018358  0  0.086537  0.122882  0  1.001868  0
H  H64  1  0.94214777  0.68080024  0.90187386  1  0.031506  0  0.086585  0.122792  0  1.001865  0
H  H65  1  0.77523873  0.90201235  0.22089122  1  0.039295  0  0.086494  0.122953  0  1.00187  0
H  H66  1  0.53621597  0.32061016  0.39152565  1  0.041352  0  0.078627  0.103914  0  1.047307  0
H  H67  1  0.36962612  0.39187033  0.07126612  1  0.006542  0  0.07856  0.103811  0  1.047894  0
H  H68  1  0.20280567  0.07117416  0.67951547  1  -0.010777  0  0.078687  0.104029  0  1.047439  0
H  H69  1  0.03621687  0.67938858  0.60847426  1  0.041333  0  0.078614  0.103908  0  1.047315  0
H  H70  1  0.86962650  0.60813097  0.92873474  1  0.006333  0  0.07855  0.103802  0  1.047898  0
H  H71  1  0.70280544  0.92882686  0.32048519  1  -0.010801  0  0.078666  0.104031  0  1.047422  0
H  H72  1  0.48917652  0.20445461  0.30842437  1  0.013584  0  0.082292  0.110236  0  1.004942  0
H  H73  1  0.32261986  0.30848233  0.10396777  1  0.011263  0  0.082299  0.11004  0  1.005221  0
H  H74  1  0.15568926  0.10414443  0.79562441  1  0.021039  0  0.082353  0.11034  0  1.005344  0
H  H75  1  0.98917768  0.79554452  0.69157648  1  0.013609  0  0.082306  0.110247  0  1.004932  0
H  H76  1  0.82261964  0.69151826  0.89603240  1  0.011264  0  0.082273  0.110006  0  1.005224  0
H  H77  1  0.65568827  0.89585552  0.20437592  1  0.021026  0  0.082342  0.110319  0  1.005315  0
H  H78  1  0.43664279  0.62356111  0.62736028  1  0.104942  0  0.109065  0.123338  0  0.994812  0
H  H79  1  0.26958214  0.62735067  0.00385243  1  0.112819  0  0.108822  0.122854  0  0.995005  0
H  H80  1  0.10322672  0.00384350  0.37649501  1  0.110898  0  0.109049  0.12337  0  0.994688  0
H  H81  1  0.93664600  0.37643767  0.37263950  1  0.104967  0  0.109069  0.123343  0  0.994839  0
H  H82  1  0.76958160  0.37265083  0.99614795  1  0.112828  0  0.108809  0.122829  0  0.995038  0
H  H83  1  0.60322741  0.99615418  0.62350235  1  0.11082  0  0.109051  0.123421  0  0.994592  0
H  H84  1  0.67236830  0.43664253  0.56095091  1  0.119854  0  0.104375  0.116539  0  1.032296  0
H  H85  1  0.50550862  0.56105442  0.12416841  1  0.0855  0  0.104482  0.116739  0  1.031711  0
H  H86  1  0.33928723  0.12406144  0.56288919  1  0.086075  0  0.104739  0.117249  0  1.031456  0
H  H87  1  0.17236830  0.56336035  0.43905162  1  0.119837  0  0.104363  0.116535  0  1.032287  0
H  H88  1  0.00550870  0.43894728  0.87583227  1  0.085632  0  0.104481  0.116768  0  1.031675  0
H  H89  1  0.83928971  0.87593845  0.43711174  1  0.086684  0  0.104755  0.117286  0  1.031479  0
H  H90  1  0.71603510  0.48521458  0.43978977  1  0.15686  0  0.12129  0.096536  0  0.994252  0
H  H91  1  0.54903421  0.43984251  0.95439386  1  0.140101  0  0.12151  0.097181  0  0.994532  0
H  H92  1  0.38266709  0.95427559  0.51449516  1  0.146665  0  0.12121  0.096549  0  0.994522  0
H  H93  1  0.21603646  0.51478737  0.56021254  1  0.156805  0  0.121341  0.096606  0  0.994234  0
H  H94  1  0.04903537  0.56015726  0.04560634  1  0.14007  0  0.12151  0.097192  0  0.994524  0
H  H95  1  0.88266727  0.04572419  0.48550346  1  0.14664  0  0.121228  0.096557  0  0.994551  0
H  H96  1  0.48781009  0.65956123  0.49897612  1  0.155912  0  0.104381  0.087658  0  1.062607  0
H  H97  1  0.32068805  0.49904391  0.83943267  1  0.158354  0  0.103942  0.087796  0  1.063642  0
H  H98  1  0.15419975  0.83938984  0.34051410  1  0.171021  0  0.104189  0.087107  0  1.062668  0
H  H99  1  0.98781265  0.34043763  0.50102372  1  0.155875  0  0.104309  0.087535  0  1.062624  0
H  H100  1  0.82068792  0.50095704  0.16056714  1  0.158358  0  0.103963  0.087828  0  1.063678  0
H  H101  1  0.65419948  0.16060867  0.65948259  1  0.171015  0  0.104204  0.087153  0  1.062643  0
H  H102  1  0.57332911  0.35986196  0.61644906  1  0.458695  0  0.295992  0.24947  0  0.987015  0
H  H103  1  0.40652363  0.61627820  0.25633703  1  0.452975  0  0.296377  0.24926  0  0.98628  0
H  H104  1  0.24005881  0.25645073  0.64004497  1  0.456257  0  0.296054  0.249053  0  0.986914  0
H  H105  1  0.07332782  0.64013858  0.38355043  1  0.458674  0  0.295989  0.249444  0  0.987061  0
H  H106  1  0.90652433  0.38372252  0.74366325  1  0.452967  0  0.296363  0.249254  0  0.986289  0
H  H107  1  0.74005907  0.74354809  0.35995419  1  0.455939  0  0.296076  0.249094  0  0.986862  0
C  C108  1  0.44268983  0.35040537  0.56428491  1  0.277262  0  -0.006003  -0.004619  0  3.853831  0
C  C109  1  0.27577680  0.56429234  0.21396335  1  0.274826  0  -0.006563  -0.007344  0  3.854377  0
C  C110  1  0.10934446  0.21391746  0.64954870  1  0.329642  0  -0.006417  -0.006727  0  3.85541  0
C  C111  1  0.94269001  0.64959451  0.43571378  1  0.277356  0  -0.005998  -0.004544  0  3.85365  0
C  C112  1  0.77577623  0.43570917  0.78603703  1  0.274793  0  -0.006489  -0.007126  0  3.854172  0
C  C113  1  0.60934409  0.78608304  0.35045220  1  0.329642  0  -0.006382  -0.006645  0  3.855294  0
C  C114  1  0.45957284  0.23996264  0.49986071  1  -0.031872  0  -0.161649  -0.221552  0  3.872638  0
C  C115  1  0.29258480  0.49986345  0.26000762  1  -0.029339  0  -0.161748  -0.220264  0  3.870785  0
C  C116  1  0.12613564  0.26003301  0.76001191  1  -0.077682  0  -0.161843  -0.220552  0  3.871899  0
C  C117  1  0.95957116  0.76003581  0.50013946  1  -0.031974  0  -0.161666  -0.221588  0  3.872646  0
C  C118  1  0.79258428  0.50013535  0.73999298  1  -0.029642  0  -0.161762  -0.220285  0  3.870733  0
C  C119  1  0.62613651  0.73996688  0.23998838  1  -0.077671  0  -0.161867  -0.220569  0  3.871908  0
C  C120  1  0.54698756  0.21175475  0.43900844  1  0.032928  0  -0.095718  0.121748  0  3.864774  0
C  C121  1  0.38005225  0.43908251  0.22754764  1  0.032939  0  -0.095267  0.120736  0  3.867465  0
C  C122  1  0.21348342  0.22749094  0.78843298  1  0.031414  0  -0.095018  0.122832  0  3.864872  0
C  C123  1  0.04698721  0.78824247  0.56098921  1  0.033101  0  -0.095684  0.121788  0  3.864807  0
C  C124  1  0.88005250  0.56091881  0.77245324  1  0.032944  0  -0.09531  0.120724  0  3.86744  0
C  C125  1  0.71348364  0.77250873  0.21156779  1  0.031197  0  -0.095023  0.122759  0  3.865028  0
C  C126  1  0.35053647  0.36734870  0.61514909  1  1.566856  0  0.203997  0.559587  0  4.163362  0
C  C127  1  0.18369920  0.61534211  0.24797780  1  1.561989  0  0.204545  0.561802  0  4.161856  0
C  C128  1  0.01722965  0.24796341  0.63265021  1  1.559593  0  0.20437  0.560735  0  4.164314  0
C  C129  1  0.85053526  0.63265223  0.38484702  1  1.566862  0  0.204077  0.559623  0  4.163263  0
C  C130  1  0.68369991  0.38465724  0.75202193  1  1.56216  0  0.204531  0.561703  0  4.161903  0
C  C131  1  0.51722992  0.75203558  0.36735068  1  1.559589  0  0.204394  0.560692  0  4.164392  0
C  C132  1  0.52147548  0.50104199  0.68232561  1  0.255988  0  -0.062869  -0.085425  0  3.896267  0
C  C133  1  0.35450423  0.68229392  0.18125265  1  0.265754  0  -0.06268  -0.085587  0  3.894023  0
C  C134  1  0.18826790  0.18121277  0.49885437  1  0.270599  0  -0.062968  -0.08699  0  3.897484  0
C  C135  1  0.02147602  0.49895736  0.31767492  1  0.255865  0  -0.062861  -0.085419  0  3.896436  0
C  C136  1  0.85450286  0.31770836  0.81874847  1  0.265752  0  -0.062668  -0.085546  0  3.893965  0
C  C137  1  0.68826899  0.81878623  0.50114573  1  0.270574  0  -0.063015  -0.087132  0  3.897474  0
C  C138  1  0.56382662  0.10175844  0.39398758  1  -0.061361  0  -0.245727  -0.385987  0  3.927134  0
C  C139  1  0.39669459  0.39390529  0.29242108  1  -0.042714  0  -0.245745  -0.386136  0  3.928062  0
C  C140  1  0.23004265  0.29243719  0.89849324  1  -0.040491  0  -0.246529  -0.388536  0  3.92705  0
C  C141  1  0.06382710  0.89823855  0.60600909  1  -0.061743  0  -0.245713  -0.385964  0  3.926948  0
C  C142  1  0.89669418  0.60609442  0.70757892  1  -0.042715  0  -0.245733  -0.386045  0  3.928102  0
C  C143  1  0.73004274  0.70756451  0.10150808  1  -0.04049  0  -0.24655  -0.388546  0  3.927146  0
C  C144  1  0.54504733  0.24131736  0.36028269  1  -0.078432  0  -0.247936  -0.395475  0  3.940984  0
C  C145  1  0.37840343  0.36050722  0.11921942  1  -0.050629  0  -0.247947  -0.394593  0  3.941907  0
C  C146  1  0.21159047  0.11919274  0.75882332  1  -0.053945  0  -0.248105  -0.39589  0  3.941951  0
C  C147  1  0.04504834  0.75868213  0.63971650  1  -0.078259  0  -0.247914  -0.39547  0  3.940876  0
C  C148  1  0.87840382  0.63949410  0.88078146  1  -0.050416  0  -0.247876  -0.394549  0  3.941932  0
C  C149  1  0.71159015  0.88080793  0.24117771  1  -0.053801  0  -0.248066  -0.395866  0  3.941851  0
C  C150  1  0.55087228  0.52813670  0.60726150  1  -0.085418  0  0.008175  0.1313  0  3.961326  0
C  C151  1  0.38389624  0.60727524  0.07906400  1  -0.048787  0  0.008379  0.13207  0  3.959698  0
C  C152  1  0.21760039  0.07902045  0.47170731  1  -0.043507  0  0.00861  0.132202  0  3.961655  0
C  C153  1  0.05087351  0.47186434  0.39273997  1  -0.085875  0  0.008263  0.131359  0  3.961386  0
C  C154  1  0.88389568  0.39272645  0.92093652  1  -0.048731  0  0.008422  0.132174  0  3.959673  0
C  C155  1  0.71760229  0.92097870  0.52829147  1  -0.043505  0  0.008609  0.132231  0  3.961599  0
C  C156  1  0.49963670  0.59139635  0.58842885  1  -0.045029  0  -0.083584  -0.185722  0  3.951724  0
C  C157  1  0.33258847  0.58843734  0.99702443  1  0.057389  0  -0.08335  -0.185444  0  3.951269  0
C  C158  1  0.16623545  0.99699791  0.40858057  1  -0.022001  0  -0.083688  -0.186323  0  3.951758  0
C  C159  1  0.99963862  0.40860290  0.41157065  1  -0.045012  0  -0.083588  -0.185762  0  3.95169  0
C  C160  1  0.83258817  0.41156363  0.00297539  1  0.05711  0  -0.083362  -0.185471  0  3.951258  0
C  C161  1  0.66623631  0.00300151  0.59141778  1  -0.022003  0  -0.083707  -0.186382  0  3.95154  0
C  C162  1  0.62978965  0.48830457  0.55216574  1  0.012073  0  -0.081018  -0.172299  0  3.924798  0
C  C163  1  0.46285554  0.55222562  0.06375902  1  -0.083808  0  -0.081348  -0.173658  0  3.925886  0
C  C164  1  0.29658002  0.06366139  0.51138727  1  -0.086247  0  -0.08176  -0.17408  0  3.925707  0
C  C165  1  0.12978960  0.51169633  0.44783483  1  0.012484  0  -0.081041  -0.172307  0  3.924807  0
C  C166  1  0.96285505  0.44777520  0.93624133  1  -0.083911  0  -0.081348  -0.173713  0  3.925845  0
C  C167  1  0.79658191  0.93633816  0.48861260  1  -0.086917  0  -0.081744  -0.174107  0  3.925869  0
C  C168  1  0.65452966  0.51372322  0.48291623  1  0.426605  0  0.054749  0.109044  0  3.914615  0
C  C169  1  0.48755515  0.48298910  0.96908078  1  0.518238  0  0.05428  0.108377  0  3.915614  0
C  C170  1  0.32118259  0.96898704  0.48604928  1  0.511766  0  0.054834  0.109241  0  3.915208  0
C  C171  1  0.15453164  0.48627899  0.51708564  1  0.42661  0  0.054738  0.10902  0  3.914359  0
C  C172  1  0.98755566  0.51701213  0.03091923  1  0.518209  0  0.054271  0.108338  0  3.915574  0
C  C173  1  0.82118344  0.03101164  0.51394899  1  0.511744  0  0.054774  0.10919  0  3.915235  0
C  C174  1  0.52810836  0.61282090  0.51706149  1  0.464335  0  0.047348  0.100676  0  3.923669  0
C  C175  1  0.36106076  0.51711159  0.90420756  1  0.3761  0  0.047565  0.100757  0  3.923475  0
C  C176  1  0.19461036  0.90416923  0.38717648  1  0.456824  0  0.048077  0.102604  0  3.921352  0
C  C177  1  0.02811089  0.38717946  0.48293931  1  0.464448  0  0.04744  0.100911  0  3.923547  0
C  C178  1  0.86106058  0.48289006  0.09579293  1  0.376311  0  0.047526  0.100695  0  3.923523  0
C  C179  1  0.69461066  0.09582997  0.61282090  1  0.456978  0  0.048056  0.102519  0  3.921436  0
Br  Br180  1  0.47779161  0.19948509  0.73266460  1  -0.6173  0  -0.309242  -0.499373  0  1.116324  0
Br  Br181  1  0.31087745  0.73187936  0.53273959  1  -0.615831  0  -0.308396  -0.498885  0  1.118229  0
Br  Br182  1  0.14475760  0.53268424  0.80075414  1  -0.617731  0  -0.308561  -0.498959  0  1.11891  0
Br  Br183  1  0.97779459  0.80051459  0.26733314  1  -0.617279  0  -0.309223  -0.499359  0  1.116343  0
Br  Br184  1  0.81087923  0.26812311  0.46726247  1  -0.615828  0  -0.308391  -0.498864  0  1.118245  0
Br  Br185  1  0.64476083  0.46730893  0.19925040  1  -0.617756  0  -0.308582  -0.498998  0  1.11888  0
N  N186  1  0.51207795  0.39419331  0.64156435  1  -1.071548  0  -0.479141  -0.329606  0  3.509047  0
N  N187  1  0.34525352  0.64148871  0.24732298  1  -1.086764  0  -0.478993  -0.327455  0  3.505889  0
N  N188  1  0.17882587  0.24727920  0.60570232  1  -1.106323  0  -0.478892  -0.328357  0  3.508779  0
N  N189  1  0.01207728  0.60580550  0.35843416  1  -1.071531  0  -0.479167  -0.329635  0  3.509106  0
N  N190  1  0.84525352  0.35851192  0.75267722  1  -1.086762  0  -0.479004  -0.327519  0  3.505808  0
N  N191  1  0.67882548  0.75272015  0.39429740  1  -1.106006  0  -0.478894  -0.328408  0  3.508748  0
N  N192  1  0.60470139  0.57519884  0.46557056  1  -1.247976  0  -0.326675  -0.20831  0  3.539849  0
N  N193  1  0.43767205  0.46564202  0.89030017  1  -1.251173  0  -0.326462  -0.207801  0  3.539026  0
N  N194  1  0.27122303  0.89022618  0.42471355  1  -1.264584  0  -0.326783  -0.208635  0  3.539466  0
N  N195  1  0.10470331  0.42480128  0.53443070  1  -1.247982  0  -0.326735  -0.208457  0  3.539691  0
N  N196  1  0.93767126  0.53435813  0.10969951  1  -1.251154  0  -0.32644  -0.207717  0  3.539006  0
N  N197  1  0.77122265  0.10977342  0.57528492  1  -1.264537  0  -0.32673  -0.208535  0  3.539512  0
O  O198  1  0.34709156  0.35876064  0.69128762  1  -1.179643  0  -0.315059  -0.544994  0  2.310171  0
O  O199  1  0.18036728  0.69133691  0.33280317  1  -1.18264  0  -0.315058  -0.545777  0  2.309839  0
O  O200  1  0.01388419  0.33275828  0.64138642  1  -1.178557  0  -0.315274  -0.545707  0  2.310541  0
O  O201  1  0.84709235  0.64124246  0.30871139  1  -1.179729  0  -0.315135  -0.545079  0  2.310247  0
O  O202  1  0.68036718  0.30866398  0.66719883  1  -1.182818  0  -0.315053  -0.545749  0  2.309916  0
O  O203  1  0.51388300  0.66724180  0.35861337  1  -1.178595  0  -0.315269  -0.545668  0  2.310588  0
O  O204  1  0.28326174  0.38476204  0.57637759  1  -1.184173  0  -0.318734  -0.546217  0  2.303804  0
O  O205  1  0.11640415  0.57682890  0.19174827  1  -1.181382  0  -0.31904  -0.547114  0  2.304084  0
O  O206  1  0.94990897  0.19181814  0.61516230  1  -1.181443  0  -0.319066  -0.546859  0  2.304212  0
O  O207  1  0.78325985  0.61523695  0.42362027  1  -1.184121  0  -0.318754  -0.546253  0  2.303784  0
O  O208  1  0.61640357  0.42317135  0.80825165  1  -1.181375  0  -0.319028  -0.547078  0  2.304014  0
O  O209  1  0.44990856  0.80818156  0.38483914  1  -1.181418  0  -0.319082  -0.546857  0  2.30422  0
