# generated using pymatgen
data_DyH16C18N3O8
_symmetry_space_group_name_H-M   'P 1'
_cell_length_a   9.45277372
_cell_length_b   10.44448911
_cell_length_c   10.44450248
_cell_angle_alpha   83.26543565
_cell_angle_beta   84.57785641
_cell_angle_gamma   84.57777169
_symmetry_Int_Tables_number   1
_chemical_formula_structural   DyH16C18N3O8
_chemical_formula_sum   'Dy2 H32 C36 N6 O16'
_cell_volume   1015.84717226
_cell_formula_units_Z   2
loop_
 _symmetry_equiv_pos_site_id
 _symmetry_equiv_pos_as_xyz
  1  'x, y, z'
loop_
 _atom_site_type_symbol
 _atom_site_label
 _atom_site_symmetry_multiplicity
 _atom_site_fract_x
 _atom_site_fract_y
 _atom_site_fract_z
 _atom_site_occupancy
 _atom_site_hle17_bader_spin_density
 _atom_site_hle17_ddec_charge
 _atom_site_hle17_ddec_spin_density
 _atom_site_hle17_ddec_sum_bond_order
 _atom_site_hle17_magmom
 _atom_site_hse06_10hf_bader_spin_density
 _atom_site_hse06_10hf_ddec_charge
 _atom_site_hse06_10hf_ddec_spin_density
 _atom_site_hse06_10hf_ddec_sum_bond_order
 _atom_site_hse06_10hf_magmom
 _atom_site_hse06_bader_spin_density
 _atom_site_hse06_ddec_charge
 _atom_site_hse06_ddec_spin_density
 _atom_site_hse06_ddec_sum_bond_order
 _atom_site_hse06_magmom
 _atom_site_pbe_bader_spin_density
 _atom_site_pbe_cm5_charge
 _atom_site_pbe_ddec_charge
 _atom_site_pbe_ddec_spin_density
 _atom_site_pbe_ddec_sum_bond_order
 _atom_site_pbe_magmom
Dy  Dy0  1  0.24999711  0.97431328  0.02569047  1  0  2.303467  0  1.596584  0  0  2.23569  0  1.922072  0  0  2.282754  0  1.879568  0  0  1.509765  2.122243  0  2.098938  0
Dy  Dy1  1  0.74999996  0.02568634  0.97430803  1  0  2.303482  0  1.596632  0  0  2.235698  0  1.922113  0  0  2.282766  0  1.879614  0  0  1.509805  2.122303  0  2.098892  0
H  H2  1  0.02606606  0.79558933  0.11040755  1  0  0.435244  0  0.861741  0  0  0.405805  0  0.923013  0  0  0.416498  0  0.907297  0  0  0.298563  0.397522  0  0.935031  0
H  H3  1  0.47393558  0.88958891  0.20440385  1  0  0.435259  0  0.861722  0  0  0.405799  0  0.923014  0  0  0.416502  0  0.907289  0  0  0.298544  0.397504  0  0.935043  0
H  H4  1  0.97393138  0.20440643  0.88958944  1  0  0.435234  0  0.86177  0  0  0.405746  0  0.923115  0  0  0.416449  0  0.907389  0  0  0.298493  0.397451  0  0.935145  0
H  H5  1  0.52606177  0.11040782  0.79559304  1  0  0.435251  0  0.861763  0  0  0.405809  0  0.923037  0  0  0.416501  0  0.907323  0  0  0.298547  0.397524  0  0.935058  0
H  H6  1  0.17688913  0.71640877  0.15203314  1  0  0.395457  0  0.925322  0  0  0.352088  0  1.009461  0  0  0.364004  0  0.992551  0  0  0.285743  0.343474  0  1.021425  0
H  H7  1  0.32311708  0.84796322  0.28359022  1  0  0.395481  0  0.925299  0  0  0.352127  0  1.009423  0  0  0.364043  0  0.992513  0  0  0.285746  0.343513  0  1.021388  0
H  H8  1  0.82311245  0.28358799  0.84795859  1  0  0.395454  0  0.925349  0  0  0.352096  0  1.009458  0  0  0.364012  0  0.992547  0  0  0.285729  0.343482  0  1.021423  0
H  H9  1  0.67687920  0.15203351  0.71640485  1  0  0.39546  0  0.925315  0  0  0.352114  0  1.009433  0  0  0.364031  0  0.992522  0  0  0.285736  0.343502  0  1.021397  0
H  H10  1  0.92107053  0.50436585  0.86393877  1  0  0.063783  0  0.950014  0  0  0.075177  0  1.009804  0  0  0.077561  0  1.008022  0  0  0.109829  0.072968  0  1.011932  0
H  H11  1  0.57891368  0.13606529  0.49562139  1  0  0.063728  0  0.950007  0  0  0.075114  0  1.00982  0  0  0.077492  0  1.008045  0  0  0.109861  0.072912  0  1.011949  0
H  H12  1  0.07892820  0.49562794  0.13606790  1  0  0.063762  0  0.950058  0  0  0.075166  0  1.009846  0  0  0.077547  0  1.008068  0  0  0.109863  0.072958  0  1.011971  0
H  H13  1  0.42107567  0.86393720  0.50437651  1  0  0.063728  0  0.950088  0  0  0.075205  0  1.009784  0  0  0.077588  0  1.008  0  0  0.109857  0.072997  0  1.011916  0
H  H14  1  0.80343360  0.72381395  0.90137780  1  0  0.127375  0  0.983436  0  0  0.131547  0  1.049296  0  0  0.135769  0  1.046914  0  0  0.11339  0.1285  0  1.050886  0
H  H15  1  0.69655082  0.09862837  0.27617224  1  0  0.127508  0  0.983071  0  0  0.131666  0  1.049002  0  0  0.135894  0  1.046611  0  0  0.113403  0.128612  0  1.050614  0
H  H16  1  0.19656542  0.27617694  0.09863014  1  0  0.127355  0  0.983344  0  0  0.131517  0  1.049239  0  0  0.135741  0  1.046855  0  0  0.113369  0.128469  0  1.050831  0
H  H17  1  0.30343370  0.90137994  0.72382064  1  0  0.12749  0  0.983245  0  0  0.131619  0  1.049184  0  0  0.135843  0  1.046799  0  0  0.113403  0.128572  0  1.050777  0
H  H18  1  0.40330260  0.58317964  0.84273626  1  0  0.113909  0  0.944115  0  0  0.122341  0  1.005079  0  0  0.125703  0  1.004278  0  0  0.109366  0.119808  0  1.006003  0
H  H19  1  0.09668166  0.15725922  0.41681312  1  0  0.113896  0  0.943921  0  0  0.122294  0  1.004942  0  0  0.125657  0  1.00414  0  0  0.109339  0.119759  0  1.00587  0
H  H20  1  0.59669812  0.41681517  0.15725767  1  0  0.11395  0  0.943928  0  0  0.122334  0  1.004966  0  0  0.12569  0  1.00417  0  0  0.109353  0.119801  0  1.005889  0
H  H21  1  0.90330987  0.84274236  0.58317416  1  0  0.113889  0  0.944003  0  0  0.122262  0  1.005047  0  0  0.125624  0  1.004246  0  0  0.109354  0.119728  0  1.005973  0
H  H22  1  0.53958098  0.36904273  0.80249221  1  0  0.083234  0  0.942171  0  0  0.090754  0  1.006266  0  0  0.093353  0  1.004868  0  0  0.115206  0.088281  0  1.008318  0
H  H23  1  0.96040444  0.19749825  0.63094954  1  0  0.083003  0  0.942229  0  0  0.090543  0  1.00635  0  0  0.093143  0  1.004948  0  0  0.115123  0.08807  0  1.008404  0
H  H24  1  0.46042485  0.63095405  0.19749913  1  0  0.083309  0  0.942136  0  0  0.090821  0  1.006235  0  0  0.093418  0  1.004836  0  0  0.115255  0.088345  0  1.008293  0
H  H25  1  0.03958844  0.80250042  0.36904083  1  0  0.083241  0  0.942132  0  0  0.090743  0  1.006247  0  0  0.093341  0  1.004848  0  0  0.115176  0.088267  0  1.008307  0
H  H26  1  0.14218359  0.60705056  0.64041167  1  0  0.061684  0  0.967384  0  0  0.067197  0  1.03468  0  0  0.06886  0  1.03518  0  0  0.103414  0.066353  0  1.033741  0
H  H27  1  0.35782264  0.35961419  0.39296667  1  0  0.061596  0  0.967525  0  0  0.067115  0  1.034835  0  0  0.068776  0  1.035333  0  0  0.103331  0.066272  0  1.033895  0
H  H28  1  0.85782903  0.39295389  0.35960405  1  0  0.061574  0  0.967566  0  0  0.067115  0  1.034842  0  0  0.068773  0  1.035336  0  0  0.103362  0.066278  0  1.033904  0
H  H29  1  0.64219247  0.64039707  0.60703944  1  0  0.061617  0  0.96749  0  0  0.067094  0  1.034842  0  0  0.068753  0  1.035339  0  0  0.103332  0.066252  0  1.0339  0
H  H30  1  0.13934579  0.43097894  0.82711101  1  0  0.101441  0  0.957809  0  0  0.109697  0  1.021589  0  0  0.113269  0  1.019858  0  0  0.105675  0.107394  0  1.022496  0
H  H31  1  0.36066114  0.17291161  0.56903392  1  0  0.101359  0  0.957861  0  0  0.109678  0  1.021607  0  0  0.113254  0  1.019867  0  0  0.105665  0.107375  0  1.022516  0
H  H32  1  0.86066931  0.56902166  0.17290205  1  0  0.10138  0  0.957803  0  0  0.109754  0  1.021474  0  0  0.113331  0  1.019732  0  0  0.105705  0.107451  0  1.022381  0
H  H33  1  0.63935087  0.82709867  0.43097161  1  0  0.101469  0  0.957833  0  0  0.109709  0  1.021619  0  0  0.113281  0  1.019888  0  0  0.105683  0.107408  0  1.022525  0
C  C34  1  0.80636657  0.52604413  0.85859448  1  0  0.104342  0  3.745922  0  0  0.078678  0  3.995983  0  0  0.082213  0  4.014943  0  0  0.043661  0.076374  0  3.983487  0
C  C35  1  0.69361867  0.14141359  0.47394827  1  0  0.1044  0  3.745772  0  0  0.078803  0  3.995878  0  0  0.082341  0  4.014835  0  0  0.043657  0.07649  0  3.98339  0
C  C36  1  0.19363323  0.47394966  0.14141306  1  0  0.104417  0  3.745846  0  0  0.078697  0  3.995886  0  0  0.082233  0  4.014849  0  0  0.043645  0.076394  0  3.98339  0
C  C37  1  0.30637213  0.85859571  0.52604585  1  0  0.104277  0  3.745853  0  0  0.078605  0  3.995946  0  0  0.082141  0  4.014908  0  0  0.043606  0.076298  0  3.983455  0
C  C38  1  0.74152372  0.64771015  0.87977282  1  0  -0.121896  0  3.705801  0  0  -0.144678  0  3.954069  0  0  -0.14879  0  3.974848  0  0  -0.078405  -0.141694  0  3.940105  0
C  C39  1  0.75846472  0.12022053  0.35228588  1  0  -0.121923  0  3.705244  0  0  -0.144714  0  3.953505  0  0  -0.148832  0  3.974283  0  0  -0.078301  -0.141736  0  3.939556  0
C  C40  1  0.25847665  0.35228850  0.12022932  1  0  -0.12192  0  3.705695  0  0  -0.144706  0  3.954007  0  0  -0.148821  0  3.974785  0  0  -0.078413  -0.141724  0  3.940048  0
C  C41  1  0.24152365  0.87978100  0.64771030  1  0  -0.121988  0  3.705618  0  0  -0.144796  0  3.954007  0  0  -0.148906  0  3.974784  0  0  -0.07838  -0.141815  0  3.940047  0
C  C42  1  0.59353067  0.66932347  0.87671615  1  0  -0.02067  0  3.715108  0  0  -0.000315  0  3.941848  0  0  -0.004372  0  3.962809  0  0  0.002125  0.001432  0  3.92988  0
C  C43  1  0.90645249  0.12328223  0.33067653  1  0  -0.020902  0  3.71495  0  0  -0.000516  0  3.941745  0  0  -0.004572  0  3.962701  0  0  0.002033  0.001234  0  3.929777  0
C  C44  1  0.40646642  0.33067614  0.12328714  1  0  -0.020723  0  3.715086  0  0  -0.000349  0  3.941852  0  0  -0.004402  0  3.962811  0  0  0.00211  0.001399  0  3.929887  0
C  C45  1  0.09353147  0.87672120  0.66932558  1  0  -0.020685  0  3.715103  0  0  -0.00031  0  3.941855  0  0  -0.004373  0  3.962817  0  0  0.002046  0.001439  0  3.929886  0
C  C46  1  0.51758771  0.79517031  0.91314419  1  0  0.708984  0  3.863391  0  0  0.666699  0  4.152955  0  0  0.701651  0  4.140785  0  0  0.23241  0.6418  0  4.155741  0
C  C47  1  0.98239917  0.08686260  0.20482574  1  0  0.70925  0  3.862691  0  0  0.666845  0  4.15246  0  0  0.701796  0  4.140286  0  0  0.232406  0.641945  0  4.155248  0
C  C48  1  0.48240560  0.20482444  0.08685903  1  0  0.709056  0  3.863227  0  0  0.666677  0  4.152933  0  0  0.701628  0  4.140763  0  0  0.232402  0.641776  0  4.155723  0
C  C49  1  0.01758942  0.91314764  0.79516943  1  0  0.708918  0  3.863682  0  0  0.666603  0  4.153281  0  0  0.701559  0  4.141106  0  0  0.23236  0.641704  0  4.156069  0
C  C50  1  0.51861105  0.56912792  0.84617923  1  0  -0.129838  0  3.722436  0  0  -0.151554  0  3.972085  0  0  -0.156091  0  3.99373  0  0  -0.07685  -0.148894  0  3.958842  0
C  C51  1  0.98137791  0.15381380  0.43086561  1  0  -0.129779  0  3.722204  0  0  -0.151437  0  3.971892  0  0  -0.155971  0  3.993532  0  0  -0.076831  -0.148777  0  3.958648  0
C  C52  1  0.48139084  0.43086591  0.15382045  1  0  -0.129815  0  3.722235  0  0  -0.151505  0  3.971918  0  0  -0.156035  0  3.993561  0  0  -0.076846  -0.148844  0  3.958674  0
C  C53  1  0.01861266  0.84618679  0.56912761  1  0  -0.129707  0  3.722291  0  0  -0.151366  0  3.97192  0  0  -0.155901  0  3.993567  0  0  -0.076766  -0.148707  0  3.958676  0
C  C54  1  0.59327431  0.45081379  0.82448927  1  0  0.130093  0  3.687747  0  0  0.098249  0  3.950428  0  0  0.102901  0  3.967281  0  0  0.05226  0.09495  0  3.939952  0
C  C55  1  0.90671138  0.17550719  0.54917867  1  0  0.130376  0  3.687557  0  0  0.098504  0  3.950334  0  0  0.103156  0  3.967186  0  0  0.052386  0.095207  0  3.939852  0
C  C56  1  0.40673153  0.54918297  0.17550590  1  0  0.130058  0  3.687898  0  0  0.098182  0  3.950521  0  0  0.102835  0  3.967375  0  0  0.052262  0.094885  0  3.940042  0
C  C57  1  0.09327699  0.82449434  0.45081655  1  0  0.129968  0  3.687674  0  0  0.098189  0  3.950315  0  0  0.102838  0  3.967174  0  0  0.052223  0.094893  0  3.939835  0
C  C58  1  0.19044564  0.50965615  0.62768498  1  0  0.111611  0  3.751244  0  0  0.09312  0  4.006265  0  0  0.097316  0  4.024203  0  0  0.041203  0.090268  0  3.99374  0
C  C59  1  0.30956189  0.37233885  0.49036378  1  0  0.111503  0  3.751546  0  0  0.09301  0  4.006609  0  0  0.09721  0  4.024546  0  0  0.041257  0.09016  0  3.994082  0
C  C60  1  0.80957092  0.49035123  0.37232622  1  0  0.111652  0  3.751498  0  0  0.093135  0  4.00655  0  0  0.09734  0  4.024485  0  0  0.041275  0.090277  0  3.994029  0
C  C61  1  0.69045282  0.62766564  0.50964505  1  0  0.11174  0  3.751532  0  0  0.093261  0  4.006549  0  0  0.097464  0  4.024484  0  0  0.041296  0.090412  0  3.99402  0
C  C62  1  0.18749205  0.41241852  0.73132502  1  0  -0.130641  0  3.719472  0  0  -0.151062  0  3.961462  0  0  -0.155956  0  3.98273  0  0  -0.081746  -0.147852  0  3.94741  0
C  C63  1  0.31252082  0.26869189  0.58760053  1  0  -0.130445  0  3.719383  0  0  -0.150906  0  3.961285  0  0  -0.155808  0  3.98257  0  0  -0.081789  -0.147698  0  3.947233  0
C  C64  1  0.81252364  0.58758693  0.26868649  1  0  -0.130505  0  3.719456  0  0  -0.15101  0  3.961437  0  0  -0.155926  0  3.982713  0  0  -0.081844  -0.147786  0  3.947405  0
C  C65  1  0.68749170  0.73131353  0.41241413  1  0  -0.130736  0  3.719639  0  0  -0.151095  0  3.961583  0  0  -0.156003  0  3.982842  0  0  -0.081789  -0.147871  0  3.947549  0
C  C66  1  0.24999850  0.28895356  0.71106124  1  0  -0.013139  0  3.747968  0  0  0.008258  0  3.977029  0  0  0.004655  0  3.99876  0  0  -0.002079  0.009968  0  3.963732  0
C  C67  1  0.75000171  0.71104700  0.28894644  1  0  -0.01318  0  3.748044  0  0  0.008172  0  3.977168  0  0  0.004603  0  3.998856  0  0  -0.002072  0.009826  0  3.963957  0
C  C68  1  0.25000438  0.18131633  0.81869464  1  0  0.651114  0  3.89855  0  0  0.599531  0  4.197583  0  0  0.633081  0  4.189235  0  0  0.207854  0.577865  0  4.19569  0
C  C69  1  0.75000779  0.81868138  0.18131231  1  0  0.651236  0  3.898307  0  0  0.599622  0  4.197392  0  0  0.63316  0  4.189046  0  0  0.207919  0.577969  0  4.195513  0
N  N70  1  0.73450388  0.42850311  0.83309223  1  0  -0.279433  0  3.168088  0  0  -0.219845  0  3.416843  0  0  -0.230778  0  3.430836  0  0  -0.293404  -0.212348  0  3.408053  0
N  N71  1  0.76548343  0.16690313  0.57149145  1  0  -0.27936  0  3.167925  0  0  -0.219873  0  3.416843  0  0  -0.230808  0  3.430837  0  0  -0.2934  -0.212376  0  3.408053  0
N  N72  1  0.26550102  0.57149266  0.16690697  1  0  -0.279512  0  3.1682  0  0  -0.219782  0  3.416834  0  0  -0.230723  0  3.430835  0  0  -0.293416  -0.212283  0  3.408041  0
N  N73  1  0.23450716  0.83309744  0.42850464  1  0  -0.279283  0  3.167861  0  0  -0.219768  0  3.41671  0  0  -0.230709  0  3.430713  0  0  -0.29336  -0.212271  0  3.407918  0
N  N74  1  0.25000400  0.49132625  0.50869012  1  0  -0.292084  0  3.040235  0  0  -0.266158  0  3.305537  0  0  -0.274273  0  3.320284  0  0  -0.320749  -0.260142  0  3.295241  0
N  N75  1  0.75001089  0.50867630  0.49131699  1  0  -0.292193  0  3.040329  0  0  -0.266265  0  3.305624  0  0  -0.27438  0  3.320365  0  0  -0.320789  -0.260249  0  3.295333  0
O  O76  1  0.38216789  0.80397650  0.92466060  1  0  -0.708003  0  2.012683  0  0  -0.672756  0  2.258937  0  0  -0.696708  0  2.247723  0  0  -0.380897  -0.645495  0  2.269352  0
O  O77  1  0.11782220  0.07533395  0.19601872  1  0  -0.708194  0  2.012519  0  0  -0.672942  0  2.258899  0  0  -0.696893  0  2.247682  0  0  -0.381008  -0.64568  0  2.269325  0
O  O78  1  0.61782989  0.19601543  0.07532626  1  0  -0.708039  0  2.012659  0  0  -0.672786  0  2.259008  0  0  -0.696735  0  2.247794  0  0  -0.38093  -0.64553  0  2.269431  0
O  O79  1  0.88217030  0.92465793  0.80397627  1  0  -0.707957  0  2.012773  0  0  -0.672715  0  2.259036  0  0  -0.696663  0  2.247826  0  0  -0.380887  -0.645461  0  2.269452  0
O  O80  1  0.59241495  0.88396432  0.93379221  1  0  -0.758815  0  2.118995  0  0  -0.721526  0  2.379714  0  0  -0.745763  0  2.366829  0  0  -0.398819  -0.689698  0  2.38834  0
O  O81  1  0.90757630  0.06621452  0.11602621  1  0  -0.758918  0  2.118761  0  0  -0.721546  0  2.379511  0  0  -0.745788  0  2.366644  0  0  -0.398794  -0.68972  0  2.388139  0
O  O82  1  0.40758041  0.11603139  0.06621550  1  0  -0.758856  0  2.119056  0  0  -0.721523  0  2.37983  0  0  -0.745757  0  2.366944  0  0  -0.398811  -0.689692  0  2.388467  0
O  O83  1  0.09241631  0.93379771  0.88396072  1  0  -0.758779  0  2.119113  0  0  -0.721478  0  2.379863  0  0  -0.745705  0  2.366952  0  0  -0.39875  -0.689645  0  2.388496  0
O  O84  1  0.15642251  0.18708497  0.91471488  1  0  -0.693682  0  2.058889  0  0  -0.644056  0  2.291854  0  0  -0.669182  0  2.282952  0  0  -0.344453  -0.618912  0  2.297876  0
O  O85  1  0.34358023  0.08529292  0.81292104  1  0  -0.693673  0  2.059079  0  0  -0.644042  0  2.29201  0  0  -0.66917  0  2.28311  0  0  -0.344358  -0.618901  0  2.298031  0
O  O86  1  0.84358404  0.81291564  0.08528649  1  0  -0.693647  0  2.058861  0  0  -0.644029  0  2.291842  0  0  -0.669157  0  2.282942  0  0  -0.344425  -0.618891  0  2.297861  0
O  O87  1  0.65642802  0.91470095  0.18707425  1  0  -0.693775  0  2.059001  0  0  -0.644101  0  2.291922  0  0  -0.66923  0  2.283031  0  0  -0.344446  -0.618959  0  2.297935  0
O  O88  1  0.12275645  0.80532784  0.13478165  1  0  -0.918838  0  1.920044  0  0  -0.874222  0  2.124633  0  0  -0.894558  0  2.09256  0  0  -0.655678  -0.849202  0  2.153597  0
O  O89  1  0.37724473  0.86521376  0.19466960  1  0  -0.918866  0  1.920002  0  0  -0.874222  0  2.12462  0  0  -0.894564  0  2.092505  0  0  -0.655663  -0.849189  0  2.153614  0
O  O90  1  0.87724415  0.19466796  0.86520739  1  0  -0.918833  0  1.920055  0  0  -0.87412  0  2.124629  0  0  -0.894497  0  2.092595  0  0  -0.655594  -0.849094  0  2.15362  0
O  O91  1  0.62275386  0.13478104  0.80532548  1  0  -0.918831  0  1.920064  0  0  -0.874194  0  2.124563  0  0  -0.894539  0  2.092525  0  0  -0.655638  -0.84918  0  2.153524  0
