# generated using pymatgen
data_CuH36C36(N2O3)2
_symmetry_space_group_name_H-M   'P 1'
_cell_length_a   8.48219414
_cell_length_b   9.12622334
_cell_length_c   10.83413243
_cell_angle_alpha   77.46485207
_cell_angle_beta   86.33152860
_cell_angle_gamma   77.64702570
_symmetry_Int_Tables_number   1
_chemical_formula_structural   CuH36C36(N2O3)2
_chemical_formula_sum   'Cu1 H36 C36 N4 O6'
_cell_volume   799.59359210
_cell_formula_units_Z   1
loop_
 _symmetry_equiv_pos_site_id
 _symmetry_equiv_pos_as_xyz
  1  'x, y, z'
loop_
 _atom_site_type_symbol
 _atom_site_label
 _atom_site_symmetry_multiplicity
 _atom_site_fract_x
 _atom_site_fract_y
 _atom_site_fract_z
 _atom_site_occupancy
 _atom_site_hle17_ddec_charge
 _atom_site_hle17_ddec_spin_density
 _atom_site_hle17_ddec_sum_bond_order
 _atom_site_hle17_magmom
 _atom_site_hse06_10hf_ddec_charge
 _atom_site_hse06_10hf_ddec_spin_density
 _atom_site_hse06_10hf_ddec_sum_bond_order
 _atom_site_hse06_10hf_magmom
 _atom_site_hse06_ddec_charge
 _atom_site_hse06_ddec_spin_density
 _atom_site_hse06_ddec_sum_bond_order
 _atom_site_hse06_magmom
 _atom_site_pbe_cm5_charge
 _atom_site_pbe_ddec_charge
 _atom_site_pbe_ddec_spin_density
 _atom_site_pbe_ddec_sum_bond_order
 _atom_site_pbe_magmom
Cu  Cu0  1  0.49999920  0.00000082  0.00000000  1  0.87896  0.676742  1.751397  0.5  0.863205  0.764303  2.126776  0.609  0.950882  0.82622  2.060299  0.689  0.75447  0.808731  0.723013  2.173372  0.56
H  H1  1  0.98827019  0.72662923  0.76152837  1  0.086182  -5.8e-05  0.977489  0.0  0.097372  -2.4e-05  1.039831  0.0  0.100181  -1.8e-05  1.03758  0.0  0.100473  0.095383  -1e-05  1.041317  0.0
H  H2  1  0.01171694  0.27337393  0.23847233  1  0.086243  -6.2e-05  0.977393  0.0  0.097444  -2.4e-05  1.039721  0.0  0.100254  -1.8e-05  1.037467  0.0  0.10048  0.095454  -1e-05  1.041204  0.0
H  H3  1  0.09785532  0.68853611  0.55089883  1  0.096742  9.7e-05  0.990556  0.0  0.105929  9.2e-05  1.057646  0.0  0.108896  5.8e-05  1.056804  0.0  0.098292  0.103918  0.0001  1.058097  0.0
H  H4  1  0.90214529  0.31147045  0.44910326  1  0.096712  9.8e-05  0.990472  0.0  0.105917  9.2e-05  1.057551  0.0  0.108882  5.8e-05  1.056711  0.0  0.098284  0.103907  0.0001  1.057996  0.0
H  H5  1  0.68119677  0.00976940  0.37782499  1  0.109392  0.000123  0.968028  0.0  0.119971  0.000154  1.03016  0.0  0.123477  0.000102  1.028366  0.0  0.104828  0.117547  0.000165  1.031506  0.0
H  H6  1  0.31881396  0.99023358  0.62216523  1  0.109363  0.000126  0.96794  0.0  0.119948  0.000153  1.030064  0.0  0.123456  0.000102  1.028268  0.0  0.104776  0.117524  0.000164  1.031409  0.0
H  H7  1  0.57409832  0.04620707  0.59145796  1  0.092067  0.000313  0.967805  0.0  0.100845  0.000348  1.034791  0.0  0.103792  0.000242  1.032767  0.0  0.100228  0.098744  0.000416  1.036286  0.0
H  H8  1  0.42590054  0.95380167  0.40852905  1  0.092035  0.000309  0.967815  0.0  0.100804  0.000348  1.034826  0.0  0.103754  0.000242  1.032795  0.0  0.100234  0.098708  0.000416  1.036321  0.0
H  H9  1  0.11054844  0.75287728  0.20800593  1  0.101634  -2e-05  0.938856  0.0  0.119255  -1.5e-05  0.998386  0.0  0.119486  -1.5e-05  0.99904  0.0  0.107749  0.119036  -1.9e-05  0.998115  0.0
H  H10  1  0.88946548  0.24711661  0.79199783  1  0.101621  -2.5e-05  0.938814  0.0  0.119261  -1.5e-05  0.998326  0.0  0.119491  -1.5e-05  0.998981  0.0  0.107728  0.119039  -1.9e-05  0.998054  0.0
H  H11  1  0.10006822  0.61959437  0.35518060  1  0.072534  1e-05  0.939252  0.0  0.08771  1e-06  1.009822  0.0  0.088167  -3e-06  1.009263  0.0  0.09281  0.087906  5e-06  1.009419  0.0
H  H12  1  0.89993999  0.38040413  0.64482168  1  0.072531  3e-06  0.939201  0.0  0.087694  1e-06  1.009793  0.0  0.088151  -3e-06  1.009232  0.0  0.092811  0.087889  5e-06  1.009384  0.0
H  H13  1  0.19351845  0.78128243  0.34680409  1  0.083429  -7e-06  0.94559  0.0  0.099754  -1.3e-05  1.013181  0.0  0.099406  -1.2e-05  1.014542  0.0  0.097149  0.100274  -1.9e-05  1.011907  0.0
H  H14  1  0.80648813  0.21871265  0.65319985  1  0.083403  -1e-05  0.94553  0.0  0.099723  -1.3e-05  1.013135  0.0  0.099375  -1.2e-05  1.014494  0.0  0.097146  0.100243  -1.9e-05  1.011858  0.0
H  H15  1  0.16326900  0.79084343  0.83989814  1  0.128554  -8.9e-05  0.974702  0.0  0.148778  -5.5e-05  1.036974  0.0  0.151154  -5.1e-05  1.036022  0.0  0.099091  0.147058  -5.3e-05  1.037623  0.0
H  H16  1  0.83672995  0.20916545  0.16010545  1  0.128548  -9.6e-05  0.974586  0.0  0.148726  -5.5e-05  1.036919  0.0  0.151106  -5.1e-05  1.035963  0.0  0.099042  0.147005  -5.3e-05  1.03757  0.0
H  H17  1  0.32018068  0.89818453  0.81011724  1  0.144926  -0.000381  0.971896  0.0  0.163404  -0.000215  1.036044  0.0  0.166948  -0.000271  1.03349  0.0  0.103444  0.160808  -0.000206  1.037844  0.0
H  H18  1  0.67982467  0.10182201  0.18988552  1  0.144895  -0.000387  0.971956  0.0  0.163375  -0.000216  1.036073  0.0  0.166918  -0.00027  1.03352  0.0  0.103423  0.160776  -0.000206  1.037879  0.0
H  H19  1  0.15441339  0.95075560  0.91041466  1  0.159939  -0.000427  0.908629  0.0  0.181668  -0.000304  0.963677  0.0  0.184768  -0.00031  0.961337  0.0  0.113378  0.179151  -0.000288  0.965705  0.0
H  H20  1  0.84560174  0.04924411  0.08959809  1  0.160009  -0.000432  0.908422  0.0  0.181672  -0.000304  0.963538  0.0  0.184772  -0.00031  0.961198  0.0  0.113367  0.179154  -0.000288  0.965567  0.0
H  H21  1  0.64824720  0.77237918  0.25555280  1  0.122713  2.4e-05  0.945336  0.0  0.130343  -2.9e-05  1.008331  0.0  0.133973  -7.5e-05  1.005529  0.0  0.110082  0.12746  1.9e-05  1.010854  0.0
H  H22  1  0.35175302  0.22761251  0.74445398  1  0.122725  2.7e-05  0.945234  0.0  0.130306  -2.9e-05  1.008281  0.0  0.133982  -7.5e-05  1.005425  0.0  0.110058  0.127419  1.9e-05  1.01081  0.0
H  H23  1  0.70014033  0.53213889  0.42191403  1  0.083219  -1e-05  0.960226  0.0  0.096728  -1.2e-05  1.017062  0.0  0.099387  -1.3e-05  1.016342  0.0  0.095982  0.094559  -1.1e-05  1.018227  0.0
H  H24  1  0.29985681  0.46785049  0.57808966  1  0.083153  -1.2e-05  0.960345  0.0  0.096677  -1.1e-05  1.017154  0.0  0.099334  -1.3e-05  1.016438  0.0  0.095966  0.094509  -1.1e-05  1.018325  0.0
H  H25  1  0.57366384  0.31316955  0.41313222  1  0.088169  -3.2e-05  0.954422  0.0  0.101713  -2.2e-05  1.011466  0.0  0.103918  -1.7e-05  1.011594  0.0  0.098447  0.100027  -2.5e-05  1.011571  0.0
H  H26  1  0.42633990  0.68681629  0.58686440  1  0.088097  -2.8e-05  0.954509  0.0  0.101648  -2.2e-05  1.011569  0.0  0.103839  -1.7e-05  1.011714  0.0  0.0984  0.099959  -2.5e-05  1.011678  0.0
H  H27  1  0.38697730  0.32852764  0.24111287  1  0.105607  0.000226  0.9838  0.0  0.114632  0.000211  1.047371  0.0  0.117079  0.000139  1.047229  0.0  0.101197  0.113183  0.000261  1.047101  0.0
H  H28  1  0.61303016  0.67146272  0.75887715  1  0.105693  0.000225  0.983741  0.0  0.114709  0.000211  1.047311  0.0  0.117156  0.000139  1.04717  0.0  0.101204  0.113256  0.000261  1.047044  0.0
H  H29  1  0.27852794  0.39468928  0.03260173  1  0.087659  0.000127  0.930072  0.0  0.103213  0.0001  0.990752  0.0  0.103577  7.5e-05  0.991583  0.0  0.113613  0.102669  0.000125  0.990612  0.0
H  H30  1  0.72146650  0.60531266  0.96739327  1  0.087714  0.00012  0.930042  0.0  0.10327  0.0001  0.990691  0.0  0.103636  7.5e-05  0.99152  0.0  0.113644  0.10272  0.000125  0.99057  0.0
H  H31  1  0.24043035  0.53802198  0.89430424  1  0.063978  -3.9e-05  0.953381  0.0  0.079292  -1.3e-05  1.020126  0.0  0.078391  -1.6e-05  1.022937  0.0  0.106273  0.079732  -1.4e-05  1.018472  0.0
H  H32  1  0.75955960  0.46198461  0.10569567  1  0.064013  -5.2e-05  0.953406  0.0  0.079336  -1.3e-05  1.02011  0.0  0.078428  -1.6e-05  1.022936  0.0  0.106297  0.079781  -1.4e-05  1.018449  0.0
H  H33  1  0.99009646  0.66940453  0.00288748  1  0.092539  3.9e-05  0.960205  0.0  0.112198  2.9e-05  1.017192  0.0  0.113722  2.7e-05  1.016852  0.0  0.094768  0.110908  3.7e-05  1.017745  0.0
H  H34  1  0.00990300  0.33060208  0.99712020  1  0.092566  3.8e-05  0.960169  0.0  0.112223  2.9e-05  1.017199  0.0  0.113749  2.6e-05  1.016861  0.0  0.09484  0.110939  3.7e-05  1.017748  0.0
H  H35  1  0.02779408  0.51496986  0.13545459  1  0.065206  -1.1e-05  0.939153  0.0  0.084066  -1.1e-05  1.000833  0.0  0.084608  -1e-05  1.001652  0.0  0.089389  0.083622  -1.2e-05  1.000243  0.0
H  H36  1  0.97220941  0.48503444  0.86455239  1  0.06519  -1.2e-05  0.93917  0.0  0.084081  -1.1e-05  1.000861  0.0  0.084625  -1e-05  1.001677  0.0  0.089395  0.08364  -1.2e-05  1.000269  0.0
C  C37  1  0.70993034  0.90798830  0.81944744  1  0.611191  -0.008112  3.950719  -0.008  0.569396  -0.002832  4.256855  -0.004  0.606363  -0.003352  4.249892  -0.004  0.187463  0.54457  -0.002234  4.260021  -0.004
C  C38  1  0.29006123  0.09201592  0.18054451  1  0.611084  -0.008122  3.950483  -0.008  0.569266  -0.002832  4.256676  -0.004  0.606233  -0.003353  4.249721  -0.004  0.187361  0.544438  -0.002233  4.259852  -0.004
C  C39  1  0.77489198  0.88864488  0.69085568  1  -0.094091  0.009514  3.788923  0.01  -0.072777  0.00572  4.021632  0.007  -0.082351  0.004063  4.042957  0.005  -0.036472  -0.066479  0.006869  4.00662  0.008
C  C40  1  0.22510078  0.11135934  0.30913714  1  -0.094103  0.009497  3.789203  0.01  -0.07274  0.005716  4.021834  0.007  -0.082313  0.004065  4.043162  0.005  -0.036427  -0.066442  0.006869  4.006833  0.008
C  C41  1  0.92192771  0.78903210  0.67684068  1  -0.039537  -0.000482  3.761883  0.0  -0.064216  0.00033  4.010706  0.001  -0.060881  1.6e-05  4.029681  0.0  -0.084679  -0.06552  0.000631  3.996943  0.001
C  C42  1  0.07806910  0.21096984  0.32315603  1  -0.039682  -0.000447  3.762069  0.0  -0.064382  0.000332  4.010893  0.001  -0.061048  1.4e-05  4.029869  0.0  -0.084714  -0.065685  0.000631  3.997126  0.001
C  C43  1  0.98293429  0.76682047  0.55820528  1  -0.223123  0.001285  3.779548  0.001  -0.241377  0.000468  4.031236  0.001  -0.24952  0.00032  4.052773  0.0  -0.116636  -0.236275  0.000691  4.016649  0.001
C  C44  1  0.01706796  0.23318375  0.44179256  1  -0.223098  0.001267  3.779434  0.001  -0.241351  0.000471  4.031142  0.001  -0.249494  0.000321  4.052678  0.0  -0.116624  -0.236244  0.000691  4.016553  0.001
C  C45  1  0.89513475  0.84704507  0.45001455  1  0.285718  -0.000327  3.809185  0.0  0.277982  -0.000122  4.058769  0.0  0.29094  -0.000264  4.07567  0.0  0.089386  0.268968  4.8e-05  4.048027  0.0
C  C46  1  0.10487152  0.15295682  0.54998074  1  0.28577  -0.000313  3.809096  0.0  0.277981  -0.000124  4.058753  0.0  0.29095  -0.000264  4.075649  0.0  0.089324  0.268959  4.8e-05  4.048023  0.0
C  C47  1  0.74745891  0.94800034  0.46273145  1  -0.195465  3.2e-05  3.754156  0.0  -0.21624  -1e-05  4.00856  0.0  -0.224136  4.8e-05  4.029147  0.0  -0.107701  -0.211288  -1e-06  3.995483  0.0
C  C48  1  0.25254803  0.05200381  0.53725968  1  -0.195544  7e-06  3.753588  0.0  -0.216308  -8e-06  4.008049  0.0  -0.224205  4.8e-05  4.028633  0.0  -0.107589  -0.211347  -1e-06  3.994971  0.0
C  C49  1  0.68841134  0.96783321  0.58155850  1  -0.058584  -0.000224  3.775079  0.0  -0.080957  0.000395  4.022919  0.0  -0.077151  0.000113  4.041079  0.0  -0.089869  -0.083473  0.000366  4.010671  0.0
C  C50  1  0.31158801  0.03217325  0.41843076  1  -0.058339  -0.000191  3.774643  0.0  -0.080713  0.000397  4.022453  0.0  -0.076909  0.000111  4.040617  0.0  -0.089847  -0.083235  0.000366  4.010215  0.0
C  C51  1  0.09603805  0.74085921  0.31045742  1  -0.069036  -4.6e-05  3.638205  0.0  -0.16542  -6e-06  3.903994  0.0  -0.158202  -5e-06  3.908566  0.0  -0.137069  -0.170596  -8e-06  3.900523  0.0
C  C52  1  0.90397207  0.25913584  0.68954448  1  -0.069094  -1.1e-05  3.637979  0.0  -0.165491  -7e-06  3.903768  0.0  -0.158263  -5e-06  3.908341  0.0  -0.137149  -0.170665  -9e-06  3.900293  0.0
C  C53  1  0.23572434  0.85252668  0.88133910  1  -0.409647  -0.000257  3.689525  0.001  -0.500787  -0.000287  3.936167  0.0  -0.505621  -0.000364  3.938122  0.0  -0.236159  -0.497153  -0.000231  3.934863  0.0
C  C54  1  0.76428032  0.14747760  0.11866597  1  -0.409688  -0.000236  3.689346  0.001  -0.500743  -0.000286  3.935954  0.0  -0.505583  -0.000364  3.937908  0.0  -0.236102  -0.497117  -0.000231  3.93465  0.0
C  C55  1  0.32802950  0.75540234  0.99135646  1  0.422919  -0.008196  3.665111  -0.005  0.398746  -0.002758  3.943606  -0.001  0.420682  -0.003924  3.954066  -0.002  0.240102  0.38415  -0.0018  3.936362  -0.001
C  C56  1  0.67197516  0.24459617  0.00864509  1  0.422903  -0.008184  3.665253  -0.005  0.398811  -0.002759  3.943574  -0.001  0.420748  -0.003923  3.954034  -0.002  0.240107  0.384225  -0.001799  3.936311  -0.001
C  C57  1  0.41199982  0.56123449  0.15269442  1  0.096485  0.003289  3.793452  0.004  0.083863  0.00209  4.042266  0.003  0.087816  0.001654  4.063614  0.002  0.089091  0.081552  0.002423  4.027227  0.003
C  C58  1  0.58799066  0.43876410  0.84730974  1  0.096559  0.003271  3.793441  0.004  0.083887  0.002091  4.042277  0.003  0.087839  0.001654  4.063625  0.002  0.089036  0.081575  0.002423  4.027229  0.003
C  C59  1  0.48496650  0.68608992  0.15643977  1  0.149982  0.000212  3.840679  0.001  0.148077  0.000896  4.094631  0.001  0.153649  0.000115  4.117257  0.0  0.087095  0.144462  0.001455  4.07926  0.002
C  C60  1  0.51502920  0.31390636  0.84356547  1  0.14989  0.000244  3.840768  0.001  0.148031  0.000894  4.094676  0.001  0.153603  0.000114  4.117316  0.0  0.087124  0.144422  0.001454  4.079286  0.002
C  C61  1  0.59156707  0.67686607  0.25256801  1  -0.138493  0.0006  3.731199  0.001  -0.158941  0.000296  3.983874  0.001  -0.160751  0.000293  4.001681  0.001  -0.092801  -0.158154  0.000281  3.972644  0.001
C  C62  1  0.40842626  0.32313022  0.74743734  1  -0.138457  0.00056  3.731398  0.001  -0.158884  0.000296  3.984098  0.001  -0.160728  0.000292  4.001876  0.001  -0.092767  -0.158094  0.000281  3.972856  0.001
C  C63  1  0.62087807  0.54122626  0.34402797  1  -0.09113  -0.001206  3.814234  -0.001  -0.10574  -0.000598  4.067717  0.0  -0.108166  -0.000669  4.090376  0.0  -0.104086  -0.10447  -0.000522  4.05302  0.0
C  C64  1  0.37911149  0.45876545  0.65597569  1  -0.091084  -0.001151  3.814434  -0.001  -0.105694  -0.000598  4.067887  0.0  -0.10812  -0.000667  4.090557  0.0  -0.104078  -0.104429  -0.000522  4.053195  0.0
C  C65  1  0.54826697  0.41713727  0.33949045  1  -0.081341  0.000413  3.795185  0.0  -0.09497  9.6e-05  4.045966  0.0  -0.097307  0.000165  4.069153  0.0  -0.101694  -0.092865  1.7e-05  4.030088  0.0
C  C66  1  0.45173011  0.58285780  0.66050847  1  -0.081184  0.000374  3.795148  0.0  -0.094822  9.5e-05  4.045911  0.0  -0.097147  0.000164  4.069097  0.0  -0.101627  -0.09271  1.7e-05  4.030028  0.0
C  C67  1  0.44293202  0.42464639  0.24342643  1  -0.146533  -0.000276  3.754809  0.0  -0.162807  7.4e-05  4.004714  0.0  -0.16543  -9.8e-05  4.024868  0.0  -0.098244  -0.160796  0.000253  3.990485  0.0
C  C68  1  0.55706673  0.57534638  0.75657192  1  -0.146724  -0.000223  3.754818  0.0  -0.162985  7.3e-05  4.004726  0.0  -0.165609  -9.6e-05  4.024873  0.0  -0.098274  -0.160978  0.000253  3.990496  0.0
C  C69  1  0.22313329  0.51567011  0.99757247  1  0.015388  0.000624  3.631949  0.001  -0.044994  0.000476  3.889387  0.001  -0.040374  0.000362  3.901591  0.001  -0.054401  -0.048091  0.000602  3.881508  0.001
C  C70  1  0.77686542  0.48433413  0.00242647  1  0.015185  0.000659  3.631975  0.001  -0.045164  0.000475  3.889398  0.001  -0.040545  0.000363  3.9016  0.001  -0.054532  -0.04827  0.000602  3.881541  0.001
C  C71  1  0.04377149  0.54647118  0.03202973  1  -0.138906  -9.9e-05  3.675532  0.0  -0.180467  -8.3e-05  3.935659  0.0  -0.182325  -0.000103  3.948781  0.0  -0.167902  -0.179043  -5.7e-05  3.926701  0.0
C  C72  1  0.95622798  0.45353544  0.96797887  1  -0.138749  -9.8e-05  3.675481  0.0  -0.180422  -8.7e-05  3.935673  0.0  -0.182284  -0.000102  3.948801  0.0  -0.167915  -0.179006  -5.7e-05  3.926722  0.0
N  N73  1  0.43151854  0.80303709  0.05373411  1  -0.464223  0.063111  3.256992  0.082  -0.431115  0.045862  3.565698  0.062  -0.463334  0.03826  3.579419  0.056  -0.381301  -0.411437  0.050212  3.557913  0.065
N  N74  1  0.56848308  0.19695917  0.94627172  1  -0.464183  0.063109  3.25706  0.082  -0.431128  0.045867  3.565763  0.062  -0.46335  0.038263  3.579487  0.056  -0.381314  -0.411447  0.050218  3.557949  0.065
N  N75  1  0.31470626  0.60852852  0.04678290  1  -0.179664  0.000516  3.467773  0.001  -0.09597  0.000711  3.691232  0.001  -0.113311  0.000324  3.71311  0.001  -0.241335  -0.084223  0.001007  3.67612  0.002
N  N76  1  0.68529508  0.39146883  0.95321628  1  -0.179654  0.000504  3.467801  0.001  -0.095953  0.000712  3.691208  0.001  -0.113295  0.000324  3.713087  0.001  -0.241232  -0.084208  0.001007  3.676098  0.002
O  O77  1  0.55590704  0.96505596  0.82433438  1  -0.612817  0.102981  2.060619  0.141  -0.587316  0.068166  2.345335  0.101  -0.631351  0.052502  2.340447  0.085  -0.332265  -0.557743  0.078323  2.34766  0.111
O  O78  1  0.44408763  0.03495057  0.17566158  1  -0.612754  0.102995  2.060259  0.141  -0.587311  0.068173  2.345064  0.101  -0.631332  0.052507  2.340146  0.085  -0.332352  -0.557739  0.078325  2.347398  0.111
O  O79  1  0.79960544  0.86884082  0.91373982  1  -0.615593  -0.001866  1.901658  0.001  -0.584612  -0.00131  2.129997  0.001  -0.608684  -0.00239  2.120231  0.0  -0.332355  -0.568101  -0.000396  2.136576  0.002
O  O80  1  0.20038758  0.13115652  0.08625428  1  -0.61552  -0.00186  1.901679  0.001  -0.584519  -0.001311  2.130017  0.001  -0.608594  -0.002389  2.120256  0.0  -0.332203  -0.568007  -0.000397  2.136595  0.002
O  O81  1  0.94189756  0.83456287  0.32954804  1  -0.24754  0.000204  2.333418  0.0  -0.167873  5.2e-05  2.562965  0.0  -0.186968  -1.3e-05  2.566753  0.0  -0.182616  -0.154377  9.1e-05  2.559966  0.0
O  O82  1  0.05811324  0.16543444  0.67045064  1  -0.247451  0.000204  2.333354  0.0  -0.167742  5.2e-05  2.562892  0.0  -0.186861  -1.3e-05  2.566691  0.0  -0.182513  -0.154255  9e-05  2.559905  0.0
