# generated using pymatgen
data_TbCoH20C24N4ClO12
_symmetry_space_group_name_H-M   'P 1'
_cell_length_a   13.08759502
_cell_length_b   15.67637480
_cell_length_c   22.33255022
_cell_angle_alpha   100.46213339
_cell_angle_beta   90.03160877
_cell_angle_gamma   114.67450120
_symmetry_Int_Tables_number   1
_chemical_formula_structural   TbCoH20C24N4ClO12
_chemical_formula_sum   'Tb4 Co4 H80 C96 N16 Cl4 O48'
_cell_volume   4079.33485221
_cell_formula_units_Z   4
loop_
 _symmetry_equiv_pos_site_id
 _symmetry_equiv_pos_as_xyz
  1  'x, y, z'
loop_
 _atom_site_type_symbol
 _atom_site_label
 _atom_site_symmetry_multiplicity
 _atom_site_fract_x
 _atom_site_fract_y
 _atom_site_fract_z
 _atom_site_occupancy
 _atom_site_pbe_bader_charge
 _atom_site_pbe_bader_spin_density
 _atom_site_pbe_cm5_charge
 _atom_site_pbe_ddec_charge
 _atom_site_pbe_ddec_spin_density
 _atom_site_pbe_ddec_sum_bond_order
 _atom_site_pbe_magmom
Tb  Tb0  1  0.60166874  0.94106295  0.95709898  1  2.195143  8.1e-05  1.491506  2.13136  7.4e-05  2.111632  0.0
Tb  Tb1  1  0.66075065  0.05894029  0.54282078  1  2.193941  8.1e-05  1.491857  2.132435  7.4e-05  2.110366  0.0
Tb  Tb2  1  0.39832897  0.05894166  0.04290432  1  2.195134  8e-05  1.491457  2.131234  7.4e-05  2.111767  0.0
Tb  Tb3  1  0.33925913  0.94106553  0.45717594  1  2.194022  8.1e-05  1.491816  2.132416  7.4e-05  2.110302  0.0
Co  Co4  1  0.13064137  0.48973072  0.14034827  1  1.014227  0.914864  0.663872  0.482075  1.009104  3.27297  0.873
Co  Co5  1  0.64074615  0.51029985  0.35974831  1  1.019864  0.914752  0.664358  0.481508  1.008332  3.274445  0.872
Co  Co6  1  0.86935722  0.51026954  0.85965318  1  1.014308  0.914847  0.663829  0.481966  1.009086  3.273026  0.873
Co  Co7  1  0.35925306  0.48970470  0.64025319  1  1.019772  0.914748  0.664306  0.481324  1.008327  3.274642  0.872
H  H8  1  0.70018888  0.05794791  0.86082241  1  0.632051  1e-06  0.326879  0.414815  3e-06  0.871979  0.0
H  H9  1  0.64183301  0.94196593  0.63915357  1  0.622771  1e-06  0.326736  0.415358  3e-06  0.87126  0.0
H  H10  1  0.29981811  0.94205080  0.13917529  1  0.631982  1e-06  0.326925  0.414926  3e-06  0.871839  0.0
H  H11  1  0.35813387  0.05803356  0.36084600  1  0.623197  1e-06  0.326647  0.415132  3e-06  0.871563  0.0
H  H12  1  0.66571509  0.94643102  0.83385594  1  0.641592  -1e-06  0.289017  0.393449  -3e-06  0.946143  0.0
H  H13  1  0.71903293  0.05345717  0.66614655  1  0.651952  -1e-06  0.288937  0.393275  -3e-06  0.946322  0.0
H  H14  1  0.33426964  0.05356139  0.16614506  1  0.65728  -1e-06  0.289052  0.393517  -3e-06  0.946033  0.0
H  H15  1  0.28093666  0.94654316  0.33385670  1  0.652047  -1e-06  0.28887  0.393162  -3e-06  0.946499  0.0
H  H16  1  0.08571429  0.32292714  0.23226739  1  0.585048  0.000105  0.31627  0.393012  2.6e-05  0.899061  0.0
H  H17  1  0.76226102  0.67694455  0.26777575  1  0.613999  0.0001  0.316033  0.392201  2.8e-05  0.900154  0.0
H  H18  1  0.91429276  0.67706252  0.76773689  1  0.585358  0.000105  0.316237  0.392987  2.6e-05  0.899002  0.0
H  H19  1  0.23773271  0.32303682  0.73221549  1  0.614094  0.0001  0.316116  0.392216  2.8e-05  0.900149  0.0
H  H20  1  0.96444125  0.28733054  0.25186757  1  0.597325  0.000971  0.320741  0.396508  0.000257  0.890299  0.001
H  H21  1  0.67668437  0.71272748  0.24822722  1  0.613074  0.000962  0.320592  0.396169  0.000259  0.890366  0.001
H  H22  1  0.03556522  0.71265339  0.74813605  1  0.597576  0.000971  0.320734  0.396334  0.000258  0.890483  0.001
H  H23  1  0.32332116  0.28726680  0.75176594  1  0.61322  0.000962  0.320694  0.396272  0.000259  0.890244  0.001
H  H24  1  0.76603373  0.00053202  0.06888701  1  0.632382  -1e-06  0.317455  0.415579  0.0  0.882517  0.0
H  H25  1  0.76538293  0.99948697  0.43101678  1  0.623023  -1e-06  0.317352  0.415162  0.0  0.882988  0.0
H  H26  1  0.23396221  0.99946751  0.93111391  1  0.632244  -1e-06  0.317479  0.415638  0.0  0.882426  0.0
H  H27  1  0.23462110  0.00050888  0.56898059  1  0.62309  -1e-06  0.317394  0.41521  0.0  0.882913  0.0
H  H28  1  0.76558395  0.90265180  0.02592808  1  0.651717  -2e-06  0.293205  0.401406  -7e-06  0.9318  0.0
H  H29  1  0.86298915  0.09731130  0.47395447  1  0.654612  -2e-06  0.293549  0.401414  -7e-06  0.931606  0.0
H  H30  1  0.23440982  0.09734491  0.97407387  1  0.651644  -2e-06  0.293194  0.401374  -7e-06  0.931846  0.0
H  H31  1  0.13701386  0.90268863  0.52603665  1  0.653657  -2e-06  0.293522  0.40129  -7e-06  0.931755  0.0
H  H32  1  0.32073952  0.68692253  0.12560457  1  0.130866  0.002997  0.123135  0.097871  0.00108  1.00872  0.002
H  H33  1  0.63326242  0.31301393  0.37438109  1  0.127198  0.003007  0.122832  0.097615  0.001081  1.00841  0.002
H  H34  1  0.67927214  0.31307483  0.87439521  1  0.130893  0.002997  0.123105  0.097849  0.00108  1.008735  0.002
H  H35  1  0.36674217  0.68698916  0.62561934  1  0.127218  0.003007  0.122787  0.097589  0.001082  1.008349  0.002
H  H36  1  0.32008999  0.66137447  0.93101642  1  0.138384  -7.2e-05  0.118886  0.126739  -0.000163  0.981167  0.0
H  H37  1  0.65857255  0.33830406  0.56895183  1  0.126049  -7.6e-05  0.119128  0.126861  -0.000163  0.981483  0.0
H  H38  1  0.67991428  0.33862644  0.06898287  1  0.13833  -7.2e-05  0.118893  0.12677  -0.000163  0.981193  0.0
H  H39  1  0.34143648  0.66169110  0.43104636  1  0.126149  -7.5e-05  0.119104  0.126772  -0.000163  0.981558  0.0
H  H40  1  0.84904114  0.21535841  0.93232116  1  0.162025  -5.4e-05  0.123503  0.129905  -0.000112  0.973523  0.0
H  H41  1  0.63421182  0.78474251  0.56777438  1  0.140613  -6.4e-05  0.123487  0.129642  -0.000112  0.973589  0.0
H  H42  1  0.15096209  0.78464044  0.06768059  1  0.162164  -5.4e-05  0.123457  0.129847  -0.000112  0.973506  0.0
H  H43  1  0.36580525  0.21526719  0.43223174  1  0.140463  -6.4e-05  0.123485  0.129534  -0.000112  0.973698  0.0
H  H44  1  0.14045667  0.30581453  0.06912983  1  0.126445  0.000352  0.121984  0.096399  -9e-05  1.027656  0.0
H  H45  1  0.83465905  0.69421015  0.43104365  1  0.127694  0.000336  0.122251  0.096635  -9e-05  1.028455  0.0
H  H46  1  0.85953968  0.69418428  0.93087102  1  0.126511  0.000352  0.121977  0.096347  -9e-05  1.027728  0.0
H  H47  1  0.16535210  0.30579229  0.56895895  1  0.127702  0.000336  0.122233  0.096588  -9e-05  1.028428  0.0
H  H48  1  0.01048671  0.36867171  0.92025467  1  0.126261  7.8e-05  0.104004  0.124433  -1.3e-05  1.0313  0.0
H  H49  1  0.64235812  0.63146513  0.57984880  1  0.122459  7.5e-05  0.103852  0.124286  -1.5e-05  1.032025  0.0
H  H50  1  0.98952511  0.63131986  0.07974266  1  0.12653  7.8e-05  0.104045  0.124475  -1.3e-05  1.031328  0.0
H  H51  1  0.35764339  0.36854096  0.42015601  1  0.12259  7.5e-05  0.10385  0.12431  -1.5e-05  1.032064  0.0
H  H52  1  0.16793252  0.67799318  0.22275258  1  0.152902  -0.000209  0.114136  0.100371  -0.000395  1.033542  0.0
H  H53  1  0.48963737  0.32208945  0.27738893  1  0.160386  -0.000206  0.114132  0.100239  -0.000394  1.034132  0.0
H  H54  1  0.83206043  0.32200193  0.77724380  1  0.153453  -0.000208  0.114133  0.100339  -0.000395  1.033558  0.0
H  H55  1  0.51036044  0.67790923  0.72260787  1  0.160732  -0.000206  0.11414  0.100304  -0.000394  1.034141  0.0
H  H56  1  0.92979751  0.30326293  0.12704899  1  0.15033  0.000674  0.121709  0.099837  0.000479  1.026656  0.0
H  H57  1  0.62619419  0.69661963  0.37303942  1  0.152472  0.000683  0.12175  0.099285  0.000482  1.02655  0.0
H  H58  1  0.07020705  0.69674162  0.87295252  1  0.150364  0.000674  0.121741  0.099807  0.000478  1.026692  0.0
H  H59  1  0.37379755  0.30338221  0.62696625  1  0.15229  0.000683  0.121729  0.099301  0.000482  1.026507  0.0
H  H60  1  0.15478407  0.50006852  0.91952934  1  0.118545  0.001123  0.09914  0.120378  0.000381  1.042774  0.001
H  H61  1  0.65479149  0.49971815  0.58053755  1  0.126458  0.00112  0.099096  0.120379  0.000381  1.043272  0.001
H  H62  1  0.84522260  0.49992957  0.08047098  1  0.11848  0.001123  0.099164  0.120417  0.000381  1.042783  0.001
H  H63  1  0.34519941  0.50027282  0.41946329  1  0.126269  0.00112  0.099088  0.120446  0.000382  1.043136  0.001
H  H64  1  0.45037764  0.32229880  0.14440647  1  0.132109  -6.4e-05  0.11797  0.120918  -0.000118  1.000755  0.0
H  H65  1  0.12795282  0.67813039  0.35551484  1  0.148502  -6.3e-05  0.117933  0.121224  -0.000117  1.001416  0.0
H  H66  1  0.54962120  0.67770350  0.85559163  1  0.132114  -6.4e-05  0.117945  0.120903  -0.000118  1.000787  0.0
H  H67  1  0.87204485  0.32185734  0.64447444  1  0.148538  -6.3e-05  0.117938  0.12125  -0.000117  1.001447  0.0
H  H68  1  0.47859178  0.47766728  0.21429891  1  0.135839  0.000272  0.107154  0.12373  0.000133  1.024497  0.0
H  H69  1  0.00070796  0.52269097  0.28567405  1  0.124643  0.000272  0.106914  0.123717  0.000131  1.023979  0.0
H  H70  1  0.52141203  0.52234342  0.78569434  1  0.135737  0.000272  0.107196  0.123758  0.000133  1.02465  0.0
H  H71  1  0.99927978  0.47729982  0.71432139  1  0.124602  0.000271  0.106916  0.123766  0.000131  1.023862  0.0
H  H72  1  0.47342804  0.74961107  0.33322155  1  0.153017  -5.7e-05  0.113048  0.12722  -0.000102  1.013302  0.0
H  H73  1  0.72329595  0.25050370  0.16689810  1  0.147796  -5.5e-05  0.113044  0.127108  -0.000102  1.013078  0.0
H  H74  1  0.52656170  0.25038982  0.66677729  1  0.152958  -5.7e-05  0.113071  0.127305  -0.000102  1.013158  0.0
H  H75  1  0.27670449  0.74949721  0.83310119  1  0.147791  -5.5e-05  0.113065  0.127174  -0.000102  1.01304  0.0
H  H76  1  0.47983542  0.59888798  0.27368500  1  0.121802  -8.3e-05  0.102831  0.125044  -0.000118  1.046519  0.0
H  H77  1  0.88056814  0.40121488  0.22640705  1  0.120819  -8e-05  0.102854  0.124522  -0.000119  1.045927  0.0
H  H78  1  0.52016309  0.40111363  0.72631392  1  0.121694  -8.3e-05  0.102792  0.12498  -0.000118  1.046462  0.0
H  H79  1  0.11943067  0.59878888  0.77359212  1  0.120787  -8e-05  0.102856  0.124608  -0.000119  1.045834  0.0
H  H80  1  0.38663118  0.94946256  0.91878324  1  0.643158  -2e-06  0.310871  0.413084  1e-06  0.908223  0.0
H  H81  1  0.43732894  0.05062356  0.58120610  1  0.65335  -2e-06  0.311138  0.413951  1e-06  0.906787  0.0
H  H82  1  0.61336849  0.05053984  0.08121801  1  0.642997  -2e-06  0.310829  0.413048  1e-06  0.908295  0.0
H  H83  1  0.56268574  0.94938594  0.41879418  1  0.653458  -2e-06  0.311135  0.41396  1e-06  0.906752  0.0
H  H84  1  0.48837916  0.05926080  0.92169906  1  0.653888  1e-06  0.299058  0.397082  2e-06  0.944225  0.0
H  H85  1  0.42921426  0.94086264  0.57837498  1  0.649971  1e-06  0.299257  0.397198  2e-06  0.944028  0.0
H  H86  1  0.51162319  0.94074239  0.07830453  1  0.653874  1e-06  0.299035  0.39703  2e-06  0.9443  0.0
H  H87  1  0.57081142  0.05914748  0.42162224  1  0.649893  1e-06  0.299224  0.397186  2e-06  0.94408  0.0
C  C88  1  0.28654298  0.64600427  0.07961921  1  0.503368  -0.005955  0.058668  0.077199  -0.006248  3.896597  -0.004
C  C89  1  0.64008496  0.35387260  0.42038646  1  0.496983  -0.005899  0.059792  0.077862  -0.006226  3.896266  -0.004
C  C90  1  0.71346287  0.35399524  0.92038082  1  0.503589  -0.005957  0.05868  0.077208  -0.006248  3.896651  -0.004
C  C91  1  0.35991663  0.64612755  0.57961140  1  0.496998  -0.005899  0.059688  0.077659  -0.006225  3.89616  -0.004
C  C92  1  0.33116711  0.68542134  0.02917364  1  -0.041077  0.006044  -0.001735  -0.060342  0.003271  3.931537  0.005
C  C93  1  0.64533552  0.31437760  0.47079642  1  -0.04037  0.006055  -0.002977  -0.062018  0.003271  3.933501  0.005
C  C94  1  0.66883484  0.31458105  0.97082717  1  -0.040658  0.006044  -0.001654  -0.060343  0.003271  3.931503  0.005
C  C95  1  0.35466878  0.68562186  0.52920226  1  -0.040589  0.006055  -0.00286  -0.061712  0.003271  3.933243  0.005
C  C96  1  0.05655776  0.41610946  0.01754586  1  0.429268  -0.00436  0.119911  0.153765  -0.005293  3.958823  -0.002
C  C97  1  0.64058749  0.58390540  0.48256353  1  0.443555  -0.00436  0.120191  0.154354  -0.005293  3.960204  -0.002
C  C98  1  0.94344804  0.58389146  0.98245388  1  0.429126  -0.00436  0.119926  0.153824  -0.005292  3.958837  -0.002
C  C99  1  0.35940314  0.41609573  0.51744251  1  0.44288  -0.004359  0.120259  0.154323  -0.005292  3.960435  -0.002
C  C100  1  0.15341994  0.50723242  0.01720445  1  0.423241  -0.005343  0.116969  0.157752  -0.00609  3.979512  -0.004
C  C101  1  0.64616008  0.49270676  0.48287961  1  0.427883  -0.005397  0.116925  0.157714  -0.00609  3.981163  -0.004
C  C102  1  0.84658516  0.49276708  0.98279558  1  0.423614  -0.005347  0.116995  0.157771  -0.006091  3.979597  -0.004
C  C103  1  0.35382871  0.50729070  0.51712331  1  0.429244  -0.005398  0.116995  0.157869  -0.00609  3.981182  -0.004
C  C104  1  0.28544831  0.63112625  0.97068010  1  -0.027443  -0.009397  -0.057764  -0.04107  -0.009739  3.915408  -0.006
C  C105  1  0.65411449  0.36863149  0.52931986  1  -0.031001  -0.009404  -0.057667  -0.04083  -0.009748  3.914084  -0.006
C  C106  1  0.71455705  0.36887685  0.02932078  1  -0.02804  -0.009397  -0.057828  -0.041166  -0.009739  3.915615  -0.006
C  C107  1  0.34588696  0.63136226  0.47067861  1  -0.0309  -0.009403  -0.057655  -0.040691  -0.009747  3.914005  -0.006
C  C108  1  0.90149546  0.26742261  0.97181233  1  -0.07265  -0.006961  -0.052674  -0.029908  -0.007185  3.904115  -0.004
C  C109  1  0.63445561  0.73266937  0.52827835  1  -0.007982  -0.006932  -0.052225  -0.028303  -0.007188  3.902773  -0.004
C  C110  1  0.09850808  0.73257837  0.02818921  1  -0.07266  -0.006961  -0.052604  -0.029795  -0.007186  3.904061  -0.004
C  C111  1  0.36555166  0.26733600  0.47172638  1  -0.007757  -0.00693  -0.052207  -0.027988  -0.007186  3.902606  -0.004
C  C112  1  0.77796720  0.15718635  0.03814772  1  1.604977  -0.00013  0.221985  0.598939  -0.000141  4.218918  0.0
C  C113  1  0.62095937  0.84282391  0.46187560  1  1.613485  -0.000129  0.222435  0.6004  -0.000141  4.220671  0.0
C  C114  1  0.22203202  0.84281823  0.96185468  1  1.60535  -0.00013  0.222106  0.599009  -0.000141  4.218799  0.0
C  C115  1  0.37905017  0.15718144  0.53812823  1  1.600937  -0.000129  0.222402  0.60027  -0.000141  4.220669  0.0
C  C116  1  0.21443831  0.34249114  0.10176019  1  0.458496  0.000436  0.050259  0.059979  -0.000567  3.897264  0.001
C  C117  1  0.87186612  0.65752943  0.39839850  1  0.471379  0.00047  0.049613  0.059139  -0.000546  3.899841  0.001
C  C118  1  0.78555540  0.65750701  0.89824192  1  0.458196  0.000439  0.05032  0.060085  -0.000565  3.897386  0.001
C  C119  1  0.12813923  0.34247214  0.60159907  1  0.471141  0.00047  0.049635  0.0593  -0.000546  3.899627  0.001
C  C120  1  0.99169087  0.35168061  0.96534025  1  0.012516  4.4e-05  -0.071447  -0.135022  -0.000471  3.915864  0.0
C  C121  1  0.64037663  0.64840415  0.53475743  1  -0.029502  1.9e-05  -0.071696  -0.136114  -0.000471  3.917106  0.0
C  C122  1  0.00831696  0.64831674  0.03465953  1  0.012177  4.3e-05  -0.071522  -0.135176  -0.000471  3.9161  0.0
C  C123  1  0.35962240  0.35159697  0.46524816  1  -0.029348  1.9e-05  -0.071759  -0.136338  -0.000471  3.917057  0.0
C  C124  1  0.42247036  0.78600063  0.03778537  1  1.627199  0.000918  0.222267  0.609681  0.000524  4.204963  0.001
C  C125  1  0.63623382  0.21386568  0.46212223  1  1.62764  0.000914  0.222886  0.610616  0.000524  4.205784  0.001
C  C126  1  0.57752935  0.21400034  0.96221572  1  1.627247  0.000918  0.222327  0.609702  0.000525  4.205254  0.001
C  C127  1  0.36379616  0.78613929  0.53787036  1  1.627599  0.000914  0.223014  0.610677  0.000524  4.206202  0.001
C  C128  1  0.87640289  0.24833821  0.03026543  1  0.025892  0.000738  -0.001233  -0.059486  -4.4e-05  3.921388  0.001
C  C129  1  0.62821397  0.75168140  0.46981539  1  0.028698  0.000746  -0.001779  -0.061163  -4.3e-05  3.922645  0.001
C  C130  1  0.12359898  0.75166707  0.96973660  1  0.026009  0.000738  -0.001328  -0.059578  -4.4e-05  3.921326  0.001
C  C131  1  0.37179442  0.24832469  0.53018942  1  0.041482  0.000746  -0.001822  -0.061242  -4.3e-05  3.922599  0.001
C  C132  1  0.23766943  0.66231976  0.23534552  1  0.410331  -0.00076  0.051072  0.059857  -0.00136  3.888053  -0.001
C  C133  1  0.57502212  0.33777196  0.26477251  1  0.445528  -0.000714  0.050922  0.060307  -0.001339  3.887459  -0.001
C  C134  1  0.76232158  0.33767756  0.76465291  1  0.409757  -0.000758  0.051149  0.05998  -0.001358  3.888008  -0.001
C  C135  1  0.42497261  0.66222822  0.73522625  1  0.44516  -0.000714  0.050869  0.060108  -0.001339  3.887632  -0.001
C  C136  1  0.94416333  0.31538768  0.08062534  1  0.458618  -0.004569  0.057871  0.062839  -0.004305  3.883905  -0.003
C  C137  1  0.62869151  0.68457250  0.41946891  1  0.440313  -0.004572  0.057612  0.064362  -0.004293  3.883562  -0.003
C  C138  1  0.05583744  0.68461542  0.91937554  1  0.45856  -0.004571  0.057857  0.062867  -0.004307  3.883918  -0.003
C  C139  1  0.37130485  0.31542787  0.58053569  1  0.440277  -0.00457  0.05763  0.064384  -0.004292  3.88344  -0.003
C  C140  1  0.31515603  0.81504504  0.31436183  1  1.639627  -0.000158  0.213727  0.594405  -0.000162  4.239826  0.0
C  C141  1  0.49982004  0.18489214  0.18580382  1  1.622399  -0.000161  0.214681  0.594819  -0.000162  4.23844  0.0
C  C142  1  0.68483594  0.18495574  0.68563342  1  1.640042  -0.000158  0.213748  0.594461  -0.000162  4.239039  0.0
C  C143  1  0.50017831  0.81510612  0.81420143  1  1.622  -0.000161  0.214776  0.595046  -0.000162  4.238267  0.0
C  C144  1  0.19513395  0.54151218  0.96454442  1  0.032047  0.004648  -0.076394  -0.141011  0.002475  3.92682  0.004
C  C145  1  0.65359175  0.45831287  0.53550781  1  0.01273  0.004709  -0.076498  -0.140765  0.002478  3.927657  0.004
C  C146  1  0.80487264  0.45848878  0.03545668  1  0.032226  0.004649  -0.076378  -0.140961  0.002475  3.927037  0.004
C  C147  1  0.34639874  0.54167883  0.46449356  1  0.011573  0.00471  -0.076586  -0.141081  0.002478  3.927778  0.004
C  C148  1  0.27234933  0.21036454  0.06071632  1  1.617725  7e-05  0.221884  0.613227  1.6e-05  4.21023  0.0
C  C149  1  0.06183733  0.78977333  0.43943046  1  1.624956  6.7e-05  0.222677  0.612998  1.5e-05  4.210699  0.0
C  C150  1  0.72763887  0.78962870  0.93928836  1  1.616903  7.1e-05  0.221991  0.6133  1.6e-05  4.209941  0.0
C  C151  1  0.93817266  0.21022528  0.56056409  1  1.624507  6.7e-05  0.222463  0.612849  1.5e-05  4.21095  0.0
C  C152  1  0.38903362  0.35233030  0.14376932  1  -0.041498  -0.000818  -0.056971  -0.037396  -0.001003  3.911096  -0.001
C  C153  1  0.03658709  0.64793018  0.35626330  1  -0.00666  -0.000778  -0.057356  -0.038811  -0.000964  3.913402  -0.001
C  C154  1  0.61096306  0.64766920  0.85623071  1  -0.041623  -0.000815  -0.056947  -0.037302  -0.001  3.911237  -0.001
C  C155  1  0.96341126  0.35206195  0.64372962  1  -0.003652  -0.000779  -0.057375  -0.038811  -0.000964  3.913157  -0.001
C  C156  1  0.32112997  0.47147847  0.18022543  1  0.356377  -0.000244  0.111727  0.152491  -0.001203  3.982615  0.0
C  C157  1  0.84946453  0.52866505  0.31986453  1  0.379603  -0.000249  0.11136  0.153494  -0.00118  3.981334  0.0
C  C158  1  0.67886376  0.52851818  0.81977472  1  0.356686  -0.000243  0.111792  0.152588  -0.001202  3.982568  0.0
C  C159  1  0.15053167  0.47133655  0.68013395  1  0.379059  -0.000249  0.111383  0.153405  -0.001181  3.981127  0.0
C  C160  1  0.40418875  0.43768117  0.18212172  1  -0.003655  0.001036  -0.07555  -0.13993  0.000242  3.943783  0.001
C  C161  1  0.96633449  0.56257032  0.31791422  1  0.038109  0.001039  -0.074881  -0.139613  0.000235  3.943566  0.001
C  C162  1  0.59580933  0.56232112  0.81787639  1  -0.003629  0.001036  -0.075629  -0.140081  0.000241  3.943994  0.001
C  C163  1  0.03365626  0.43742190  0.68208139  1  0.0357  0.001039  -0.074962  -0.139734  0.000236  3.943317  0.001
C  C164  1  0.29223125  0.30355745  0.10293586  1  0.034216  0.000825  -0.001773  -0.053724  8e-06  3.936005  0.001
C  C165  1  0.98857373  0.69653102  0.39719736  1  -0.013459  0.000847  -0.001547  -0.052571  0.0  3.936083  0.001
C  C166  1  0.70776131  0.69644144  0.89706723  1  0.03492  0.000824  -0.001783  -0.053799  8e-06  3.936143  0.001
C  C167  1  0.01143251  0.30346621  0.60279837  1  -0.013407  0.000846  -0.001349  -0.052447  0.0  3.935863  0.001
C  C168  1  0.32135208  0.72484014  0.28108565  1  0.027366  -0.001065  -0.001933  -0.05228  -0.001287  3.932089  -0.001
C  C169  1  0.59610922  0.27525680  0.21903193  1  0.012881  -0.001085  -0.002215  -0.053392  -0.001291  3.93232  -0.001
C  C170  1  0.67864404  0.27516281  0.71891074  1  0.027166  -0.001066  -0.001971  -0.05232  -0.001288  3.932  -0.001
C  C171  1  0.40388594  0.72474272  0.78096855  1  0.013045  -0.001085  -0.002136  -0.053267  -0.001291  3.932308  -0.001
C  C172  1  0.32595387  0.55874565  0.21835079  1  0.474314  -0.00065  0.110963  0.151673  -0.00144  3.984331  0.0
C  C173  1  0.76693220  0.44137395  0.28174777  1  0.398429  -0.000617  0.111582  0.151111  -0.00142  3.98478  0.0
C  C174  1  0.67403644  0.44125027  0.78164883  1  0.473854  -0.000649  0.110934  0.151527  -0.001439  3.984661  0.0
C  C175  1  0.23306402  0.55862768  0.71825160  1  0.398701  -0.000617  0.111547  0.151153  -0.00142  3.98469  0.0
C  C176  1  0.40902564  0.70167145  0.29652241  1  -0.02265  -0.000862  -0.061976  -0.045584  -0.000984  3.904743  0.0
C  C177  1  0.70693525  0.29845942  0.20359201  1  -0.007748  -0.000835  -0.061473  -0.044587  -0.000956  3.904915  0.0
C  C178  1  0.59096712  0.29833089  0.70347705  1  -0.02228  -0.000859  -0.062049  -0.045833  -0.000982  3.904582  0.0
C  C179  1  0.29305884  0.70153795  0.79640822  1  -0.00784  -0.000835  -0.061541  -0.044736  -0.000956  3.90508  0.0
C  C180  1  0.41227076  0.61874586  0.26374818  1  -0.051831  -0.000107  -0.079999  -0.147434  -0.00053  3.941329  0.0
C  C181  1  0.79317146  0.38139349  0.23634259  1  -0.039776  -0.000101  -0.080617  -0.147854  -0.000532  3.941628  0.0
C  C182  1  0.58772279  0.38125501  0.73624977  1  -0.051995  -0.000107  -0.080044  -0.147296  -0.000531  3.941345  0.0
C  C183  1  0.20682444  0.61860597  0.76365609  1  -0.039833  -0.000101  -0.080574  -0.147896  -0.000532  3.941675  0.0
N  N184  1  0.20094105  0.55888735  0.07395652  1  -1.198833  0.080141  -0.326954  -0.22444  0.041996  3.625134  0.069
N  N185  1  0.64181377  0.44106169  0.42610536  1  -1.182906  0.080096  -0.327091  -0.224036  0.042028  3.625757  0.069
N  N186  1  0.79906556  0.44111214  0.92604306  1  -1.199364  0.08015  -0.327046  -0.224492  0.041999  3.625164  0.069
N  N187  1  0.35817955  0.55893566  0.57389442  1  -1.183041  0.080096  -0.327047  -0.223896  0.042027  3.625704  0.069
N  N188  1  0.23738206  0.57929494  0.20549337  1  -1.17582  -0.008653  -0.339568  -0.210759  -0.011692  3.645884  -0.01
N  N189  1  0.65782715  0.42082551  0.29460128  1  -1.178731  -0.008573  -0.339978  -0.209898  -0.011688  3.646124  -0.01
N  N190  1  0.76260857  0.42070315  0.79450694  1  -1.175543  -0.008652  -0.339439  -0.210615  -0.011691  3.645708  -0.01
N  N191  1  0.34216522  0.57917607  0.70539675  1  -1.178813  -0.008572  -0.339972  -0.209788  -0.011688  3.646142  -0.01
N  N192  1  0.03184982  0.39701708  0.07440365  1  -1.182161  -0.009582  -0.341815  -0.200883  -0.011772  3.689824  -0.009
N  N193  1  0.63475133  0.60295212  0.42569994  1  -1.175921  -0.009641  -0.341315  -0.2012  -0.011762  3.691565  -0.009
N  N194  1  0.96815056  0.60298523  0.92559491  1  -1.182232  -0.009581  -0.341774  -0.200782  -0.011773  3.689782  -0.009
N  N195  1  0.36524458  0.39704888  0.57430205  1  -1.175641  -0.00964  -0.341282  -0.201143  -0.011762  3.691838  -0.009
N  N196  1  0.22666154  0.42409657  0.13992917  1  -1.185088  0.007962  -0.335441  -0.216956  0.001089  3.636585  0.002
N  N197  1  0.80241383  0.57595447  0.36020384  1  -1.204862  0.00782  -0.335024  -0.216587  0.00109  3.636728  0.002
N  N198  1  0.77332915  0.57590012  0.86007188  1  -1.184967  0.00796  -0.335449  -0.216898  0.001087  3.636605  0.002
N  N199  1  0.19758805  0.42404931  0.63979578  1  -1.20476  0.007819  -0.335109  -0.216733  0.001089  3.636769  0.002
Cl  Cl200  1  0.99761201  0.54068372  0.16515300  1  -0.590118  0.027721  -0.257251  -0.451402  0.007512  1.314111  0.013
Cl  Cl201  1  0.45670376  0.45924573  0.33488769  1  -0.591935  0.027728  -0.257181  -0.451327  0.007558  1.314583  0.013
Cl  Cl202  1  0.00238205  0.45931512  0.83484830  1  -0.590075  0.027723  -0.257256  -0.45139  0.007514  1.314181  0.013
Cl  Cl203  1  0.54329948  0.54076230  0.66511107  1  -0.591794  0.027726  -0.257177  -0.451306  0.007557  1.314545  0.013
O  O204  1  0.45862983  0.99937068  0.94141331  1  -1.290168  4.5e-05  -0.660135  -0.936384  2.5e-05  2.218226  0.0
O  O205  1  0.45930633  0.00067575  0.55859732  1  -1.295789  4.5e-05  -0.660283  -0.937497  2.5e-05  2.218906  0.0
O  O206  1  0.54137064  0.00063180  0.05859019  1  -1.289872  4.5e-05  -0.660058  -0.936239  2.5e-05  2.218269  0.0
O  O207  1  0.54070712  0.99933435  0.44139944  1  -1.295547  4.5e-05  -0.660178  -0.937311  2.5e-05  2.218674  0.0
O  O208  1  0.44335267  0.83880568  0.09050888  1  -1.165789  0.000311  -0.312066  -0.543383  0.000145  2.108254  0.0
O  O209  1  0.60443973  0.16110054  0.40937506  1  -1.167475  0.000311  -0.312397  -0.54352  0.000145  2.107824  0.0
O  O210  1  0.55664545  0.16119821  0.90949433  1  -1.165663  0.000311  -0.312144  -0.543397  0.000145  2.108593  0.0
O  O211  1  0.39560697  0.83890884  0.59062118  1  -1.167518  0.000311  -0.312529  -0.543695  0.000145  2.10776  0.0
O  O212  1  0.36402632  0.84632492  0.36833706  1  -1.1919  -0.000325  -0.400799  -0.663678  -0.000318  2.307109  0.0
O  O213  1  0.51757282  0.15343273  0.13192475  1  -1.195007  -0.000327  -0.401144  -0.663776  -0.00032  2.305649  0.0
O  O214  1  0.63598297  0.15369063  0.63165181  1  -1.191967  -0.000325  -0.400839  -0.663611  -0.000318  2.306696  0.0
O  O215  1  0.48242124  0.84656612  0.86807700  1  -1.19465  -0.000327  -0.401158  -0.663913  -0.00032  2.305764  0.0
O  O216  1  0.26304301  0.85076775  0.28695667  1  -1.160672  -6.5e-05  -0.318901  -0.540978  -5.9e-05  2.08956  0.0
O  O217  1  0.41195593  0.14921625  0.21314687  1  -1.158273  -6.3e-05  -0.318917  -0.540266  -5.7e-05  2.090275  0.0
O  O218  1  0.73693095  0.14922450  0.71303983  1  -1.160649  -6.5e-05  -0.318891  -0.541015  -5.9e-05  2.089375  0.0
O  O219  1  0.58804744  0.85077981  0.78685680  1  -1.158263  -6.3e-05  -0.318941  -0.540331  -5.7e-05  2.090077  0.0
O  O220  1  0.70080513  0.00061685  0.87132666  1  -1.266267  -7e-06  -0.637633  -0.855757  -9e-06  2.011648  0.0
O  O221  1  0.69995318  0.99925697  0.62870685  1  -1.266062  -7e-06  -0.637088  -0.856007  -9e-06  2.010168  0.0
O  O222  1  0.29918108  0.99937698  0.12867451  1  -1.28183  -7e-06  -0.637624  -0.855851  -9e-06  2.011502  0.0
O  O223  1  0.30001837  0.00074116  0.37129481  1  -1.266425  -7e-06  -0.636917  -0.855611  -9e-06  2.010623  0.0
O  O224  1  0.46905794  0.80968086  0.98963956  1  -1.192376  0.001121  -0.406727  -0.66167  0.0006  2.291342  0.001
O  O225  1  0.65922414  0.19018567  0.51026701  1  -1.191117  0.001124  -0.406706  -0.661838  0.000601  2.292401  0.001
O  O226  1  0.53094435  0.19032375  0.01036374  1  -1.192522  0.001122  -0.406703  -0.661623  0.0006  2.291325  0.001
O  O227  1  0.34080737  0.80982236  0.48973176  1  -1.19093  0.001124  -0.406642  -0.661786  0.000601  2.292913  0.001
O  O228  1  0.02000886  0.33711958  0.23353254  1  -1.178597  0.007261  -0.577264  -0.759415  0.004236  1.917795  0.002
O  O229  1  0.68244382  0.66303141  0.26669050  1  -1.222928  0.007301  -0.576479  -0.757995  0.004242  1.920146  0.002
O  O230  1  0.97999822  0.66287167  0.76647684  1  -1.179138  0.007265  -0.577212  -0.759208  0.004237  1.91793  0.002
O  O231  1  0.31755335  0.33696296  0.73330536  1  -1.223156  0.007301  -0.576663  -0.758117  0.004243  1.920092  0.002
O  O232  1  0.71942441  0.10447902  0.98864399  1  -1.195474  -3e-06  -0.399956  -0.667271  3e-06  2.310352  0.0
O  O233  1  0.61525130  0.89560383  0.51134296  1  -1.192948  -2e-06  -0.400172  -0.667875  4e-06  2.312712  0.0
O  O234  1  0.28057254  0.89552559  0.01135931  1  -1.19514  -3e-06  -0.400025  -0.66734  3e-06  2.310249  0.0
O  O235  1  0.38476077  0.10440503  0.48865949  1  -1.192984  -2e-06  -0.40011  -0.667773  4e-06  2.312566  0.0
O  O236  1  0.72273441  0.94305291  0.03831226  1  -1.279189  -7e-06  -0.646138  -0.874535  -6e-06  2.066061  0.0
O  O237  1  0.77969308  0.05700914  0.46156838  1  -1.272983  -7e-06  -0.646449  -0.874335  -6e-06  2.066  0.0
O  O238  1  0.27726264  0.05694733  0.96168829  1  -1.278959  -7e-06  -0.646128  -0.874549  -6e-06  2.06604  0.0
O  O239  1  0.22031050  0.94299501  0.53842099  1  -1.272107  -7e-06  -0.646523  -0.874327  -6e-06  2.066125  0.0
O  O240  1  0.20642196  0.18337034  0.01301234  1  -1.152518  -0.000186  -0.321525  -0.547262  -0.000216  2.067326  0.0
O  O241  1  0.02289542  0.81667024  0.48713463  1  -1.161087  -0.000185  -0.321732  -0.547062  -0.000216  2.068164  0.0
O  O242  1  0.79356391  0.81662433  0.98699250  1  -1.152537  -0.000186  -0.321564  -0.547268  -0.000216  2.067086  0.0
O  O243  1  0.97711471  0.18332712  0.51286515  1  -1.160591  -0.000185  -0.321692  -0.547081  -0.000216  2.068453  0.0
O  O244  1  0.32723853  0.16718368  0.07821381  1  -1.188256  5e-06  -0.4191  -0.665087  -3.6e-05  2.311223  0.0
O  O245  1  0.15982335  0.83311292  0.42192894  1  -1.194668  4e-06  -0.419799  -0.665397  -3.7e-05  2.310769  0.0
O  O246  1  0.67275004  0.83281179  0.92179381  1  -1.187988  5e-06  -0.419175  -0.665183  -3.6e-05  2.311201  0.0
O  O247  1  0.84018265  0.16688077  0.57806774  1  -1.194766  4e-06  -0.419737  -0.665318  -3.7e-05  2.310678  0.0
O  O248  1  0.76105853  0.13930370  0.09122281  1  -1.178155  -9.5e-05  -0.313827  -0.561012  -0.000143  2.10489  0.0
O  O249  1  0.62180913  0.86065575  0.40878397  1  -1.175883  -9.5e-05  -0.314238  -0.561796  -0.000143  2.104795  0.0
O  O250  1  0.23894265  0.86070019  0.90878040  1  -1.178893  -9.5e-05  -0.3139  -0.561031  -0.000143  2.104895  0.0
O  O251  1  0.37820571  0.13935102  0.59122003  1  -1.175978  -9.5e-05  -0.314187  -0.561701  -0.000143  2.104946  0.0
