# generated using pymatgen
data_CoH6(C4N5)2
_symmetry_space_group_name_H-M   'P 1'
_cell_length_a   6.34990759
_cell_length_b   8.32005657
_cell_length_c   10.35693482
_cell_angle_alpha   92.45348660
_cell_angle_beta   90.00003927
_cell_angle_gamma   112.41490555
_symmetry_Int_Tables_number   1
_chemical_formula_structural   CoH6(C4N5)2
_chemical_formula_sum   'Co2 H12 C16 N20'
_cell_volume   505.29004303
_cell_formula_units_Z   2
loop_
 _symmetry_equiv_pos_site_id
 _symmetry_equiv_pos_as_xyz
  1  'x, y, z'
loop_
 _atom_site_type_symbol
 _atom_site_label
 _atom_site_symmetry_multiplicity
 _atom_site_fract_x
 _atom_site_fract_y
 _atom_site_fract_z
 _atom_site_occupancy
 _atom_site_hle17_ddec_charge
 _atom_site_hle17_ddec_spin_density
 _atom_site_hle17_ddec_sum_bond_order
 _atom_site_hle17_magmom
 _atom_site_hse06_10hf_ddec_charge
 _atom_site_hse06_10hf_ddec_spin_density
 _atom_site_hse06_10hf_ddec_sum_bond_order
 _atom_site_hse06_10hf_magmom
 _atom_site_hse06_ddec_charge
 _atom_site_hse06_ddec_spin_density
 _atom_site_hse06_ddec_sum_bond_order
 _atom_site_hse06_magmom
 _atom_site_pbe_cm5_charge
 _atom_site_pbe_ddec_charge
 _atom_site_pbe_ddec_spin_density
 _atom_site_pbe_ddec_sum_bond_order
 _atom_site_pbe_magmom
Co  Co0  1  0.50000307  0.49999672  0.99999691  1  0.735369  2.959987  2.599092  2.415  0.532861  1.102578  3.133151  0.975  0.600201  1.111684  3.065251  0.981  0.662592  0.502113  1.083815  3.168624  0.952
Co  Co1  1  0.99999919  0.50000048  0.50000013  1  0.735473  -2.959973  2.598681  -2.415  0.532753  -1.102508  3.133231  -0.975  0.60026  -1.111622  3.06525  -0.981  0.662765  0.502156  -1.083683  3.168661  -0.952
H  H2  1  0.82041531  0.12055224  0.57014172  1  0.085171  -0.001063  0.986892  -0.002  0.094069  -2.4e-05  1.054583  0.0  0.096427  1.3e-05  1.051288  0.0  0.126769  0.092032  -7.4e-05  1.057748  0.0
H  H3  1  0.69951223  0.87923121  0.92978571  1  0.08538  0.001063  0.98655  0.002  0.093897  2.4e-05  1.054438  0.0  0.096227  -1.3e-05  1.051209  0.0  0.126814  0.091901  7.5e-05  1.057529  0.0
H  H4  1  0.17959816  0.87945231  0.42986152  1  0.085135  -0.001064  0.986917  -0.002  0.094103  -2.4e-05  1.054513  0.0  0.096462  1.3e-05  1.051219  0.0  0.126793  0.092067  -7.4e-05  1.057679  0.0
H  H5  1  0.30048632  0.12076553  0.07021707  1  0.085339  0.001063  0.98661  0.002  0.093857  2.4e-05  1.054516  0.0  0.09619  -1.3e-05  1.051279  0.0  0.126793  0.091863  7.5e-05  1.05761  0.0
H  H6  1  0.47623837  0.12344184  0.92527103  1  0.077594  -0.000223  0.988909  -0.001  0.084309  0.000319  1.060686  0.0  0.087102  0.000229  1.055062  0.0  0.11852  0.08205  0.000414  1.065497  0.001
H  H7  1  0.35279869  0.87637996  0.57453373  1  0.077721  0.000222  0.988004  0.001  0.084358  -0.000318  1.059902  0.0  0.08717  -0.000229  1.054302  0.0  0.118247  0.08209  -0.000412  1.06471  -0.001
H  H8  1  0.52375610  0.87654987  0.07472759  1  0.077644  -0.000224  0.988855  -0.001  0.084363  0.000319  1.060612  0.0  0.087157  0.000229  1.05499  0.0  0.118515  0.082104  0.000414  1.065424  0.001
H  H9  1  0.64720562  0.12361570  0.42546415  1  0.077766  0.000222  0.987986  0.001  0.084382  -0.000318  1.059919  0.0  0.087192  -0.000229  1.054317  0.0  0.118254  0.082116  -0.000412  1.064722  -0.001
H  H10  1  0.84413785  0.58509200  0.74873864  1  0.080088  4.5e-05  0.961797  -0.001  0.083536  9.5e-05  1.033924  0.0  0.086152  -1.4e-05  1.030513  0.0  0.132215  0.081413  0.000192  1.036848  0.0
H  H11  1  0.25901555  0.41471802  0.75121518  1  0.080044  -4.4e-05  0.961797  0.001  0.083708  -9.4e-05  1.033813  0.0  0.086324  1.4e-05  1.030392  0.0  0.132331  0.081581  -0.000192  1.036763  0.0
H  H12  1  0.15584184  0.41490481  0.25126221  1  0.080061  4.4e-05  0.961808  -0.001  0.083475  9.5e-05  1.033985  0.0  0.086085  -1.4e-05  1.030586  0.0  0.132175  0.081352  0.000192  1.036913  0.0
H  H13  1  0.74098935  0.58527881  0.24878567  1  0.080031  -4.2e-05  0.961796  0.001  0.083711  -9.5e-05  1.033812  0.0  0.086329  1.4e-05  1.03039  0.0  0.132346  0.081589  -0.000192  1.036763  0.0
C  C14  1  0.77317186  0.18840962  0.65010115  1  0.125814  0.014273  3.616517  0.018  0.078758  0.002145  3.86147  0.003  0.094472  0.001145  3.872718  0.002  0.067278  0.067247  0.002159  3.856  0.003
C  C15  1  0.58451458  0.81138791  0.84983068  1  0.125194  -0.014234  3.618854  -0.018  0.079154  -0.002144  3.862806  -0.003  0.094847  -0.001143  3.874007  -0.002  0.067051  0.067651  -0.002143  3.857336  -0.003
C  C16  1  0.22683336  0.81159103  0.34990185  1  0.125774  0.014278  3.616583  0.018  0.078689  0.002147  3.861513  0.003  0.094391  0.001145  3.872758  0.002  0.067232  0.06718  0.002161  3.856039  0.003
C  C17  1  0.41548561  0.18860896  0.15016920  1  0.125224  -0.014239  3.618927  -0.018  0.079169  -0.002143  3.862929  -0.003  0.094867  -0.001143  3.874131  -0.002  0.067037  0.067665  -0.002141  3.857463  -0.003
C  C18  1  0.64589819  0.09556408  0.75097393  1  -0.012058  -0.009943  3.75724  -0.014  0.009278  5.5e-05  3.9855  0.0  0.000696  0.000341  4.006833  0.0  0.009135  0.014357  0.000273  3.97299  0.0
C  C19  1  0.55024242  0.90426168  0.74892165  1  -0.011976  0.009932  3.756932  0.014  0.009166  -5.7e-05  3.984976  0.0  0.000585  -0.000342  4.006317  0.0  0.008817  0.0143  -0.000299  3.972365  0.0
C  C20  1  0.35410168  0.90443531  0.24902804  1  -0.012082  -0.009951  3.757193  -0.014  0.009277  5.4e-05  3.985459  0.0  0.000693  0.000342  4.006799  0.0  0.009123  0.014357  0.000272  3.972948  0.0
C  C21  1  0.44976473  0.09573650  0.25107832  1  -0.01192  0.009938  3.756952  0.014  0.009175  -5.7e-05  3.985023  0.0  0.000594  -0.000343  4.006364  0.0  0.008785  0.014305  -0.0003  3.972421  0.0
C  C22  1  0.58929858  0.19042100  0.84948267  1  0.149542  0.018537  3.641003  0.022  0.106043  0.002965  3.893058  0.003  0.12304  0.001093  3.901668  0.001  0.072646  0.093401  0.00407  3.888981  0.004
C  C23  1  0.39879582  0.80939732  0.65040026  1  0.149299  -0.018535  3.640497  -0.022  0.105756  -0.00297  3.892416  -0.003  0.122693  -0.001095  3.901106  -0.001  0.073218  0.093145  -0.004093  3.888244  -0.004
C  C24  1  0.41069712  0.80957319  0.15051899  1  0.149397  0.018547  3.641098  0.022  0.105893  0.002966  3.893116  0.003  0.122884  0.001093  3.901731  0.001  0.072587  0.093253  0.004072  3.889036  0.004
C  C25  1  0.60120690  0.19059829  0.34959859  1  0.149153  -0.018537  3.640605  -0.022  0.105667  -0.002969  3.892458  -0.003  0.122603  -0.001093  3.901135  -0.001  0.073208  0.093055  -0.004091  3.888286  -0.004
C  C26  1  0.78551748  0.44420267  0.75057575  1  0.296575  0.015328  3.614066  0.019  0.236102  0.003024  3.880751  0.003  0.256745  0.001472  3.88776  0.001  0.182257  0.22183  0.003872  3.877626  0.004
C  C27  1  0.34118736  0.55561981  0.74938963  1  0.296194  -0.015331  3.613334  -0.019  0.235271  -0.003036  3.880539  -0.003  0.255921  -0.001476  3.887517  -0.001  0.181683  0.220971  -0.003919  3.877448  -0.004
C  C28  1  0.21447162  0.55579406  0.24942703  1  0.296639  0.015334  3.613918  0.019  0.236086  0.003026  3.880779  0.003  0.256718  0.001474  3.887784  0.001  0.182196  0.221812  0.003874  3.877656  0.004
C  C29  1  0.65881313  0.44437451  0.25060914  1  0.296266  -0.015336  3.613416  -0.019  0.235289  -0.003035  3.880687  -0.003  0.255929  -0.001475  3.887669  -0.001  0.18169  0.220978  -0.003917  3.877603  -0.004
N  N30  1  0.83953462  0.36310469  0.64704858  1  -0.330043  -0.03986  3.351283  -0.061  -0.220002  0.003066  3.605659  0.005  -0.249103  0.003565  3.619987  0.006  -0.321695  -0.204021  0.002452  3.597505  0.004
N  N31  1  0.47626737  0.63673953  0.85290037  1  -0.329218  0.039849  3.352147  0.061  -0.219547  -0.003087  3.606318  -0.005  -0.248573  -0.003585  3.62059  -0.006  -0.321297  -0.203544  -0.002479  3.598139  -0.004
N  N32  1  0.16046335  0.63689721  0.35295547  1  -0.329931  -0.039863  3.351088  -0.061  -0.219892  0.003066  3.605551  0.005  -0.248956  0.003565  3.619845  0.006  -0.321593  -0.203909  0.002453  3.597392  0.004
N  N33  1  0.52373755  0.36325735  0.14709952  1  -0.329199  0.03985  3.352172  0.061  -0.219556  -0.003086  3.606429  -0.005  -0.248588  -0.003586  3.620714  -0.006  -0.32126  -0.203552  -0.002478  3.598257  -0.004
N  N34  1  0.66230309  0.36424999  0.85027252  1  -0.316353  0.020198  3.194265  0.031  -0.247808  0.026613  3.462092  0.04  -0.270798  0.022911  3.471632  0.034  -0.294042  -0.232769  0.031164  3.456427  0.046
N  N35  1  0.29791301  0.63553532  0.64962833  1  -0.315817  -0.020209  3.19376  -0.031  -0.246921  -0.026625  3.461418  -0.04  -0.269896  -0.022929  3.470985  -0.034  -0.29388  -0.231935  -0.031186  3.455824  -0.046
N  N36  1  0.33768508  0.63574172  0.14972609  1  -0.316286  0.020185  3.194249  0.031  -0.247643  0.026608  3.462037  0.04  -0.270623  0.022906  3.47157  0.034  -0.293909  -0.232603  0.031158  3.456369  0.046
N  N37  1  0.70208908  0.36445904  0.35036947  1  -0.315806  -0.020205  3.193849  -0.031  -0.246887  -0.026626  3.461468  -0.04  -0.269847  -0.02293  3.471024  -0.034  -0.293869  -0.231896  -0.031187  3.455873  -0.046
N  N38  1  0.95696719  0.75606570  0.98805121  1  0.377613  -0.010575  4.196213  -0.023  0.420268  4.8e-05  4.49872  0.001  0.438509  0.00063  4.53494  0.002  0.077985  0.408278  -0.00032  4.473159  0.0
N  N39  1  0.20097021  0.24391280  0.51194811  1  0.377244  0.010578  4.198245  0.023  0.420203  -4.9e-05  4.500101  -0.001  0.438448  -0.000634  4.536324  -0.002  0.078075  0.408219  0.00032  4.474538  0.0
N  N40  1  0.04305056  0.24394745  0.01193515  1  0.377583  -0.010593  4.195992  -0.023  0.420232  4.9e-05  4.498512  0.001  0.438473  0.000631  4.534735  0.002  0.078022  0.408241  -0.00032  4.472956  0.0
N  N41  1  0.79902687  0.75610626  0.48805115  1  0.377094  0.010562  4.198334  0.023  0.41995  -4.8e-05  4.500332  -0.001  0.438187  -0.000634  4.536565  -0.002  0.078041  0.407966  0.00032  4.474768  0.0
N  N42  1  0.79626330  0.67378145  0.05096532  1  -0.505652  0.026665  2.827855  0.035  -0.497917  -0.003141  3.167596  -0.006  -0.532466  -0.000676  3.179154  -0.003  -0.297628  -0.475887  -0.003196  3.158343  -0.006
N  N43  1  0.12260164  0.32621644  0.44900892  1  -0.505  -0.026603  2.830797  -0.035  -0.497643  0.003138  3.170669  0.006  -0.532196  0.000664  3.182233  0.003  -0.297551  -0.475599  0.00319  3.161324  0.006
N  N44  1  0.20373575  0.32621313  0.94902767  1  -0.505403  0.026583  2.828209  0.035  -0.497657  -0.003133  3.167929  -0.006  -0.532193  -0.000665  3.179503  -0.003  -0.297577  -0.475623  -0.00319  3.158653  -0.006
N  N45  1  0.87739894  0.67378437  0.55099024  1  -0.505078  -0.026678  2.830197  -0.035  -0.497718  0.003143  3.170166  0.006  -0.532286  0.000671  3.181737  0.003  -0.297646  -0.475663  0.003194  3.16081  0.006
N  N46  1  0.11971498  0.84431002  0.93387865  1  -0.396183  0.106696  2.386517  0.146  -0.413231  -0.007851  2.631562  -0.011  -0.43106  -0.010726  2.647813  -0.015  -0.204718  -0.39925  -0.006628  2.619577  -0.009
N  N47  1  0.27546091  0.15563290  0.56617364  1  -0.396622  -0.106752  2.385517  -0.146  -0.413637  0.007865  2.630501  0.011  -0.431531  0.010751  2.646819  0.015  -0.204909  -0.399629  0.006688  2.618448  0.009
N  N48  1  0.88027534  0.15569863  0.06612000  1  -0.396452  0.106774  2.385945  0.146  -0.413489  -0.007855  2.630988  -0.011  -0.431334  -0.010733  2.647248  -0.015  -0.204853  -0.399491  -0.006632  2.618988  -0.009
N  N49  1  0.72455056  0.84438028  0.43384074  1  -0.396341  -0.106673  2.386226  -0.146  -0.413261  0.007862  2.631189  0.011  -0.431123  0.010747  2.647485  0.015  -0.204768  -0.399266  0.006686  2.61914  0.009
