# generated using pymatgen
data_Zn2H26C51(O2F3)6
_symmetry_space_group_name_H-M   'P 1'
_cell_length_a   7.15672682
_cell_length_b   18.98510713
_cell_length_c   20.60167016
_cell_angle_alpha   106.26024525
_cell_angle_beta   89.99984779
_cell_angle_gamma   90.00006677
_symmetry_Int_Tables_number   1
_chemical_formula_structural   Zn2H26C51(O2F3)6
_chemical_formula_sum   'Zn4 H52 C102 O24 F36'
_cell_volume   2687.20664671
_cell_formula_units_Z   2
loop_
 _symmetry_equiv_pos_site_id
 _symmetry_equiv_pos_as_xyz
  1  'x, y, z'
loop_
 _atom_site_type_symbol
 _atom_site_label
 _atom_site_symmetry_multiplicity
 _atom_site_fract_x
 _atom_site_fract_y
 _atom_site_fract_z
 _atom_site_occupancy
 _atom_site_pbe_bader_charge
 _atom_site_pbe_bader_spin_density
 _atom_site_pbe_cm5_charge
 _atom_site_pbe_ddec_charge
 _atom_site_pbe_ddec_spin_density
 _atom_site_pbe_ddec_sum_bond_order
 _atom_site_pbe_magmom
Zn  Zn0  1  0.32305754  0.47356033  0.02470353  1  1.342936  0  0.688536  0.939958  0  2.2777  0
Zn  Zn1  1  0.32306071  0.02643686  0.47529567  1  1.342833  0  0.688526  0.939924  0  2.277858  0
Zn  Zn2  1  0.67694062  0.52644062  0.97529479  1  1.343158  0  0.688542  0.94  0  2.277645  0
Zn  Zn3  1  0.67694443  0.97356134  0.52470337  1  1.343178  0  0.688495  0.939861  0  2.277904  0
H  H4  1  0.40565372  0.33697657  0.03036793  1  0.661321  0  0.30394  0.36362  0  0.987611  0
H  H5  1  0.40565317  0.16302172  0.46963439  1  0.661156  0  0.303922  0.363587  0  0.987619  0
H  H6  1  0.59434723  0.66302219  0.96962980  1  0.661318  0  0.303947  0.363652  0  0.987556  0
H  H7  1  0.59434359  0.83697755  0.53036931  1  0.661475  0  0.30394  0.363608  0  0.987608  0
H  H8  1  0.17053880  0.22359315  0.10472404  1  0.141658  0  0.101083  0.110993  0  1.027676  0
H  H9  1  0.17053916  0.27640344  0.39527902  1  0.141743  0  0.101059  0.110941  0  1.027742  0
H  H10  1  0.82946355  0.77640560  0.89527515  1  0.141709  0  0.10103  0.110955  0  1.027728  0
H  H11  1  0.82946039  0.72359419  0.60472278  1  0.14166  0  0.10103  0.110951  0  1.027697  0
H  H12  1  0.96205950  0.18331075  0.18249343  1  0.121987  0  0.098974  0.11306  0  1.020932  0
H  H13  1  0.96205779  0.31668926  0.31751174  1  0.122048  0  0.098985  0.11303  0  1.020907  0
H  H14  1  0.03794844  0.81668909  0.81750701  1  0.121991  0  0.09899  0.113069  0  1.020921  0
H  H15  1  0.03794735  0.68331057  0.68249016  1  0.122021  0  0.09899  0.113051  0  1.020895  0
H  H16  1  0.62594656  0.37795083  0.20487375  1  0.100021  0  0.097272  0.105365  0  1.034192  0
H  H17  1  0.62593884  0.12205020  0.29513443  1  0.100248  0  0.097286  0.105379  0  1.034187  0
H  H18  1  0.37405998  0.62204845  0.79512850  1  0.099981  0  0.097276  0.105351  0  1.034193  0
H  H19  1  0.37405932  0.87795017  0.70486810  1  0.100056  0  0.097288  0.105359  0  1.034171  0
H  H20  1  0.84409831  0.41961137  0.13113453  1  0.101502  0  0.105886  0.10851  0  1.028347  0
H  H21  1  0.84409408  0.08038807  0.36887157  1  0.101651  0  0.105896  0.108542  0  1.028462  0
H  H22  1  0.15590403  0.58038737  0.86886611  1  0.101455  0  0.105878  0.108493  0  1.028345  0
H  H23  1  0.15590128  0.91961230  0.63113241  1  0.101454  0  0.105895  0.108523  0  1.028316  0
H  H24  1  0.01792740  0.40770998  0.83925508  1  0.125414  0  0.110165  0.119689  0  1.004705  0
H  H25  1  0.01793458  0.09228939  0.66074467  1  0.125438  0  0.110182  0.119688  0  1.004804  0
H  H26  1  0.98207216  0.59228875  0.16074605  1  0.12546  0  0.110177  0.11969  0  1.004771  0
H  H27  1  0.98207336  0.90770991  0.33925370  1  0.125398  0  0.110187  0.119709  0  1.004719  0
H  H28  1  0.88143708  0.38806510  0.72500413  1  0.083438  0  0.104239  0.113248  0  0.99672  0
H  H29  1  0.88144485  0.11193332  0.77499505  1  0.083539  0  0.104259  0.113292  0  0.996753  0
H  H30  1  0.11856247  0.61193254  0.27499573  1  0.083466  0  0.104277  0.113279  0  0.996682  0
H  H31  1  0.11856029  0.88806434  0.22500240  1  0.083532  0  0.104239  0.113237  0  0.996771  0
H  H32  1  0.39060414  0.46870894  0.65857301  1  0.10724  0  0.090361  0.098117  0  1.054576  0
H  H33  1  0.39060416  0.03129214  0.84142781  1  0.107698  0  0.090371  0.098132  0  1.05463  0
H  H34  1  0.60939122  0.53129310  0.34142753  1  0.107702  0  0.090354  0.098129  0  1.054645  0
H  H35  1  0.60939679  0.96870824  0.15857278  1  0.10717  0  0.090358  0.098133  0  1.054626  0
H  H36  1  0.52792908  0.48291623  0.77119444  1  0.094361  0  0.104163  0.114395  0  1.003557  0
H  H37  1  0.52793271  0.01708267  0.72880713  1  0.09435  0  0.104176  0.114414  0  1.003451  0
H  H38  1  0.47206768  0.51708691  0.22880541  1  0.094334  0  0.104177  0.114387  0  1.003502  0
H  H39  1  0.47206964  0.98291606  0.27119448  1  0.094345  0  0.104169  0.114396  0  1.003527  0
H  H40  1  0.16716247  0.28956069  0.62230620  1  0.079658  0  0.104559  0.113465  0  0.994536  0
H  H41  1  0.16716556  0.21043983  0.87769080  1  0.079748  0  0.104621  0.113526  0  0.994406  0
H  H42  1  0.83283429  0.71043972  0.37769149  1  0.079757  0  0.104627  0.11354  0  0.994394  0
H  H43  1  0.83283399  0.78956004  0.12230528  1  0.07942  0  0.104567  0.11347  0  0.994525  0
H  H44  1  0.02935222  0.16502245  0.58290482  1  0.135007  0  0.107838  0.116987  0  1.024081  0
H  H45  1  0.02935819  0.33497693  0.91709395  1  0.134967  0  0.107819  0.116981  0  1.024098  0
H  H46  1  0.97064454  0.83497686  0.41709306  1  0.134984  0  0.107814  0.116969  0  1.024079  0
H  H47  1  0.97064136  0.66502183  0.08290234  1  0.135034  0  0.107833  0.117007  0  1.024072  0
H  H48  1  0.53553652  0.25774555  0.51952036  1  0.111357  0  0.104879  0.109709  0  1.03052  0
H  H49  1  0.53554591  0.24225720  0.98048173  1  0.111417  0  0.104899  0.109726  0  1.030485  0
H  H50  1  0.46445465  0.74225375  0.48047897  1  0.111454  0  0.104886  0.109722  0  1.030487  0
H  H51  1  0.46445923  0.75774429  0.01951866  1  0.111633  0  0.104871  0.10969  0  1.030526  0
H  H52  1  0.67368632  0.37932110  0.55457485  1  0.095357  0  0.094499  0.105486  0  1.035509  0
H  H53  1  0.67369281  0.12068058  0.94542587  1  0.095566  0  0.094485  0.105421  0  1.035546  0
H  H54  1  0.32630345  0.62067819  0.44542497  1  0.09606  0  0.094471  0.105406  0  1.035568  0
H  H55  1  0.32631093  0.87932091  0.05457453  1  0.095518  0  0.094476  0.105417  0  1.035558  0
C  C56  1  0.16183961  0.35427313  0.07502056  1  1.51159  0  0.248111  0.598177  0  4.076352  0
C  C57  1  0.16183934  0.14572457  0.42498134  1  1.511589  0  0.248081  0.598251  0  4.076325  0
C  C58  1  0.83816274  0.64572453  0.92497785  1  1.51146  0  0.248106  0.598197  0  4.076482  0
C  C59  1  0.83816021  0.85427526  0.57502008  1  1.51203  0  0.248063  0.598162  0  4.076339  0
C  C60  1  0.02360303  0.32527053  0.11440423  1  -0.010162  0  -0.017929  -0.055921  0  3.997231  0
C  C61  1  0.02360036  0.17472768  0.38559939  1  -0.010132  0  -0.018021  -0.055974  0  3.997491  0
C  C62  1  0.97640071  0.67472821  0.88559593  1  -0.01016  0  -0.017988  -0.055967  0  3.997402  0
C  C63  1  0.97639779  0.82527215  0.61440202  1  -0.010177  0  -0.017993  -0.056027  0  3.997381  0
C  C64  1  0.05253650  0.25752234  0.12747003  1  0.009012  0  -0.078168  -0.065447  0  3.941479  0
C  C65  1  0.05253414  0.24247642  0.37253420  1  0.008594  0  -0.078044  -0.065229  0  3.941574  0
C  C66  1  0.94746865  0.74247695  0.87252979  1  0.008688  0  -0.07806  -0.065292  0  3.941594  0
C  C67  1  0.94746542  0.75752286  0.62746756  1  0.008742  0  -0.078043  -0.065258  0  3.941671  0
C  C68  1  0.93373103  0.23484726  0.17099626  1  -0.064579  0  -0.090129  -0.127066  0  3.946389  0
C  C69  1  0.93372488  0.26515329  0.32900956  1  -0.064011  0  -0.090209  -0.127204  0  3.946436  0
C  C70  1  0.06627691  0.76515312  0.82900578  1  -0.064198  0  -0.090188  -0.127198  0  3.946478  0
C  C71  1  0.06627467  0.73484655  0.67099088  1  -0.063869  0  -0.090212  -0.12721  0  3.946551  0
C  C72  1  0.78124368  0.27833386  0.20107585  1  -0.060969  0  -0.008883  0.096398  0  3.926012  0
C  C73  1  0.78124042  0.22166665  0.29893157  1  -0.060393  0  -0.008816  0.096639  0  3.92599  0
C  C74  1  0.21876426  0.72166652  0.79892620  1  -0.060522  0  -0.008858  0.096543  0  3.925941  0
C  C75  1  0.21876053  0.77833372  0.70107145  1  -0.060541  0  -0.00878  0.096658  0  3.925961  0
C  C76  1  0.74585895  0.34382487  0.18438120  1  -0.008276  0  -0.092586  -0.130432  0  3.95082  0
C  C77  1  0.74584698  0.15617673  0.31562702  1  -0.009453  0  -0.092622  -0.13054  0  3.950838  0
C  C78  1  0.25415039  0.65617551  0.81562133  1  -0.008718  0  -0.09264  -0.130498  0  3.950795  0
C  C79  1  0.25414699  0.84382419  0.68437614  1  -0.00876  0  -0.092653  -0.130523  0  3.950795  0
C  C80  1  0.86751951  0.36746512  0.14206312  1  -0.028108  0  -0.074458  -0.061598  0  3.933806  0
C  C81  1  0.86751413  0.13253486  0.35794407  1  -0.027943  0  -0.074411  -0.061658  0  3.934028  0
C  C82  1  0.13248423  0.63253416  0.85793766  1  -0.028128  0  -0.074396  -0.061571  0  3.933859  0
C  C83  1  0.13248402  0.86746551  0.64205991  1  -0.028161  0  -0.074388  -0.061548  0  3.933733  0
C  C84  1  0.65850018  0.25000052  0.25000383  1  0.029878  0  -0.009659  -0.274584  0  3.840104  0
C  C85  1  0.34150496  0.75000041  0.74999836  1  0.029853  0  -0.0096  -0.274619  0  3.8402  0
C  C86  1  0.53154977  0.18874342  0.20472781  1  1.726663  0  0.302356  0.67417  0  3.976735  0
C  C87  1  0.53154961  0.31125870  0.29527929  1  1.726122  0  0.30257  0.674691  0  3.976086  0
C  C88  1  0.46845258  0.81125861  0.79527370  1  1.726522  0  0.30237  0.674246  0  3.976737  0
C  C89  1  0.46845414  0.68874168  0.70472276  1  1.726083  0  0.302535  0.674489  0  3.976089  0
C  C90  1  0.36354901  0.46090076  0.88125777  1  1.563645  0  0.218631  0.59244  0  4.183675  0
C  C91  1  0.36355495  0.03909757  0.61874187  1  1.563165  0  0.218571  0.592348  0  4.183586  0
C  C92  1  0.63644775  0.53909908  0.11874170  1  1.563525  0  0.218638  0.592416  0  4.183749  0
C  C93  1  0.63644879  0.96090008  0.38125703  1  1.563544  0  0.218628  0.592482  0  4.183399  0
C  C94  1  0.28240741  0.44586048  0.81189207  1  -0.034469  0  -0.017512  -0.040231  0  3.980318  0
C  C95  1  0.28241426  0.05413784  0.68810715  1  -0.034564  0  -0.01755  -0.040337  0  3.980349  0
C  C96  1  0.71759215  0.55413772  0.18810697  1  -0.03485  0  -0.017446  -0.040146  0  3.980307  0
C  C97  1  0.71759228  0.94586036  0.31189189  1  -0.034839  0  -0.017526  -0.040295  0  3.980302  0
C  C98  1  0.09965208  0.41926521  0.79879195  1  -0.072077  0  -0.076531  -0.072755  0  3.943543  0
C  C99  1  0.09966032  0.08073417  0.70120821  1  -0.071992  0  -0.076599  -0.072782  0  3.943786  0
C  C100  1  0.90034747  0.58073297  0.20120855  1  -0.07162  0  -0.076601  -0.072876  0  3.943733  0
C  C101  1  0.90034483  0.91926458  0.29879049  1  -0.071636  0  -0.076598  -0.072883  0  3.943729  0
C  C102  1  0.02296083  0.40945717  0.73493356  1  0.010177  0  -0.090791  -0.129151  0  3.965711  0
C  C103  1  0.02297000  0.09054276  0.76506536  1  0.010312  0  -0.090764  -0.129133  0  3.965808  0
C  C104  1  0.97703593  0.59054212  0.26506675  1  0.010006  0  -0.090817  -0.129122  0  3.965778  0
C  C105  1  0.97703654  0.90945600  0.23493286  1  0.01002  0  -0.090747  -0.129008  0  3.965735  0
C  C106  1  0.12525083  0.42734456  0.68349915  1  -0.059604  0  -0.015931  0.085229  0  3.953706  0
C  C107  1  0.12525676  0.07265538  0.81650064  1  -0.059886  0  -0.015919  0.085225  0  3.953798  0
C  C108  1  0.87474593  0.57265528  0.31650081  1  -0.059718  0  -0.015872  0.085333  0  3.953808  0
C  C109  1  0.87474559  0.92734337  0.18349855  1  -0.059714  0  -0.015904  0.08524  0  3.953749  0
C  C110  1  0.30778678  0.45375471  0.69684427  1  -0.047777  0  -0.099962  -0.142515  0  3.99132  0
C  C111  1  0.30779133  0.04624636  0.80315566  1  -0.048266  0  -0.099987  -0.142629  0  3.991498  0
C  C112  1  0.69220858  0.54624568  0.30315535  1  -0.048229  0  -0.100011  -0.142728  0  3.991466  0
C  C113  1  0.69221102  0.95375348  0.19684430  1  -0.047623  0  -0.100001  -0.142687  0  3.991432  0
C  C114  1  0.38601645  0.46223343  0.76042344  1  -0.011363  0  -0.0834  -0.080298  0  3.962499  0
C  C115  1  0.38602146  0.03776819  0.73957753  1  -0.0113  0  -0.08337  -0.080188  0  3.962231  0
C  C116  1  0.61398171  0.53776751  0.23957632  1  -0.011235  0  -0.083406  -0.080193  0  3.962393  0
C  C117  1  0.61398089  0.96223274  0.26042321  1  -0.011312  0  -0.083366  -0.080154  0  3.962284  0
C  C118  1  0.02641819  0.41897776  0.61553466  1  0.062293  0  -0.010966  -0.271787  0  3.856511  0
C  C119  1  0.02642083  0.08102217  0.88446473  1  0.062288  0  -0.011016  -0.271771  0  3.85645  0
C  C120  1  0.97357578  0.58102208  0.38446530  1  0.061976  0  -0.010984  -0.271817  0  3.856585  0
C  C121  1  0.97358012  0.91897768  0.11553426  1  0.062301  0  -0.011039  -0.271908  0  3.856557  0
C  C122  1  0.16232133  0.42246733  0.55723678  1  1.714753  0  0.303123  0.67595  0  3.969478  0
C  C123  1  0.16232490  0.07753372  0.94276328  1  1.714741  0  0.303103  0.676041  0  3.969219  0
C  C124  1  0.83766984  0.57753362  0.44276299  1  1.715487  0  0.30305  0.675983  0  3.969284  0
C  C125  1  0.83767465  0.92246777  0.05723712  1  1.714763  0  0.303109  0.67602  0  3.96944  0
C  C126  1  0.88693453  0.48472360  0.62744650  1  1.71627  0  0.30241  0.674055  0  3.970595  0
C  C127  1  0.88693846  0.01527702  0.87255374  1  1.715982  0  0.302344  0.673959  0  3.970649  0
C  C128  1  0.11305943  0.51527679  0.37255457  1  1.7159  0  0.302335  0.673913  0  3.970705  0
C  C129  1  0.11306249  0.98472282  0.12744719  1  1.716196  0  0.302378  0.674072  0  3.970643  0
C  C130  1  0.93003656  0.34375657  0.59213165  1  -0.034225  0  -0.015245  0.084877  0  3.955111  0
C  C131  1  0.93003925  0.15624297  0.90786682  1  -0.034074  0  -0.015233  0.084898  0  3.955131  0
C  C132  1  0.06995741  0.65624218  0.40786657  1  -0.03394  0  -0.0152  0.084983  0  3.955298  0
C  C133  1  0.06996310  0.84375688  0.09213169  1  -0.034178  0  -0.015225  0.084946  0  3.955098  0
C  C134  1  0.02892058  0.28246262  0.59930936  1  -0.039512  0  -0.089963  -0.123612  0  3.964858  0
C  C135  1  0.02892771  0.21753731  0.90069003  1  -0.039115  0  -0.090004  -0.123724  0  3.964839  0
C  C136  1  0.97107339  0.71753668  0.40068997  1  -0.039139  0  -0.090015  -0.123772  0  3.964829  0
C  C137  1  0.97107324  0.78246200  0.09930785  1  -0.039288  0  -0.089936  -0.123623  0  3.96482  0
C  C138  1  0.95191373  0.21263244  0.57778720  1  -0.047065  0  -0.080637  -0.082299  0  3.955243  0
C  C139  1  0.95192091  0.28736764  0.92221284  1  -0.047679  0  -0.080639  -0.082238  0  3.955551  0
C  C140  1  0.04808163  0.78736686  0.42221165  1  -0.047665  0  -0.080593  -0.08215  0  3.955464  0
C  C141  1  0.04808144  0.71263222  0.07778421  1  -0.047104  0  -0.080616  -0.082236  0  3.955497  0
C  C142  1  0.77269083  0.20277905  0.54920346  1  -0.010542  0  -0.01897  -0.044043  0  3.985221  0
C  C143  1  0.77269922  0.29722265  0.95079572  1  -0.010568  0  -0.019041  -0.044212  0  3.985467  0
C  C144  1  0.22730314  0.79722135  0.45079519  1  -0.010547  0  -0.018992  -0.044164  0  3.98556  0
C  C145  1  0.22730173  0.70277776  0.04920196  1  -0.010504  0  -0.019005  -0.044188  0  3.985525  0
C  C146  1  0.67468106  0.26368208  0.54151954  1  -0.056435  0  -0.08357  -0.078794  0  3.952693  0
C  C147  1  0.67468781  0.23631904  0.95848152  1  -0.056393  0  -0.083502  -0.078668  0  3.952567  0
C  C148  1  0.32531290  0.73631666  0.45847965  1  -0.0564  0  -0.083534  -0.07873  0  3.952615  0
C  C149  1  0.32531454  0.76368191  0.04151631  1  -0.056742  0  -0.083516  -0.078652  0  3.952522  0
C  C150  1  0.75312477  0.33351498  0.56219395  1  -0.042215  0  -0.096057  -0.133192  0  3.977138  0
C  C151  1  0.75313146  0.16648671  0.93780670  1  -0.042381  0  -0.096078  -0.133161  0  3.977249  0
C  C152  1  0.24686640  0.66648487  0.43780504  1  -0.043072  0  -0.096087  -0.133168  0  3.977376  0
C  C153  1  0.24686949  0.83351424  0.06219210  1  -0.042332  0  -0.096064  -0.133191  0  3.977208  0
C  C154  1  0.68972130  0.12765196  0.52888564  1  1.574925  0  0.225513  0.603546  0  4.143757  0
C  C155  1  0.68972557  0.37234920  0.97111153  1  1.5747  0  0.225572  0.60371  0  4.143488  0
C  C156  1  0.31027546  0.87234735  0.47111224  1  1.574717  0  0.225498  0.603539  0  4.143821  0
C  C157  1  0.31027957  0.62765286  0.02888513  1  1.574729  0  0.225506  0.603561  0  4.143727  0
O  O158  1  0.13801181  0.41528381  0.06371176  1  -1.155156  0  -0.278976  -0.477799  0  2.297117  0
O  O159  1  0.13801546  0.08471333  0.43629002  1  -1.155272  0  -0.278945  -0.477868  0  2.297186  0
O  O160  1  0.86199054  0.58471494  0.93628694  1  -1.154668  0  -0.278963  -0.477813  0  2.297295  0
O  O161  1  0.86199387  0.91528543  0.56370772  1  -1.155283  0  -0.278979  -0.47784  0  2.297161  0
O  O162  1  0.30934700  0.31243209  0.05522456  1  -1.182825  0  -0.317108  -0.469583  0  2.331548  0
O  O163  1  0.30934531  0.18756618  0.44477736  1  -1.182618  0  -0.317115  -0.469591  0  2.331527  0
O  O164  1  0.69065396  0.68756557  0.94477191  1  -1.183189  0  -0.317136  -0.469641  0  2.331507  0
O  O165  1  0.69065145  0.81243638  0.55522817  1  -1.183364  0  -0.317074  -0.46952  0  2.331522  0
O  O166  1  0.26436939  0.44367058  0.92595624  1  -1.154552  0  -0.30887  -0.540121  0  2.349981  0
O  O167  1  0.26437294  0.05632719  0.57404334  1  -1.154493  0  -0.308857  -0.540053  0  2.34995  0
O  O168  1  0.73563156  0.55632817  0.07404295  1  -1.154472  0  -0.308882  -0.540138  0  2.350024  0
O  O169  1  0.73563500  0.94367046  0.42595604  1  -1.154433  0  -0.308848  -0.540079  0  2.349835  0
O  O170  1  0.52349365  0.49138038  0.89021960  1  -1.173822  0  -0.31612  -0.556653  0  2.361257  0
O  O171  1  0.52350515  0.00861964  0.60977888  1  -1.173544  0  -0.316084  -0.556592  0  2.361108  0
O  O172  1  0.47649752  0.50862332  0.10977944  1  -1.173917  0  -0.316141  -0.556636  0  2.361174  0
O  O173  1  0.47650278  0.99137691  0.39022022  1  -1.173875  0  -0.31614  -0.556683  0  2.361178  0
O  O174  1  0.52735666  0.11885484  0.50099907  1  -1.195352  0  -0.311795  -0.588785  0  2.413158  0
O  O175  1  0.52736075  0.38114407  0.99900106  1  -1.195262  0  -0.311791  -0.588864  0  2.41311  0
O  O176  1  0.47264289  0.88114391  0.49899964  1  -1.195285  0  -0.311774  -0.588797  0  2.413107  0
O  O177  1  0.47264439  0.61885522  0.00099973  1  -1.195368  0  -0.311794  -0.588868  0  2.413208  0
O  O178  1  0.78380748  0.07635463  0.54114418  1  -1.153395  0  -0.296133  -0.511667  0  2.308555  0
O  O179  1  0.78380362  0.42364546  0.95885068  1  -1.153356  0  -0.296161  -0.51174  0  2.308404  0
O  O180  1  0.21619207  0.92364413  0.45885404  1  -1.153293  0  -0.296142  -0.511647  0  2.308564  0
O  O181  1  0.21618895  0.57635387  0.04114332  1  -1.153241  0  -0.296184  -0.511681  0  2.308367  0
F  F182  1  0.45602944  0.21051682  0.15295877  1  -0.61686  0  -0.090705  -0.198063  0  1.363824  0
F  F183  1  0.45602882  0.28948747  0.34704994  1  -0.616444  0  -0.090746  -0.198202  0  1.363717  0
F  F184  1  0.54396871  0.78948739  0.84704477  1  -0.616805  0  -0.090671  -0.198065  0  1.363882  0
F  F185  1  0.54397213  0.71051126  0.65295119  1  -0.616389  0  -0.09075  -0.198141  0  1.363797  0
F  F186  1  0.63117214  0.12673952  0.17615029  1  -0.619714  0  -0.089358  -0.193378  0  1.352386  0
F  F187  1  0.63116636  0.37326372  0.32385652  1  -0.619791  0  -0.089402  -0.193492  0  1.352364  0
F  F188  1  0.36883161  0.87326307  0.82385039  1  -0.619725  0  -0.089383  -0.193368  0  1.3524  0
F  F189  1  0.36883459  0.62673609  0.67614780  1  -0.619745  0  -0.089443  -0.193466  0  1.352274  0
F  F190  1  0.38658389  0.16925393  0.23920556  1  -0.619368  0  -0.098942  -0.20585  0  1.317781  0
F  F191  1  0.38658546  0.33074543  0.26079997  1  -0.619293  0  -0.099038  -0.206013  0  1.31758  0
F  F192  1  0.61341985  0.83074590  0.76079537  1  -0.619381  0  -0.098968  -0.205902  0  1.317718  0
F  F193  1  0.61342248  0.66925496  0.73920159  1  -0.619353  0  -0.099005  -0.20595  0  1.31753  0
F  F194  1  0.23915960  0.48997722  0.56525930  1  -0.608154  0  -0.097968  -0.198554  0  1.335839  0
F  F195  1  0.23917002  0.01002494  0.93474000  1  -0.608131  0  -0.097982  -0.198635  0  1.335781  0
F  F196  1  0.76082738  0.51002427  0.43474012  1  -0.60818  0  -0.097977  -0.198621  0  1.335734  0
F  F197  1  0.76083652  0.98997819  0.06526034  1  -0.608192  0  -0.09795  -0.198571  0  1.335877  0
F  F198  1  0.07383555  0.40356099  0.49648527  1  -0.610112  0  -0.09633  -0.199917  0  1.360993  0
F  F199  1  0.07384115  0.09643780  0.00351506  1  -0.610085  0  -0.096341  -0.199939  0  1.360931  0
F  F200  1  0.92615562  0.59643885  0.50351469  1  -0.610465  0  -0.096316  -0.199918  0  1.360935  0
F  F201  1  0.92615840  0.90356369  0.99648533  1  -0.61008  0  -0.096309  -0.199896  0  1.360929  0
F  F202  1  0.30676719  0.37417562  0.55227721  1  -0.629799  0  -0.087445  -0.195733  0  1.343404  0
F  F203  1  0.30676669  0.12582764  0.94772426  1  -0.629847  0  -0.087369  -0.195681  0  1.343373  0
F  F204  1  0.69322538  0.62582642  0.44772284  1  -0.629904  0  -0.087366  -0.195654  0  1.34341  0
F  F205  1  0.69322867  0.87417659  0.05227637  1  -0.629835  0  -0.087445  -0.195745  0  1.343489  0
F  F206  1  0.80743334  0.49205039  0.56974576  1  -0.612076  0  -0.097879  -0.207759  0  1.37495  0
F  F207  1  0.80743680  0.00794912  0.93025378  1  -0.611741  0  -0.097846  -0.207723  0  1.374935  0
F  F208  1  0.19255923  0.50794889  0.43025551  1  -0.611727  0  -0.097778  -0.20768  0  1.374997  0
F  F209  1  0.19256415  0.99205182  0.06974695  1  -0.612023  0  -0.097843  -0.20772  0  1.374915  0
F  F210  1  0.74402126  0.47730399  0.66894633  1  -0.626453  0  -0.086174  -0.197047  0  1.359429  0
F  F211  1  0.74402553  0.02269551  0.83105279  1  -0.626508  0  -0.086166  -0.197062  0  1.359476  0
F  F212  1  0.25597410  0.52269584  0.33105509  1  -0.626429  0  -0.086183  -0.197034  0  1.359391  0
F  F213  1  0.25597542  0.97730214  0.16894660  1  -0.62646  0  -0.086164  -0.197071  0  1.359411  0
F  F214  1  0.97256025  0.54952996  0.65799728  1  -0.620548  0  -0.096238  -0.200155  0  1.346982  0
F  F215  1  0.97256715  0.95047149  0.84200242  1  -0.620503  0  -0.096201  -0.200096  0  1.346992  0
F  F216  1  0.02743371  0.45047154  0.34200215  1  -0.620513  0  -0.096273  -0.200147  0  1.347079  0
F  F217  1  0.02743520  0.04952778  0.15799982  1  -0.620494  0  -0.096228  -0.200146  0  1.347043  0
