# generated using pymatgen
data_DyH9C12NO8
_symmetry_space_group_name_H-M   'P 1'
_cell_length_a   5.89892509
_cell_length_b   10.27259371
_cell_length_c   11.52924956
_cell_angle_alpha   105.60223980
_cell_angle_beta   102.13873170
_cell_angle_gamma   106.89240228
_symmetry_Int_Tables_number   1
_chemical_formula_structural   DyH9C12NO8
_chemical_formula_sum   'Dy2 H18 C24 N2 O16'
_cell_volume   611.51747023
_cell_formula_units_Z   2
loop_
 _symmetry_equiv_pos_site_id
 _symmetry_equiv_pos_as_xyz
  1  'x, y, z'
loop_
 _atom_site_type_symbol
 _atom_site_label
 _atom_site_symmetry_multiplicity
 _atom_site_fract_x
 _atom_site_fract_y
 _atom_site_fract_z
 _atom_site_occupancy
 _atom_site_hle17_bader_spin_density
 _atom_site_hle17_ddec_charge
 _atom_site_hle17_ddec_spin_density
 _atom_site_hle17_ddec_sum_bond_order
 _atom_site_hle17_magmom
 _atom_site_hse06_10hf_bader_spin_density
 _atom_site_hse06_10hf_ddec_charge
 _atom_site_hse06_10hf_ddec_spin_density
 _atom_site_hse06_10hf_ddec_sum_bond_order
 _atom_site_hse06_10hf_magmom
 _atom_site_hse06_bader_spin_density
 _atom_site_hse06_ddec_charge
 _atom_site_hse06_ddec_spin_density
 _atom_site_hse06_ddec_sum_bond_order
 _atom_site_hse06_magmom
 _atom_site_pbe_bader_spin_density
 _atom_site_pbe_cm5_charge
 _atom_site_pbe_ddec_charge
 _atom_site_pbe_ddec_spin_density
 _atom_site_pbe_ddec_sum_bond_order
 _atom_site_pbe_magmom
Dy  Dy0  1  0.86287269  0.81953330  0.56202481  1  0  2.248127  0  1.588569  0  0  2.096217  0  2.059315  0  0  2.227154  0  1.865074  0  0  1.494201  2.059638  0  2.090381  0
Dy  Dy1  1  0.13712194  0.18046457  0.43797673  1  0  2.248136  0  1.588542  0  0  2.096245  0  2.059274  0  0  2.22717  0  1.865045  0  0  1.494187  2.059637  0  2.090394  0
H  H2  1  0.26542136  0.72543864  0.65113692  1  0  0.440749  0  0.852728  0  0  0.410641  0  0.914638  0  0  0.422497  0  0.897319  0  0  0.301114  0.402473  0  0.926705  0
H  H3  1  0.73457125  0.27455596  0.34886103  1  0  0.440682  0  0.852834  0  0  0.41059  0  0.914721  0  0  0.422445  0  0.897402  0  0  0.301097  0.402419  0  0.926795  0
H  H4  1  0.21572316  0.79155480  0.78438118  1  0  0.41034  0  0.902397  0  0  0.366491  0  0.986609  0  0  0.379187  0  0.968809  0  0  0.286167  0.357991  0  0.998571  0
H  H5  1  0.78427803  0.20844527  0.21561898  1  0  0.410421  0  0.902278  0  0  0.366559  0  0.98651  0  0  0.379255  0  0.968711  0  0  0.286174  0.358062  0  0.99847  0
H  H6  1  0.20215316  0.86755455  0.41024192  1  0  0.444207  0  0.857933  0  0  0.411061  0  0.925132  0  0  0.421718  0  0.910043  0  0  0.308264  0.403684  0  0.935775  0
H  H7  1  0.79782940  0.13243782  0.58975529  1  0  0.444229  0  0.857905  0  0  0.411102  0  0.925085  0  0  0.421761  0  0.909992  0  0  0.308249  0.403727  0  0.935725  0
H  H8  1  0.19822883  0.71836805  0.42021200  1  0  0.460459  0  0.801341  0  0  0.437902  0  0.857317  0  0  0.447495  0  0.843428  0  0  0.328672  0.431468  0  0.866758  0
H  H9  1  0.80176098  0.28162762  0.57978850  1  0  0.460389  0  0.801441  0  0  0.437859  0  0.857379  0  0  0.447453  0  0.843487  0  0  0.328647  0.431423  0  0.866822  0
H  H10  1  0.87532015  0.06190452  0.00526824  1  0  0.093366  0  0.937399  0  0  0.099468  0  1.007083  0  0  0.103251  0  1.002528  0  0  0.120336  0.096453  0  1.011228  0
H  H11  1  0.12468238  0.93809773  0.99473432  1  0  0.093354  0  0.937404  0  0  0.099463  0  1.007085  0  0  0.103245  0  1.002531  0  0  0.120328  0.096446  0  1.011233  0
H  H12  1  0.19598203  0.31309553  0.77368948  1  0  0.112  0  0.968441  0  0  0.121465  0  1.028375  0  0  0.12505  0  1.026361  0  0  0.110447  0.118985  0  1.02976  0
H  H13  1  0.80403093  0.68690677  0.22631074  1  0  0.111996  0  0.968445  0  0  0.121488  0  1.028351  0  0  0.125073  0  1.026335  0  0  0.110446  0.118987  0  1.02977  0
H  H14  1  0.05988579  0.44487895  0.93773791  1  0  0.086321  0  0.971376  0  0  0.097878  0  1.032596  0  0  0.100146  0  1.032384  0  0  0.101176  0.096143  0  1.033262  0
H  H15  1  0.94013425  0.55513205  0.06226167  1  0  0.086286  0  0.97142  0  0  0.09786  0  1.032631  0  0  0.100127  0  1.032419  0  0  0.101171  0.096126  0  1.0333  0
H  H16  1  0.20674571  0.45496587  0.16220887  1  0  0.09688  0  0.92807  0  0  0.110763  0  0.981535  0  0  0.11408  0  0.979057  0  0  0.108168  0.108543  0  0.98303  0
H  H17  1  0.79327153  0.54504620  0.83779067  1  0  0.096861  0  0.928074  0  0  0.110715  0  0.981569  0  0  0.114031  0  0.979091  0  0  0.108146  0.108495  0  0.983062  0
H  H18  1  0.49097460  0.33105973  0.21809568  1  0  0.112981  0  0.986082  0  0  0.122812  0  1.045896  0  0  0.126423  0  1.044161  0  0  0.109939  0.120489  0  1.046849  0
H  H19  1  0.50903582  0.66894688  0.78190617  1  0  0.11295  0  0.986058  0  0  0.122809  0  1.045833  0  0  0.126421  0  1.044097  0  0  0.109929  0.120467  0  1.046809  0
C  C20  1  0.74537472  0.11160720  0.97386828  1  0  0.157297  0  3.671224  0  0  0.111127  0  3.937525  0  0  0.122223  0  3.950071  0  0  0.068129  0.103019  0  3.929826  0
C  C21  1  0.25462607  0.88839504  0.02613409  1  0  0.157286  0  3.671207  0  0  0.111098  0  3.937534  0  0  0.122195  0  3.950082  0  0  0.0681  0.102986  0  3.929837  0
C  C22  1  0.66147052  0.09334644  0.84349955  1  0  -0.133949  0  3.718562  0  0  -0.119486  0  3.964104  0  0  -0.130419  0  3.982725  0  0  -0.011344  -0.111442  0  3.950613  0
C  C23  1  0.33852237  0.90665141  0.15650181  1  0  -0.134  0  3.718643  0  0  -0.119515  0  3.964177  0  0  -0.130452  0  3.982803  0  0  -0.011318  -0.111475  0  3.95069  0
C  C24  1  0.74254337  0.00205034  0.74946177  1  0  0.654517  0  3.90815  0  0  0.604018  0  4.202926  0  0  0.637476  0  4.203456  0  0  0.201558  0.580468  0  4.207224  0
C  C25  1  0.25745128  0.99794753  0.25054325  1  0  0.654709  0  3.908021  0  0  0.604177  0  4.202856  0  0  0.637637  0  4.20338  0  0  0.201618  0.580634  0  4.207151  0
C  C26  1  0.50180421  0.16154083  0.80757004  1  0  -0.01097  0  3.626031  0  0  -0.010203  0  3.861763  0  0  -0.005871  0  3.874404  0  0  0.030548  -0.013327  0  3.85246  0
C  C27  1  0.49819603  0.83845489  0.19242899  1  0  -0.010992  0  3.626089  0  0  -0.010165  0  3.861803  0  0  -0.005831  0  3.874447  0  0  0.03054  -0.013293  0  3.852499  0
C  C28  1  0.38847447  0.15052002  0.67429020  1  0  0.710653  0  3.88227  0  0  0.659552  0  4.180171  0  0  0.695321  0  4.173989  0  0  0.224702  0.635182  0  4.189187  0
C  C29  1  0.61152565  0.84948112  0.32571097  1  0  0.710793  0  3.882092  0  0  0.659592  0  4.18015  0  0  0.695355  0  4.17398  0  0  0.22475  0.635229  0  4.189156  0
C  C30  1  0.42527540  0.24455470  0.90071273  1  0  -0.002339  0  3.756958  0  0  0.009477  0  3.986043  0  0  0.004823  0  4.010089  0  0  0.000558  0.012804  0  3.970025  0
C  C31  1  0.57473100  0.75544540  0.09928713  1  0  -0.002407  0  3.757031  0  0  0.009387  0  3.986128  0  0  0.00473  0  4.01018  0  0  0.000539  0.012717  0  3.970103  0
C  C32  1  0.26215682  0.31676538  0.87059962  1  0  -0.092606  0  3.717297  0  0  -0.112876  0  3.965137  0  0  -0.114309  0  3.986303  0  0  -0.083338  -0.111412  0  3.950293  0
C  C33  1  0.73785507  0.68323800  0.12940074  1  0  -0.092491  0  3.717279  0  0  -0.112778  0  3.965113  0  0  -0.11421  0  3.986277  0  0  -0.083306  -0.111309  0  3.950295  0
C  C34  1  0.18581444  0.39086970  0.96339104  1  0  -0.077597  0  3.785597  0  0  -0.094618  0  4.044651  0  0  -0.098921  0  4.068822  0  0  -0.090532  -0.091815  0  4.028614  0
C  C35  1  0.81419839  0.60913801  0.03660872  1  0  -0.077672  0  3.785772  0  0  -0.094713  0  4.044844  0  0  -0.099016  0  4.069016  0  0  -0.090559  -0.091913  0  4.02881  0
C  C36  1  0.26864664  0.39622828  0.08927337  1  0  -0.027972  0  3.737803  0  0  -0.048668  0  3.999417  0  0  -0.047633  0  4.019005  0  0  -0.077252  -0.04848  0  3.985463  0
C  C37  1  0.73136926  0.60378161  0.91072638  1  0  -0.027923  0  3.737826  0  0  -0.048588  0  3.999424  0  0  -0.047554  0  4.019014  0  0  -0.077258  -0.048398  0  3.985462  0
C  C38  1  0.42926945  0.32802287  0.12147122  1  0  -0.131384  0  3.677109  0  0  -0.151807  0  3.928339  0  0  -0.15712  0  3.947596  0  0  -0.081576  -0.148572  0  3.915563  0
C  C39  1  0.57073816  0.67198482  0.87853146  1  0  -0.131449  0  3.677065  0  0  -0.151883  0  3.928281  0  0  -0.157196  0  3.947539  0  0  -0.081603  -0.148638  0  3.915506  0
C  C40  1  0.51302780  0.25200549  0.02863471  1  0  0.203846  0  3.76929  0  0  0.198796  0  4.012114  0  0  0.205941  0  4.033188  0  0  0.114162  0.194345  0  3.998978  0
C  C41  1  0.48697646  0.74799676  0.97136717  1  0  0.203967  0  3.769255  0  0  0.19892  0  4.012092  0  0  0.206067  0  4.033164  0  0  0.114241  0.194475  0  3.998934  0
C  C42  1  0.41706778  0.52826299  0.53573564  1  0  0.561164  0  3.91621  0  0  0.517989  0  4.210416  0  0  0.547874  0  4.207991  0  0  0.220899  0.497578  0  4.21665  0
C  C43  1  0.58292509  0.47173485  0.46426050  1  0  0.560972  0  3.916096  0  0  0.517826  0  4.210265  0  0  0.547712  0  4.207841  0  0  0.220863  0.497419  0  4.216498  0
N  N44  1  0.67539502  0.18630494  0.06251379  1  0  -0.345418  0  3.14141  0  0  -0.284939  0  3.39013  0  0  -0.300297  0  3.403934  0  0  -0.296666  -0.274344  0  3.381097  0
N  N45  1  0.32460752  0.81369731  0.93748965  1  0  -0.34535  0  3.141302  0  0  -0.284878  0  3.39004  0  0  -0.300233  0  3.403841  0  0  -0.296653  -0.274278  0  3.380994  0
O  O46  1  0.67017953  0.99157131  0.63222303  1  0  -0.707112  0  2.04097  0  0  -0.643951  0  2.27518  0  0  -0.67745  0  2.264942  0  0  -0.366713  -0.626495  0  2.281275  0
O  O47  1  0.32981859  0.00842658  0.36778063  1  0  -0.707133  0  2.040881  0  0  -0.643944  0  2.275094  0  0  -0.677441  0  2.264854  0  0  -0.366748  -0.626482  0  2.281187  0
O  O48  1  0.87701502  0.93357337  0.78241058  1  0  -0.654802  0  1.939061  0  0  -0.607154  0  2.179623  0  0  -0.640906  0  2.173574  0  0  -0.351841  -0.589397  0  2.183547  0
O  O49  1  0.12296757  0.06641901  0.21759010  1  0  -0.654881  0  1.939044  0  0  -0.607278  0  2.179715  0  0  -0.64103  0  2.173664  0  0  -0.351849  -0.589521  0  2.183641  0
O  O50  1  0.18086076  0.04736837  0.60815633  1  0  -0.774734  0  2.148962  0  0  -0.717403  0  2.414403  0  0  -0.762287  0  2.40499  0  0  -0.397551  -0.698114  0  2.42033  0
O  O51  1  0.81912986  0.95262298  0.39184583  1  0  -0.774789  0  2.149073  0  0  -0.717423  0  2.414567  0  0  -0.762305  0  2.405165  0  0  -0.397548  -0.698137  0  2.420496  0
O  O52  1  0.48122626  0.25208801  0.63575297  1  0  -0.689172  0  1.979649  0  0  -0.643909  0  2.220639  0  0  -0.677063  0  2.208974  0  0  -0.353119  -0.626442  0  2.226704  0
O  O53  1  0.51876193  0.74790222  0.36424433  1  0  -0.689242  0  1.979412  0  0  -0.643943  0  2.220435  0  0  -0.677097  0  2.208777  0  0  -0.353166  -0.626482  0  2.226496  0
O  O54  1  0.48632929  0.66671429  0.58439902  1  0  -0.690204  0  2.099123  0  0  -0.631741  0  2.335266  0  0  -0.666777  0  2.324487  0  0  -0.352438  -0.614075  0  2.340646  0
O  O55  1  0.51365740  0.33327917  0.41559281  1  0  -0.690201  0  2.099077  0  0  -0.631719  0  2.335163  0  0  -0.666753  0  2.324382  0  0  -0.352458  -0.614055  0  2.34055  0
O  O56  1  0.23056571  0.43582581  0.54122864  1  0  -0.612136  0  2.045069  0  0  -0.567104  0  2.286695  0  0  -0.598388  0  2.275196  0  0  -0.351178  -0.551604  0  2.292265  0
O  O57  1  0.76943237  0.56417206  0.45876720  1  0  -0.611981  0  2.044918  0  0  -0.566967  0  2.286544  0  0  -0.598255  0  2.275046  0  0  -0.35114  -0.551474  0  2.292118  0
O  O58  1  0.15808329  0.77055424  0.68883629  1  0  -0.944374  0  1.91203  0  0  -0.893343  0  2.133219  0  0  -0.925551  0  2.090265  0  0  -0.672386  -0.878945  0  2.157169  0
O  O59  1  0.84190960  0.22944362  0.31116506  1  0  -0.944392  0  1.912065  0  0  -0.893358  0  2.133223  0  0  -0.92556  0  2.090268  0  0  -0.672367  -0.878945  0  2.157168  0
O  O60  1  0.10151088  0.78109518  0.42556380  1  0  -0.898173  0  1.905874  0  0  -0.848509  0  2.113683  0  0  -0.877719  0  2.077377  0  0  -0.643097  -0.834836  0  2.134314  0
O  O61  1  0.89847235  0.21889828  0.57443200  1  0  -0.898093  0  1.905841  0  0  -0.848481  0  2.11355  0  0  -0.877692  0  2.077246  0  0  -0.643063  -0.834812  0  2.134183  0
