# generated using pymatgen
data_AlH12C24(NO6)3
_symmetry_space_group_name_H-M   'P 1'
_cell_length_a   3.90863776
_cell_length_b   15.89546934
_cell_length_c   15.81384784
_cell_angle_alpha   59.96976693
_cell_angle_beta   86.68180230
_cell_angle_gamma   88.74312311
_symmetry_Int_Tables_number   1
_chemical_formula_structural   AlH12C24(NO6)3
_chemical_formula_sum   'Al1 H12 C24 N3 O18'
_cell_volume   849.16383824
_cell_formula_units_Z   1
loop_
 _symmetry_equiv_pos_site_id
 _symmetry_equiv_pos_as_xyz
  1  'x, y, z'
loop_
 _atom_site_type_symbol
 _atom_site_label
 _atom_site_symmetry_multiplicity
 _atom_site_fract_x
 _atom_site_fract_y
 _atom_site_fract_z
 _atom_site_occupancy
 _atom_site_pbe_bader_charge
 _atom_site_pbe_bader_spin_density
 _atom_site_pbe_cm5_charge
 _atom_site_pbe_ddec_charge
 _atom_site_pbe_ddec_spin_density
 _atom_site_pbe_ddec_sum_bond_order
 _atom_site_pbe_magmom
Al  Al0  1  0.94929400  0.50178742  0.50186780  1  2.499513  0  0.423464  1.583818  0  2.567391  0
H  H1  1  0.73063169  0.47214499  0.72190081  1  0.639993  0  0.321698  0.363667  0  0.92694  0
H  H2  1  0.07815072  0.71050869  0.49146451  1  0.644723  0  0.311862  0.349338  0  0.956084  0
H  H3  1  0.65111099  0.63251296  0.89622666  1  0.630609  0  0.299361  0.318916  0  1.021186  0
H  H4  1  0.24101396  0.89819322  0.63111592  1  0.633183  0  0.300211  0.322159  0  1.022836  0
H  H5  1  0.63883283  0.30323808  0.44956015  1  0.614279  0  0.326229  0.375872  0  0.890047  0
H  H6  1  0.50287992  0.10295150  0.49818452  1  0.635564  0  0.338906  0.374492  0  0.871225  0
H  H7  1  0.47913624  0.18845922  0.85092309  1  0.639068  0  0.33654  0.37423  0  0.877825  0
H  H8  1  0.49189816  0.97379813  0.90238212  1  0.664343  0  0.29733  0.328276  0  1.017095  0
H  H9  1  0.93192592  0.87637052  0.08447288  1  0.624444  0  0.339937  0.380155  0  0.862659  0
H  H10  1  0.82987135  0.72121678  0.29984906  1  0.636951  0  0.321787  0.374981  0  0.912592  0
H  H11  1  0.07912496  0.54622852  0.09197706  1  0.622149  0  0.340913  0.380987  0  0.86152  0
H  H12  1  0.13732958  0.49012164  0.30456492  1  0.639217  0  0.317181  0.368428  0  0.933214  0
C  C13  1  0.47800815  0.58243858  0.34665332  1  1.405627  0  0.252577  0.639922  0  4.062427  0
C  C14  1  0.42191602  0.57456971  0.58091514  1  1.387975  0  0.260811  0.653671  0  4.040784  0
C  C15  1  0.45336323  0.35229210  0.57389224  1  1.603431  0  0.284458  0.702279  0  4.009874  0
C  C16  1  0.44767597  0.93346279  0.77970300  1  1.016312  0  0.255601  0.412706  0  3.989049  0
C  C17  1  0.45625690  0.78677312  0.78390029  1  1.00963  0  0.253914  0.401081  0  3.998177  0
C  C18  1  0.51700614  0.79111773  0.92528282  1  1.150669  0  0.26557  0.428817  0  3.969428  0
C  C19  1  0.25510176  0.71832724  0.59568308  1  0.609313  0  0.078225  0.201576  0  4.037911  0
C  C20  1  0.28684779  0.77396030  0.64153080  1  0.612321  0  0.085636  0.207442  0  4.034496  0
C  C21  1  0.43585813  0.73116303  0.73432293  1  0.076455  0  -0.02925  -0.232639  0  3.989504  0
C  C22  1  0.56687121  0.63443814  0.77841413  1  0.564485  0  0.083928  0.200458  0  4.039504  0
C  C23  1  0.57479914  0.58425162  0.72613051  1  0.602466  0  0.079112  0.204894  0  4.039238  0
C  C24  1  0.41365907  0.62547909  0.63524403  1  0.039648  0  -0.045949  -0.308234  0  4.059243  0
C  C25  1  0.46870787  0.09459578  0.62211075  1  0.531952  0  0.073765  0.187242  0  4.074015  0
C  C26  1  0.48769966  0.19570774  0.57479135  1  0.459172  0  0.046707  0.127895  0  4.132197  0
C  C27  1  0.46722984  0.24502764  0.62792490  1  -0.046334  0  -0.032075  -0.237695  0  4.025348  0
C  C28  1  0.45894471  0.19239364  0.72998469  1  0.586126  0  0.067674  0.184664  0  4.096134  0
C  C29  1  0.46293931  0.09025522  0.77899749  1  0.600273  0  0.075622  0.178651  0  4.084593  0
C  C30  1  0.45440867  0.03923246  0.72625983  1  0.134321  0  -0.030696  -0.216198  0  3.982191  0
C  C31  1  0.66931003  0.77729297  0.08452685  1  0.54568  0  0.068817  0.161474  0  4.08245  0
C  C32  1  0.66670703  0.72547380  0.18668195  1  0.525343  0  0.061338  0.167729  0  4.124029  0
C  C33  1  0.49288830  0.63514418  0.24073212  1  0.08428  0  -0.051198  -0.28846  0  4.091996  0
C  C34  1  0.33151506  0.59710041  0.18903618  1  0.471778  0  0.061498  0.167856  0  4.12072  0
C  C35  1  0.35117000  0.64619403  0.08679741  1  0.606971  0  0.070751  0.163436  0  4.085089  0
C  C36  1  0.51747770  0.73790250  0.03275408  1  0.042767  0  -0.016853  -0.17363  0  3.95142  0
N  N37  1  0.39731218  0.88335481  0.73361838  1  -1.197611  0  -0.303723  -0.383564  0  3.274175  0
N  N38  1  0.53385671  0.73951114  0.87923647  1  -1.212216  0  -0.304143  -0.390073  0  3.286952  0
N  N39  1  0.49021376  0.88837374  0.87746179  1  -1.205503  0  -0.307138  -0.39735  0  3.2911  0
O  O40  1  0.20462369  0.39380106  0.59294914  1  -1.24886  0  -0.219423  -0.558698  0  2.34898  0
O  O41  1  0.24193123  0.51639064  0.39254797  1  -1.262759  0  -0.243807  -0.613754  0  2.421641  0
O  O42  1  0.20172427  0.59598285  0.51434768  1  -1.258547  0  -0.248969  -0.625497  0  2.401328  0
O  O43  1  0.69282440  0.39800161  0.50685409  1  -1.27229  0  -0.249826  -0.633468  0  2.345828  0
O  O44  1  0.65177756  0.50882883  0.59765200  1  -1.261933  0  -0.239899  -0.614827  0  2.406684  0
O  O45  1  0.69893997  0.60163307  0.39268359  1  -1.252875  0  -0.241178  -0.598172  0  2.367117  0
O  O46  1  0.72302029  0.49573938  0.76893405  1  -1.119793  0  -0.339383  -0.395109  0  2.277564  0
O  O47  1  0.09424939  0.76065097  0.51054478  1  -1.14169  0  -0.344976  -0.398418  0  2.285577  0
O  O48  1  0.69737200  0.58901143  0.86719289  1  -1.124837  0  -0.33975  -0.393307  0  2.313925  0
O  O49  1  0.16427754  0.86470867  0.59528618  1  -1.112805  0  -0.335797  -0.392404  0  2.328412  0
O  O50  1  0.50527262  0.24346116  0.47352620  1  -1.145591  0  -0.369117  -0.466954  0  2.273329  0
O  O51  1  0.47210262  0.05112454  0.56661371  1  -1.104173  0  -0.328594  -0.399372  0  2.321248  0
O  O52  1  0.46487432  0.23914721  0.78224574  1  -1.133108  0  -0.345808  -0.411948  0  2.253347  0
O  O53  1  0.47393656  0.04716541  0.87711242  1  -1.1702  0  -0.352785  -0.446697  0  2.341983  0
O  O54  1  0.83136400  0.86545803  0.03542635  1  -1.115464  0  -0.335982  -0.413869  0  2.331879  0
O  O55  1  0.82650510  0.76923855  0.22912922  1  -1.146811  0  -0.353701  -0.442163  0  2.292266  0
O  O56  1  0.19323976  0.60585619  0.04095801  1  -1.105068  0  -0.332105  -0.404708  0  2.324675  0
O  O57  1  0.15948573  0.51041680  0.23396298  1  -1.152564  0  -0.359299  -0.449904  0  2.297047  0
