# generated using pymatgen
data_Zn5H14(C10O11)2
_symmetry_space_group_name_H-M   'P 1'
_cell_length_a   7.01472771
_cell_length_b   15.19978957
_cell_length_c   15.42125982
_cell_angle_alpha   89.99974257
_cell_angle_beta   89.99980151
_cell_angle_gamma   98.52553680
_symmetry_Int_Tables_number   1
_chemical_formula_structural   Zn5H14(C10O11)2
_chemical_formula_sum   'Zn10 H28 C40 O44'
_cell_volume   1626.08233732
_cell_formula_units_Z   2
loop_
 _symmetry_equiv_pos_site_id
 _symmetry_equiv_pos_as_xyz
  1  'x, y, z'
loop_
 _atom_site_type_symbol
 _atom_site_label
 _atom_site_symmetry_multiplicity
 _atom_site_fract_x
 _atom_site_fract_y
 _atom_site_fract_z
 _atom_site_occupancy
 _atom_site_pbe_bader_charge
 _atom_site_pbe_bader_spin_density
 _atom_site_pbe_cm5_charge
 _atom_site_pbe_ddec_charge
 _atom_site_pbe_ddec_spin_density
 _atom_site_pbe_ddec_sum_bond_order
 _atom_site_pbe_magmom
Zn  Zn0  1  0.49999634  0.49999912  0.50000299  1  1.362606  0  0.65203  0.985857  0  2.3589  0
Zn  Zn1  1  0.99999947  0.00000151  0.00000154  1  1.362762  0  0.652046  0.985767  0  2.35906  0
Zn  Zn2  1  0.20373929  0.64396662  0.47129761  1  1.319914  0  0.687469  0.978698  0  2.225626  0
Zn  Zn3  1  0.29627837  0.85603638  0.97129556  1  1.320019  0  0.687502  0.978755  0  2.22533  0
Zn  Zn4  1  0.79625736  0.35603037  0.52870382  1  1.319823  0  0.687504  0.978763  0  2.225468  0
Zn  Zn5  1  0.70372563  0.14396735  0.02870718  1  1.319982  0  0.687451  0.978681  0  2.225536  0
Zn  Zn6  1  0.15997096  0.44119998  0.36677321  1  1.384332  0  0.676137  1.033989  0  2.148047  0
Zn  Zn7  1  0.34003337  0.05880379  0.86677231  1  1.384345  0  0.676076  1.033923  0  2.147978  0
Zn  Zn8  1  0.84003030  0.55879840  0.63323082  1  1.384338  0  0.676137  1.033992  0  2.147957  0
Zn  Zn9  1  0.65996601  0.94119854  0.13322912  1  1.384309  0  0.676095  1.033993  0  2.147971  0
H  H10  1  0.84867006  0.50799084  0.46334284  1  0.631136  0  0.288202  0.382086  0  0.959666  0
H  H11  1  0.65132607  0.99200871  0.96334202  1  0.631113  0  0.288224  0.382138  0  0.959555  0
H  H12  1  0.15132658  0.49200615  0.53665730  1  0.631115  0  0.28823  0.382112  0  0.959585  0
H  H13  1  0.34867441  0.00799231  0.03666006  1  0.631077  0  0.288257  0.382148  0  0.959514  0
H  H14  1  0.19244443  0.40717776  0.20835052  1  0.638112  0  0.32853  0.415435  0  0.863137  0
H  H15  1  0.30756385  0.09283237  0.70835967  1  0.63839  0  0.328609  0.415538  0  0.863131  0
H  H16  1  0.80756178  0.59282336  0.79164767  1  0.638242  0  0.32858  0.4155  0  0.86309  0
H  H17  1  0.69244106  0.90716343  0.29164566  1  0.638464  0  0.328592  0.415533  0  0.863143  0
H  H18  1  0.97136322  0.36363138  0.21957810  1  0.673299  0  0.291472  0.412962  0  0.910583  0
H  H19  1  0.52863911  0.13637088  0.71957927  1  0.673213  0  0.291544  0.413024  0  0.910504  0
H  H20  1  0.02863154  0.63636955  0.78042269  1  0.67331  0  0.291488  0.412965  0  0.910578  0
H  H21  1  0.47136150  0.86362485  0.28042152  1  0.673195  0  0.291532  0.413009  0  0.910531  0
H  H22  1  0.19649667  0.77717851  0.32856619  1  0.640176  0  0.288753  0.38011  0  0.957357  0
H  H23  1  0.30350938  0.72282129  0.82856781  1  0.640186  0  0.288738  0.38009  0  0.957374  0
H  H24  1  0.80350587  0.22281923  0.67143265  1  0.640201  0  0.288733  0.380032  0  0.95745  0
H  H25  1  0.69648522  0.27717897  0.17143946  1  0.640077  0  0.288701  0.380048  0  0.957392  0
H  H26  1  0.23825538  0.85933258  0.38682962  1  0.64527  0  0.315217  0.412822  0  0.879699  0
H  H27  1  0.26174509  0.64066766  0.88683312  1  0.645244  0  0.315206  0.412783  0  0.879757  0
H  H28  1  0.76173475  0.14066694  0.61316273  1  0.645037  0  0.315185  0.412759  0  0.879791  0
H  H29  1  0.73823788  0.35933174  0.11317285  1  0.645514  0  0.315224  0.412865  0  0.879635  0
H  H30  1  0.38702854  0.63217373  0.17664097  1  0.099982  0  0.109955  0.116499  0  1.001172  0
H  H31  1  0.11297892  0.86783436  0.67663783  1  0.099817  0  0.109955  0.116536  0  1.001011  0
H  H32  1  0.61297230  0.36783458  0.82336436  1  0.099975  0  0.109946  0.116547  0  1.000933  0
H  H33  1  0.88700380  0.13217564  0.32335776  1  0.099756  0  0.109979  0.116468  0  1.00108  0
H  H34  1  0.09526000  0.71413500  0.19395868  1  0.083439  0  0.111633  0.11736  0  0.997517  0
H  H35  1  0.40475445  0.78586258  0.69396191  1  0.083539  0  0.111598  0.117358  0  0.997527  0
H  H36  1  0.90473758  0.28586001  0.80603692  1  0.083457  0  0.11166  0.117456  0  0.997343  0
H  H37  1  0.59526003  0.21413735  0.30604017  1  0.083507  0  0.111585  0.1173  0  0.997304  0
C  C38  1  0.84417262  0.63911510  0.25336660  1  -0.050001  0  -0.002413  -0.034946  0  3.917842  0
C  C39  1  0.65584953  0.86088267  0.75336230  1  -0.05008  0  -0.002388  -0.034932  0  3.917671  0
C  C40  1  0.15583916  0.36088544  0.74663873  1  -0.050033  0  -0.002356  -0.034973  0  3.917785  0
C  C41  1  0.34415427  0.13911443  0.24663135  1  -0.049848  0  -0.00238  -0.035005  0  3.917471  0
C  C42  1  0.64201013  0.61657782  0.24770938  1  -0.020435  0  7.9e-05  -0.026231  0  3.910485  0
C  C43  1  0.85799849  0.88342239  0.74770916  1  -0.020309  0  -2e-05  -0.026304  0  3.910587  0
C  C44  1  0.35799736  0.38342265  0.75229205  1  -0.020421  0  1.6e-05  -0.026298  0  3.910641  0
C  C45  1  0.14198460  0.11657172  0.25228968  1  -0.020087  0  4.9e-05  -0.02628  0  3.910392  0
C  C46  1  0.54269116  0.65154855  0.18066923  1  0.047395  0  -0.07321  -0.106937  0  3.931875  0
C  C47  1  0.95732296  0.84845587  0.68067141  1  0.047248  0  -0.073147  -0.10678  0  3.932002  0
C  C48  1  0.45730487  0.34845174  0.81933026  1  0.047459  0  -0.073192  -0.106898  0  3.931769  0
C  C49  1  0.04267420  0.15154906  0.31933197  1  0.047218  0  -0.073148  -0.106688  0  3.931829  0
C  C50  1  0.63636854  0.71408664  0.12279701  1  -0.004119  0  -0.002057  -0.031569  0  3.956557  0
C  C51  1  0.86364845  0.78591795  0.62280536  1  -0.00356  0  -0.002061  -0.031678  0  3.95647  0
C  C52  1  0.36363068  0.28591502  0.87720313  1  -0.004016  0  -0.002094  -0.031642  0  3.956321  0
C  C53  1  0.13636047  0.21408254  0.37720126  1  -0.003597  0  -0.002132  -0.031691  0  3.956711  0
C  C54  1  0.83679719  0.73685367  0.12863449  1  0.066161  0  -0.003213  -0.037752  0  3.951776  0
C  C55  1  0.66320975  0.76314545  0.62863489  1  0.066642  0  -0.0034  -0.03807  0  3.952126  0
C  C56  1  0.16318402  0.26314439  0.87136499  1  0.066414  0  -0.003196  -0.037821  0  3.951834  0
C  C57  1  0.33679037  0.23684828  0.37136071  1  0.066055  0  -0.003324  -0.038023  0  3.952421  0
C  C58  1  0.93885822  0.69729754  0.19182867  1  -0.045344  0  -0.072836  -0.110138  0  3.934425  0
C  C59  1  0.56115474  0.80269161  0.69182792  1  -0.046196  0  -0.072738  -0.109985  0  3.93458  0
C  C60  1  0.06114813  0.30269828  0.80816433  1  -0.045892  0  -0.072837  -0.110139  0  3.93467  0
C  C61  1  0.43884108  0.19730205  0.30817222  1  -0.04581  0  -0.072774  -0.109904  0  3.934488  0
C  C62  1  0.96514380  0.60338247  0.32142808  1  1.578398  0  0.232436  0.61835  0  4.121314  0
C  C63  1  0.53486840  0.89661632  0.82143172  1  1.578417  0  0.232434  0.618295  0  4.121822  0
C  C64  1  0.03485541  0.39661919  0.67856816  1  1.578492  0  0.232406  0.618309  0  4.121665  0
C  C65  1  0.46513589  0.10338277  0.17856713  1  1.578368  0  0.232432  0.618395  0  4.121953  0
C  C66  1  0.52130540  0.56577134  0.31653070  1  1.612742  0  0.221355  0.614242  0  4.162884  0
C  C67  1  0.97870741  0.93422946  0.81653158  1  1.612821  0  0.221402  0.614207  0  4.162887  0
C  C68  1  0.47868711  0.43422624  0.68347073  1  1.612707  0  0.221366  0.614272  0  4.162748  0
C  C69  1  0.02129578  0.06577094  0.18346726  1  1.612701  0  0.221372  0.61412  0  4.162867  0
C  C70  1  0.51601729  0.75185169  0.05608625  1  1.555572  0  0.219048  0.599895  0  4.149582  0
C  C71  1  0.98399955  0.74814576  0.55608539  1  1.554895  0  0.218877  0.599507  0  4.149186  0
C  C72  1  0.48398033  0.24814928  0.94391519  1  1.555667  0  0.219066  0.599937  0  4.149269  0
C  C73  1  0.01600768  0.25186531  0.44390891  1  1.555709  0  0.219032  0.599834  0  4.149432  0
C  C74  1  0.94876174  0.80562918  0.07184454  1  1.580087  0  0.236019  0.632724  0  4.121074  0
C  C75  1  0.55124836  0.69437144  0.57185047  1  1.580005  0  0.235986  0.632668  0  4.121163  0
C  C76  1  0.05124161  0.19437189  0.92815236  1  1.580655  0  0.235982  0.63267  0  4.121242  0
C  C77  1  0.44874571  0.30562087  0.42815356  1  1.581139  0  0.235975  0.632529  0  4.121296  0
O  O78  1  0.93324874  0.52196912  0.34210892  1  -1.183412  0  -0.301983  -0.554512  0  2.297603  0
O  O79  1  0.56676474  0.97803693  0.84210288  1  -1.183473  0  -0.301979  -0.554543  0  2.297452  0
O  O80  1  0.06674995  0.47802458  0.65788797  1  -1.183483  0  -0.301917  -0.554428  0  2.29804  0
O  O81  1  0.43324580  0.02197022  0.15789207  1  -1.183484  0  -0.301988  -0.554534  0  2.297739  0
O  O82  1  0.10197879  0.66067138  0.35337648  1  -1.171876  0  -0.308009  -0.568071  0  2.370628  0
O  O83  1  0.39803605  0.83933182  0.85336566  1  -1.171852  0  -0.307963  -0.567999  0  2.371236  0
O  O84  1  0.89802677  0.33932708  0.64662366  1  -1.171932  0  -0.308036  -0.568095  0  2.370854  0
O  O85  1  0.60196538  0.16066722  0.14662994  1  -1.171894  0  -0.307957  -0.568043  0  2.371245  0
O  O86  1  0.36591762  0.51785544  0.29216828  1  -1.179787  0  -0.319453  -0.581748  0  2.321118  0
O  O87  1  0.13408613  0.98214308  0.79216816  1  -1.179918  0  -0.319511  -0.581816  0  2.321238  0
O  O88  1  0.63407918  0.48214221  0.70783510  1  -1.179723  0  -0.319429  -0.581749  0  2.321075  0
O  O89  1  0.86590384  0.01785578  0.20783003  1  -1.179862  0  -0.319474  -0.581796  0  2.321111  0
O  O90  1  0.57844342  0.57985337  0.39409894  1  -1.17199  0  -0.315931  -0.557926  0  2.34152  0
O  O91  1  0.92156240  0.92014980  0.89409853  1  -1.171998  0  -0.315909  -0.5578  0  2.34158  0
O  O92  1  0.42155658  0.42014566  0.60589861  1  -1.172017  0  -0.315966  -0.55795  0  2.341453  0
O  O93  1  0.07843476  0.07985514  0.10589577  1  -1.172204  0  -0.315942  -0.557773  0  2.341519  0
O  O94  1  0.49989003  0.83710169  0.06177349  1  -1.168062  0  -0.323944  -0.588631  0  2.402661  0
O  O95  1  0.00012957  0.66289228  0.56177764  1  -1.167868  0  -0.323831  -0.588356  0  2.402186  0
O  O96  1  0.50010791  0.16290061  0.93823313  1  -1.168105  0  -0.32397  -0.588653  0  2.402733  0
O  O97  1  0.99988442  0.33710565  0.43822250  1  -1.168219  0  -0.323864  -0.588465  0  2.402959  0
O  O98  1  0.42917002  0.70312733  0.00004295  1  -1.141509  0  -0.295136  -0.515938  0  2.119219  0
O  O99  1  0.07084890  0.79686942  0.50004097  1  -1.14103  0  -0.295098  -0.515779  0  2.119232  0
O  O100  1  0.57084004  0.29687782  0.99996042  1  -1.141607  0  -0.295163  -0.516002  0  2.118824  0
O  O101  1  0.92915028  0.20312629  0.49995204  1  -1.14145  0  -0.295211  -0.516018  0  2.118754  0
O  O102  1  0.07443311  0.77970014  0.02253530  1  -1.153963  0  -0.306492  -0.534405  0  2.332863  0
O  O103  1  0.42558401  0.72030314  0.52253716  1  -1.153787  0  -0.306417  -0.534304  0  2.332918  0
O  O104  1  0.92557118  0.22029895  0.97746289  1  -1.153973  0  -0.306431  -0.534341  0  2.332839  0
O  O105  1  0.57441312  0.27969584  0.47746168  1  -1.153952  0  -0.306441  -0.534303  0  2.33328  0
O  O106  1  0.91548723  0.88517167  0.08017295  1  -1.177962  0  -0.293953  -0.558327  0  2.432826  0
O  O107  1  0.58452250  0.61482825  0.58017374  1  -1.178034  0  -0.293998  -0.558341  0  2.432746  0
O  O108  1  0.08450020  0.11482847  0.91982524  1  -1.178328  0  -0.293991  -0.558261  0  2.432798  0
O  O109  1  0.41548179  0.38517084  0.41982704  1  -1.178844  0  -0.293993  -0.558274  0  2.43256  0
O  O110  1  0.78512417  0.48460135  0.51717505  1  -1.242577  0  -0.568641  -0.883008  0  2.342245  0
O  O111  1  0.71487121  0.01539924  0.01717816  1  -1.242532  0  -0.56866  -0.883051  0  2.342226  0
O  O112  1  0.21487742  0.51539836  0.48282379  1  -1.242549  0  -0.568678  -0.883033  0  2.342254  0
O  O113  1  0.28513058  0.98460710  0.98282262  1  -1.242602  0  -0.568691  -0.88301  0  2.342172  0
O  O114  1  0.10175792  0.37458790  0.24896268  1  -1.26349  0  -0.564182  -0.761831  0  2.086923  0
O  O115  1  0.39825300  0.12541953  0.74896720  1  -1.2637  0  -0.564318  -0.761974  0  2.086937  0
O  O116  1  0.89824305  0.62541511  0.75103681  1  -1.26358  0  -0.564237  -0.761887  0  2.086871  0
O  O117  1  0.60174937  0.87457755  0.25103813  1  -1.263801  0  -0.564301  -0.76197  0  2.086968  0
O  O118  1  0.25969456  0.83967786  0.32784492  1  -1.262753  0  -0.580813  -0.756122  0  1.917373  0
O  O119  1  0.24030594  0.66032251  0.82784692  1  -1.262783  0  -0.580773  -0.756052  0  1.917416  0
O  O120  1  0.74030687  0.16032119  0.67215133  1  -1.262549  0  -0.580752  -0.755962  0  1.917527  0
O  O121  1  0.75968898  0.33967908  0.17215905  1  -1.26298  0  -0.580767  -0.756086  0  1.917383  0
