# generated using pymatgen
data_Cd2H23C38N5O7
_symmetry_space_group_name_H-M   'P 1'
_cell_length_a   12.00348638
_cell_length_b   12.13769643
_cell_length_c   13.40258094
_cell_angle_alpha   97.97620671
_cell_angle_beta   110.94631837
_cell_angle_gamma   96.53512774
_symmetry_Int_Tables_number   1
_chemical_formula_structural   Cd2H23C38N5O7
_chemical_formula_sum   'Cd4 H46 C76 N10 O14'
_cell_volume   1777.58552386
_cell_formula_units_Z   2
loop_
 _symmetry_equiv_pos_site_id
 _symmetry_equiv_pos_as_xyz
  1  'x, y, z'
loop_
 _atom_site_type_symbol
 _atom_site_label
 _atom_site_symmetry_multiplicity
 _atom_site_fract_x
 _atom_site_fract_y
 _atom_site_fract_z
 _atom_site_occupancy
 _atom_site_pbe_bader_charge
 _atom_site_pbe_bader_spin_density
 _atom_site_pbe_cm5_charge
 _atom_site_pbe_ddec_charge
 _atom_site_pbe_ddec_spin_density
 _atom_site_pbe_ddec_sum_bond_order
 _atom_site_pbe_magmom
Cd  Cd0  1  0.09942883  0.88236140  0.22732325  1  1.258455  0  0.746856  0.907862  0  2.187454  0
Cd  Cd1  1  0.90057138  0.11763991  0.77267760  1  1.258434  0  0.746875  0.907916  0  2.187344  0
Cd  Cd2  1  0.14806240  0.06699287  0.04664720  1  1.27552  0  0.747236  0.936282  0  2.248903  0
Cd  Cd3  1  0.85193732  0.93300590  0.95335317  1  1.27546  0  0.747242  0.936272  0  2.248921  0
H  H4  1  0.04363132  0.83465035  0.00691136  1  0.634207  0  0.262989  0.360909  0  0.993137  0
H  H5  1  0.95636929  0.16534842  0.99308855  1  0.634218  0  0.263006  0.360938  0  0.993102  0
H  H6  1  0.06313632  0.48611728  0.17349287  1  0.115969  0  0.103911  0.111747  0  1.014993  0
H  H7  1  0.93686372  0.51388318  0.82650708  1  0.115971  0  0.103906  0.111738  0  1.014974  0
H  H8  1  0.26558875  0.28121673  0.38313408  1  0.077629  0  0.098758  0.098936  0  1.038672  0
H  H9  1  0.73441504  0.71878458  0.61686344  1  0.077621  0  0.098726  0.098877  0  1.038574  0
H  H10  1  0.39098316  0.45553751  0.51639138  1  0.066483  0  0.09717  0.098011  0  1.02446  0
H  H11  1  0.60901706  0.54446380  0.48360574  1  0.06648  0  0.097166  0.098035  0  1.024402  0
H  H12  1  0.39504511  0.75400345  0.36204210  1  0.078992  0  0.107461  0.118629  0  1.003316  0
H  H13  1  0.60495729  0.24599532  0.63795914  1  0.078972  0  0.107463  0.118633  0  1.003279  0
H  H14  1  0.55127402  0.91658310  0.48944671  1  0.130036  0  0.107944  0.105745  0  1.017751  0
H  H15  1  0.44873089  0.08341482  0.51055598  1  0.130017  0  0.107948  0.105731  0  1.017779  0
H  H16  1  0.54652654  0.75571019  0.75380640  1  0.069186  0  0.103495  0.070669  0  1.035343  0
H  H17  1  0.45347141  0.24428859  0.24618967  1  0.069159  0  0.103496  0.070682  0  1.035277  0
H  H18  1  0.91844431  0.62771601  0.12672874  1  0.105837  0  0.1251  0.099379  0  0.969426  0
H  H19  1  0.08155873  0.37228614  0.87327313  1  0.105851  0  0.125101  0.099382  0  0.969376  0
H  H20  1  0.75625769  0.50928437  0.16257480  1  0.091971  0  0.109509  0.113247  0  0.998825  0
H  H21  1  0.24374431  0.49071694  0.83742439  1  0.091947  0  0.109504  0.113217  0  0.998832  0
H  H22  1  0.65183840  0.60409157  0.27471710  1  0.096953  0  0.111441  0.11232  0  0.985259  0
H  H23  1  0.34816165  0.39590889  0.72527912  1  0.096898  0  0.11144  0.11233  0  0.985289  0
H  H24  1  0.63279960  0.78321212  0.38263688  1  0.090779  0  0.101846  0.104314  0  1.023263  0
H  H25  1  0.36720329  0.21678919  0.61736185  1  0.090699  0  0.10183  0.104263  0  1.023276  0
H  H26  1  0.71013460  0.98744292  0.46401875  1  0.091022  0  0.110809  0.12175  0  1.004349  0
H  H27  1  0.28986529  0.01255670  0.53598030  1  0.091011  0  0.110811  0.121768  0  1.004408  0
H  H28  1  0.85398012  0.16440094  0.49093978  1  0.170893  0  0.113539  0.141203  0  1.020628  0
H  H29  1  0.14602155  0.83559867  0.50905983  1  0.170868  0  0.113516  0.14119  0  1.020646  0
H  H30  1  0.03267835  0.25826423  0.45929039  1  0.090937  0  0.11173  0.120949  0  0.979903  0
H  H31  1  0.96732243  0.74173539  0.54070968  1  0.090939  0  0.111743  0.120964  0  0.979904  0
H  H32  1  0.12480991  0.14168352  0.34927867  1  0.161243  0  0.114808  0.087399  0  1.049005  0
H  H33  1  0.87519281  0.85831694  0.65072139  1  0.161204  0  0.114765  0.087361  0  1.049059  0
H  H34  1  0.24392579  0.35569937  0.12669560  1  0.102188  0  0.118547  0.08716  0  1.028781  0
H  H35  1  0.75607304  0.64429941  0.87330524  1  0.102214  0  0.11857  0.087222  0  1.028746  0
H  H36  1  0.42048837  0.49848200  0.14573871  1  0.092928  0  0.112719  0.11828  0  0.985545  0
H  H37  1  0.57951005  0.50151931  0.85426231  1  0.092954  0  0.11271  0.118269  0  0.985465  0
H  H38  1  0.56514638  0.43966345  0.05909769  1  0.08119  0  0.103528  0.095291  0  1.03606  0
H  H39  1  0.43485171  0.56033617  0.94090227  1  0.081197  0  0.10351  0.095248  0  1.03608  0
H  H40  1  0.62191237  0.28983927  0.94792156  1  0.082241  0  0.110159  0.118908  0  0.980989  0
H  H41  1  0.37808305  0.71016035  0.05207754  1  0.082189  0  0.11018  0.118922  0  0.98092  0
H  H42  1  0.57940126  0.09174946  0.84780477  1  0.142403  0  0.110301  0.13288  0  1.014913  0
H  H43  1  0.42059717  0.90825185  0.15219476  1  0.142373  0  0.110279  0.132828  0  1.014946  0
H  H44  1  0.45111326  0.90389005  0.78319081  1  0.127339  0  0.107689  0.108407  0  1.041315  0
H  H45  1  0.54888768  0.09611041  0.21681016  1  0.127324  0  0.107676  0.108373  0  1.041367  0
H  H46  1  0.27075042  0.77079182  0.77793425  1  0.084108  0  0.113888  0.121621  0  0.975524  0
H  H47  1  0.72924890  0.22920949  0.22206706  1  0.084089  0  0.113913  0.121696  0  0.975432  0
H  H48  1  0.14585432  0.84169847  0.88049721  1  0.176337  0  0.117663  0.097148  0  1.032963  0
H  H49  1  0.85414377  0.15830115  0.11950424  1  0.176366  0  0.117662  0.097123  0  1.033002  0
C  C50  1  0.17524083  0.68943247  0.29579711  1  1.551793  0  0.182829  0.54971  0  4.28065  0
C  C51  1  0.82476116  0.31056883  0.70420431  1  1.55177  0  0.182827  0.549613  0  4.280873  0
C  C52  1  0.20558093  0.57773795  0.32254483  1  -0.042108  0  -0.013611  -0.051159  0  3.940548  0
C  C53  1  0.79442000  0.42226251  0.67745689  1  -0.042092  0  -0.013615  -0.051102  0  3.940568  0
C  C54  1  0.13413255  0.47975184  0.24959862  1  -0.044107  0  -0.087038  -0.12607  0  3.964073  0
C  C55  1  0.86586449  0.52024694  0.75040238  1  -0.044135  0  -0.087038  -0.126091  0  3.964162  0
C  C56  1  0.15453051  0.37264380  0.27046460  1  -0.010259  0  -0.025098  -0.042344  0  3.998468  0
C  C57  1  0.84546831  0.62735497  0.72953623  1  -0.010244  0  -0.025094  -0.042287  0  3.998515  0
C  C58  1  0.08703204  0.26977822  0.18269973  1  1.574422  0  0.193486  0.548278  0  4.261636  0
C  C59  1  0.91296426  0.73022140  0.81730263  1  1.574367  0  0.19354  0.548298  0  4.261589  0
C  C60  1  0.24659103  0.36427743  0.36800886  1  -0.030822  0  -0.091912  -0.101819  0  3.990442  0
C  C61  1  0.75340796  0.63572219  0.63199213  1  -0.030843  0  -0.091868  -0.101762  0  3.990291  0
C  C62  1  0.31721995  0.46131106  0.44182828  1  -0.060491  0  -0.090363  -0.114719  0  3.984809  0
C  C63  1  0.68278261  0.53868855  0.55817162  1  -0.060278  0  -0.090364  -0.114729  0  3.984744  0
C  C64  1  0.29996282  0.56912045  0.41937712  1  -0.021879  0  -0.003616  0.018872  0  3.953014  0
C  C65  1  0.70003764  0.43087748  0.58062115  1  -0.022017  0  -0.003616  0.018837  0  3.952958  0
C  C66  1  0.38748549  0.66928205  0.49263284  1  0.524319  0  0.125658  0.222404  0  3.995253  0
C  C67  1  0.61251116  0.33071926  0.50736463  1  0.524185  0  0.125632  0.222344  0  3.995186  0
C  C68  1  0.42945548  0.75723924  0.44961885  1  -0.082204  0  -0.086611  -0.166247  0  3.944548  0
C  C69  1  0.57054618  0.24276037  0.55038226  1  -0.082194  0  -0.086601  -0.166182  0  3.944333  0
C  C70  1  0.51605043  0.84738874  0.51975517  1  -0.057336  0  -0.073075  -0.053938  0  3.974293  0
C  C71  1  0.48395197  0.15261003  0.48024457  1  -0.057354  0  -0.073104  -0.053976  0  3.974389  0
C  C72  1  0.55987573  0.84903411  0.63180438  1  -0.037277  0  -0.022505  -0.092835  0  3.972534  0
C  C73  1  0.44012545  0.15096297  0.36819700  1  -0.037113  0  -0.022529  -0.092866  0  3.972633  0
C  C74  1  0.65956681  0.94068908  0.71066513  1  1.595914  0  0.203076  0.585697  0  4.232234  0
C  C75  1  0.34043259  0.05930800  0.28933493  1  1.596123  0  0.203076  0.585742  0  4.232349  0
C  C76  1  0.51272169  0.75777801  0.66702858  1  0.528698  0  0.043634  0.081154  0  3.986743  0
C  C77  1  0.48727634  0.24221653  0.33296848  1  0.528495  0  0.043703  0.081256  0  3.986601  0
C  C78  1  0.87223584  0.66505214  0.17638694  1  0.529661  0  0.059654  0.113515  0  3.945907  0
C  C79  1  0.12776600  0.33494832  0.82361209  1  0.529437  0  0.059641  0.113433  0  3.945839  0
C  C80  1  0.78021649  0.59973628  0.19575801  1  -0.012233  0  -0.085868  -0.135927  0  3.998185  0
C  C81  1  0.21978551  0.40026503  0.80424043  1  -0.012339  0  -0.085857  -0.135803  0  3.998131  0
C  C82  1  0.72350533  0.65203772  0.25779408  1  -0.05897  0  -0.064099  -0.077261  0  3.932404  0
C  C83  1  0.27649578  0.34796359  0.74220333  1  -0.058638  0  -0.064084  -0.077307  0  3.932519  0
C  C84  1  0.76020988  0.76907377  0.30196805  1  -0.038726  0  -0.002179  0.043008  0  4.014099  0
C  C85  1  0.23979050  0.23092838  0.69802923  1  -0.038903  0  -0.002171  0.042941  0  4.014257  0
C  C86  1  0.85731915  0.82691265  0.28127333  1  0.497067  0  0.118197  0.121601  0  3.969152  0
C  C87  1  0.14268317  0.17309035  0.71872692  1  0.497464  0  0.118179  0.121735  0  3.969052  0
C  C88  1  0.70672862  0.82941478  0.36747365  1  0.016935  0  -0.088029  -0.130519  0  3.992704  0
C  C89  1  0.29327338  0.17058653  0.63252405  1  0.017353  0  -0.088013  -0.130418  0  3.992666  0
C  C90  1  0.74823964  0.94184997  0.41146359  1  -0.08156  0  -0.078735  -0.110013  0  3.963427  0
C  C91  1  0.25176147  0.05815134  0.58853456  1  -0.081852  0  -0.078782  -0.110106  0  3.963537  0
C  C92  1  0.84725191  0.00234827  0.39416557  1  0.031937  0  -0.003854  0.039281  0  4.004674  0
C  C93  1  0.15275024  0.99765388  0.60583527  1  0.031985  0  -0.003815  0.039355  0  4.004816  0
C  C94  1  0.90353786  0.94507664  0.33063023  1  0.482965  0  0.117505  0.120491  0  3.982104  0
C  C95  1  0.09646535  0.05492636  0.66937106  1  0.48286  0  0.117544  0.120427  0  3.982097  0
C  C96  1  0.89423150  0.11795972  0.44067037  1  -0.063344  0  -0.059425  -0.069474  0  3.881713  0
C  C97  1  0.10577139  0.88204159  0.55932985  1  -0.063333  0  -0.059397  -0.069483  0  3.881677  0
C  C98  1  0.99324645  0.16958343  0.42419031  1  -0.071154  0  -0.083532  -0.131641  0  3.976772  0
C  C99  1  0.00675612  0.83041619  0.57580960  1  -0.071129  0  -0.083576  -0.13168  0  3.976643  0
C  C100  1  0.04561485  0.10550427  0.36301024  1  0.511077  0  0.056387  0.112969  0  3.946321  0
C  C101  1  0.95438699  0.89449619  0.63698954  1  0.511123  0  0.056422  0.113004  0  3.946314  0
C  C102  1  0.30781182  0.33275427  0.09011550  1  0.547725  0  0.060541  0.111063  0  3.945671  0
C  C103  1  0.69218717  0.66724535  0.90988549  1  0.547991  0  0.060514  0.110973  0  3.945654  0
C  C104  1  0.40751713  0.41303744  0.10052055  1  -0.045556  0  -0.082042  -0.129788  0  3.985436  0
C  C105  1  0.59248023  0.58696302  0.89948077  1  -0.0461  0  -0.08205  -0.12977  0  3.985384  0
C  C106  1  0.48664668  0.38040267  0.05319289  1  -0.096945  0  -0.068693  -0.087858  0  3.96113  0
C  C107  1  0.51335069  0.61959780  0.94680620  1  -0.096448  0  -0.068665  -0.08776  0  3.961153  0
C  C108  1  0.46558353  0.26903110  0.99466336  1  0.012093  0  -0.004718  0.041189  0  4.024311  0
C  C109  1  0.53441173  0.73096768  0.00533557  1  0.012179  0  -0.00478  0.041064  0  4.024443  0
C  C110  1  0.36306312  0.19336177  0.98992990  1  0.502347  0  0.119545  0.122877  0  3.962517  0
C  C111  1  0.63693304  0.80663701  0.01006933  1  0.502084  0  0.119569  0.122951  0  3.962515  0
C  C112  1  0.54284859  0.23095050  0.94190332  1  -0.101823  0  -0.086168  -0.133287  0  3.996658  0
C  C113  1  0.45715040  0.76904912  0.05809842  1  -0.101896  0  -0.086154  -0.133291  0  3.996651  0
C  C114  1  0.51949531  0.12250018  0.88608737  1  0.018848  0  -0.078552  -0.10267  0  3.946991  0
C  C115  1  0.48050457  0.87749944  0.11391391  1  0.018874  0  -0.078493  -0.102544  0  3.947014  0
C  C116  1  0.41762898  0.04392230  0.87993276  1  0.003009  0  0.000661  0.043645  0  3.995658  0
C  C117  1  0.58237017  0.95607816  0.12006764  1  0.002956  0  0.00059  0.043583  0  3.995646  0
C  C118  1  0.33963487  0.07768496  0.93245779  1  0.488144  0  0.118301  0.121025  0  3.964729  0
C  C119  1  0.66036355  0.92231635  0.06754323  1  0.488365  0  0.118304  0.120997  0  3.964764  0
C  C120  1  0.39158281  0.93101835  0.82329813  1  -0.077364  0  -0.05894  -0.06394  0  3.908325  0
C  C121  1  0.60842007  0.06898295  0.17670283  1  -0.077499  0  -0.058955  -0.063975  0  3.908433  0
C  C122  1  0.29343479  0.85817390  0.82139073  1  0.032327  0  -0.080173  -0.124138  0  3.978919  0
C  C123  1  0.70656704  0.14182656  0.17860979  1  0.032124  0  -0.080182  -0.124183  0  3.978969  0
C  C124  1  0.22219159  0.89780772  0.87745465  1  0.467828  0  0.061136  0.112527  0  3.914382  0
C  C125  1  0.77780772  0.10219359  0.12254740  1  0.468092  0  0.06113  0.112536  0  3.914325  0
N  N126  1  0.42974445  0.66953471  0.60051220  1  -1.184968  0  -0.330444  -0.326832  0  3.294429  0
N  N127  1  0.57025155  0.33046322  0.39948537  1  -1.18475  0  -0.330456  -0.326876  0  3.294408  0
N  N128  1  0.90954256  0.77461946  0.21825471  1  -1.226203  0  -0.313992  -0.266724  0  3.488118  0
N  N129  1  0.09045943  0.22538184  0.78174672  1  -1.226493  0  -0.313988  -0.266749  0  3.488014  0
N  N130  1  0.00171146  0.99716690  0.31706191  1  -1.245436  0  -0.320614  -0.274375  0  3.490162  0
N  N131  1  0.99829158  0.00283525  0.68293921  1  -1.245308  0  -0.320607  -0.274346  0  3.490122  0
N  N132  1  0.28705578  0.22656591  0.03769567  1  -1.212389  0  -0.311869  -0.271823  0  3.481934  0
N  N133  1  0.71294215  0.77343286  0.96230413  1  -1.212563  0  -0.311842  -0.271806  0  3.481932  0
N  N134  1  0.24474487  0.00404633  0.93079734  1  -1.246798  0  -0.321547  -0.268425  0  3.497648  0
N  N135  1  0.75525307  0.99595244  0.06920246  1  -1.24667  0  -0.321512  -0.268346  0  3.497553  0
O  O136  1  0.16284781  0.76111730  0.36790412  1  -1.17822  0  -0.331419  -0.563454  0  2.197809  0
O  O137  1  0.83715563  0.23888231  0.63209980  1  -1.178183  0  -0.331382  -0.563399  0  2.197901  0
O  O138  1  0.16014326  0.70530955  0.19981346  1  -1.150822  0  -0.348457  -0.567051  0  2.131377  0
O  O139  1  0.83985029  0.29469430  0.80018631  1  -1.150838  0  -0.348508  -0.567072  0  2.131445  0
O  O140  1  0.13613517  0.18123176  0.19332611  1  -1.175378  0  -0.33961  -0.577092  0  2.306351  0
O  O141  1  0.86386398  0.81876870  0.80667504  1  -1.175323  0  -0.339662  -0.577144  0  2.306279  0
O  O142  1  0.99278177  0.27848065  0.10444140  1  -1.186944  0  -0.330113  -0.548074  0  2.137359  0
O  O143  1  0.00721811  0.72151897  0.89555839  1  -1.186927  0  -0.330108  -0.548062  0  2.137379  0
O  O144  1  0.67209323  0.95590878  0.81013571  1  -1.183051  0  -0.335324  -0.590445  0  2.297648  0
O  O145  1  0.32790470  0.04408999  0.18986632  1  -1.183192  0  -0.335315  -0.590412  0  2.297726  0
O  O146  1  0.72373689  0.99593524  0.66987132  1  -1.162405  0  -0.326207  -0.54922  0  2.267816  0
O  O147  1  0.27626428  0.00406184  0.33013155  1  -1.162509  0  -0.326215  -0.54928  0  2.267825  0
O  O148  1  0.04087039  0.90352084  0.05563382  1  -1.225142  0  -0.601289  -0.849212  0  2.169664  0
O  O149  1  0.95912917  0.09647709  0.94436715  1  -1.225161  0  -0.601294  -0.84924  0  2.16965  0
