# generated using pymatgen
data_ZnH26C14(N2O5)2
_symmetry_space_group_name_H-M   'P 1'
_cell_length_a   7.34661576
_cell_length_b   11.59321865
_cell_length_c   13.06075318
_cell_angle_alpha   89.99987651
_cell_angle_beta   102.67633929
_cell_angle_gamma   89.99935630
_symmetry_Int_Tables_number   1
_chemical_formula_structural   ZnH26C14(N2O5)2
_chemical_formula_sum   'Zn2 H52 C28 N8 O20'
_cell_volume   1085.28201429
_cell_formula_units_Z   2
loop_
 _symmetry_equiv_pos_site_id
 _symmetry_equiv_pos_as_xyz
  1  'x, y, z'
loop_
 _atom_site_type_symbol
 _atom_site_label
 _atom_site_symmetry_multiplicity
 _atom_site_fract_x
 _atom_site_fract_y
 _atom_site_fract_z
 _atom_site_occupancy
 _atom_site_hle17_bader_spin_density
 _atom_site_hle17_ddec_charge
 _atom_site_hle17_ddec_spin_density
 _atom_site_hle17_ddec_sum_bond_order
 _atom_site_hle17_magmom
 _atom_site_hse06_10hf_bader_spin_density
 _atom_site_hse06_10hf_ddec_charge
 _atom_site_hse06_10hf_ddec_spin_density
 _atom_site_hse06_10hf_ddec_sum_bond_order
 _atom_site_hse06_10hf_magmom
 _atom_site_hse06_bader_spin_density
 _atom_site_hse06_ddec_charge
 _atom_site_hse06_ddec_spin_density
 _atom_site_hse06_ddec_sum_bond_order
 _atom_site_hse06_magmom
 _atom_site_pbe_bader_spin_density
 _atom_site_pbe_cm5_charge
 _atom_site_pbe_ddec_charge
 _atom_site_pbe_ddec_spin_density
 _atom_site_pbe_ddec_sum_bond_order
 _atom_site_pbe_magmom
Zn  Zn0  1  0.00000167  0.99999867  0.49999956  1  0  1.225988  0  1.723587  0  0  1.068771  0  2.184136  0  0  1.115559  0  2.120578  0  0  0.688792  1.035595  0  2.228084  0
Zn  Zn1  1  0.99999921  0.50000437  0.00000174  1  0  1.225988  0  1.723584  0  0  1.068743  0  2.18414  0  0  1.115532  0  2.120582  0  0  0.688783  1.03557  0  2.228103  0
H  H2  1  0.62489078  0.93989592  0.41837271  1  0  0.429657  0  0.832549  0  0  0.405941  0  0.897877  0  0  0.415313  0  0.885731  0  0  0.309373  0.399198  0  0.906084  0
H  H3  1  0.37511510  0.43989627  0.08162666  1  0  0.429616  0  0.832595  0  0  0.405901  0  0.897919  0  0  0.415273  0  0.885784  0  0  0.309337  0.39916  0  0.906123  0
H  H4  1  0.37510801  0.06010210  0.58162709  1  0  0.429657  0  0.832584  0  0  0.405951  0  0.897892  0  0  0.415325  0  0.885723  0  0  0.309368  0.399205  0  0.906099  0
H  H5  1  0.62487945  0.56010520  0.91837489  1  0  0.42958  0  0.832664  0  0  0.405861  0  0.897983  0  0  0.415234  0  0.885837  0  0  0.309326  0.399124  0  0.90618  0
H  H6  1  0.66350140  0.05786714  0.48021864  1  0  0.407696  0  0.905015  0  0  0.374776  0  0.977507  0  0  0.386137  0  0.961276  0  0  0.287156  0.366792  0  0.988886  0
H  H7  1  0.33650630  0.55787234  0.01978626  1  0  0.407735  0  0.904965  0  0  0.374787  0  0.977497  0  0  0.386147  0  0.961267  0  0  0.287173  0.366807  0  0.988871  0
H  H8  1  0.33650999  0.94212829  0.51978129  1  0  0.407686  0  0.904979  0  0  0.374744  0  0.977538  0  0  0.386104  0  0.961309  0  0  0.287159  0.366766  0  0.988907  0
H  H9  1  0.66348962  0.44212913  0.98021623  1  0  0.40768  0  0.905011  0  0  0.374734  0  0.977565  0  0  0.386094  0  0.961334  0  0  0.287154  0.366751  0  0.988941  0
H  H10  1  0.11108474  0.23102523  0.69873971  1  0  0.312933  0  0.892951  0  0  0.297414  0  0.948089  0  0  0.305576  0  0.941806  0  0  0.319259  0.291615  0  0.952629  0
H  H11  1  0.88890779  0.73101985  0.80126033  1  0  0.312881  0  0.892996  0  0  0.297436  0  0.948022  0  0  0.3056  0  0.941736  0  0  0.319251  0.291638  0  0.952564  0
H  H12  1  0.88892105  0.76897624  0.30126025  1  0  0.312926  0  0.892835  0  0  0.297372  0  0.948043  0  0  0.305533  0  0.94176  0  0  0.319221  0.291571  0  0.952587  0
H  H13  1  0.11107986  0.26897904  0.19873725  1  0  0.31302  0  0.892762  0  0  0.297371  0  0.948099  0  0  0.30553  0  0.94182  0  0  0.319215  0.291574  0  0.952639  0
H  H14  1  0.71048481  0.37372713  0.78686332  1  0  0.307296  0  0.895634  0  0  0.291279  0  0.957929  0  0  0.298103  0  0.953176  0  0  0.308898  0.286412  0  0.961384  0
H  H15  1  0.28950215  0.87372790  0.71313420  1  0  0.307279  0  0.895682  0  0  0.291259  0  0.957987  0  0  0.298085  0  0.953228  0  0  0.308896  0.286389  0  0.961439  0
H  H16  1  0.28952652  0.62626399  0.21313890  1  0  0.30725  0  0.895693  0  0  0.291211  0  0.957995  0  0  0.298034  0  0.953241  0  0  0.308885  0.286342  0  0.961443  0
H  H17  1  0.71048823  0.12627185  0.28686604  1  0  0.307253  0  0.895697  0  0  0.291239  0  0.957998  0  0  0.298062  0  0.953243  0  0  0.308866  0.286373  0  0.961447  0
H  H18  1  0.65229139  0.13054724  0.79373769  1  0  0.111746  0  0.976916  0  0  0.129492  0  1.045526  0  0  0.130616  0  1.045755  0  0  0.090691  0.128615  0  1.045425  0
H  H19  1  0.34770022  0.63054588  0.70626624  1  0  0.111789  0  0.976989  0  0  0.12952  0  1.04561  0  0  0.130645  0  1.045836  0  0  0.090698  0.128641  0  1.045514  0
H  H20  1  0.34771286  0.86945078  0.20626742  1  0  0.111921  0  0.976989  0  0  0.129616  0  1.045616  0  0  0.130739  0  1.045839  0  0  0.090709  0.128739  0  1.04552  0
H  H21  1  0.65228743  0.36945559  0.29373134  1  0  0.111913  0  0.977014  0  0  0.129593  0  1.045658  0  0  0.130718  0  1.045878  0  0  0.090715  0.128718  0  1.04556  0
H  H22  1  0.82242964  0.20254034  0.89126188  1  0  0.153834  0  0.939148  0  0  0.172426  0  0.995396  0  0  0.175522  0  0.993596  0  0  0.10332  0.170142  0  0.996813  0
H  H23  1  0.17756203  0.70253782  0.60873887  1  0  0.153868  0  0.93901  0  0  0.172459  0  0.995278  0  0  0.175554  0  0.993476  0  0  0.103337  0.170175  0  0.99669  0
H  H24  1  0.17758446  0.79746200  0.10874147  1  0  0.153876  0  0.939063  0  0  0.172463  0  0.995296  0  0  0.175557  0  0.993501  0  0  0.103322  0.170174  0  0.996715  0
H  H25  1  0.82242275  0.29746797  0.39126140  1  0  0.153854  0  0.939077  0  0  0.172468  0  0.995279  0  0  0.17556  0  0.993488  0  0  0.103336  0.170186  0  0.996692  0
H  H26  1  0.88741315  0.08030838  0.82600470  1  0  0.129452  0  0.922766  0  0  0.15293  0  0.975038  0  0  0.154334  0  0.975146  0  0  0.098587  0.151837  0  0.975062  0
H  H27  1  0.11257668  0.58031048  0.67399832  1  0  0.129433  0  0.922692  0  0  0.152943  0  0.974938  0  0  0.154345  0  0.975049  0  0  0.098589  0.151846  0  0.974967  0
H  H28  1  0.11259117  0.91969050  0.17399813  1  0  0.129525  0  0.922617  0  0  0.153018  0  0.97487  0  0  0.15442  0  0.974974  0  0  0.09861  0.151923  0  0.974894  0
H  H29  1  0.88740535  0.41969358  0.32600005  1  0  0.129456  0  0.922632  0  0  0.152924  0  0.974927  0  0  0.154324  0  0.975033  0  0  0.098586  0.151829  0  0.97495  0
H  H30  1  0.64353691  0.94346749  0.65485228  1  0  0.143623  0  0.970111  0  0  0.159122  0  1.0348  0  0  0.161897  0  1.034316  0  0  0.101176  0.15711  0  1.035239  0
H  H31  1  0.35644740  0.44347598  0.84514017  1  0  0.143625  0  0.970053  0  0  0.159068  0  1.034837  0  0  0.161843  0  1.034354  0  0  0.10111  0.157059  0  1.035274  0
H  H32  1  0.35644258  0.05652277  0.34513581  1  0  0.14364  0  0.970029  0  0  0.15909  0  1.034801  0  0  0.161865  0  1.034317  0  0  0.101136  0.157082  0  1.035233  0
H  H33  1  0.64355432  0.55653067  0.15485466  1  0  0.14363  0  0.970119  0  0  0.159077  0  1.034887  0  0  0.161851  0  1.034404  0  0  0.10117  0.157071  0  1.035318  0
H  H34  1  0.61634703  0.81384690  0.72393723  1  0  0.133745  0  0.942683  0  0  0.152155  0  1.001608  0  0  0.155001  0  1.00032  0  0  0.098738  0.150068  0  1.002619  0
H  H35  1  0.38363993  0.31385968  0.77605198  1  0  0.133669  0  0.942857  0  0  0.152222  0  1.00161  0  0  0.155071  0  1.000321  0  0  0.098744  0.150127  0  1.002627  0
H  H36  1  0.38363807  0.18613904  0.27605083  1  0  0.133704  0  0.94285  0  0  0.152246  0  1.001614  0  0  0.155095  0  1.000324  0  0  0.098753  0.150151  0  1.002634  0
H  H37  1  0.61636748  0.68614956  0.22393901  1  0  0.133661  0  0.942913  0  0  0.152105  0  1.001796  0  0  0.154955  0  1.000503  0  0  0.098688  0.150011  0  1.002817  0
H  H38  1  0.58746685  0.81348834  0.58440076  1  0  0.154001  0  0.934364  0  0  0.174005  0  0.988916  0  0  0.177247  0  0.987306  0  0  0.107025  0.171669  0  0.990128  0
H  H39  1  0.41253697  0.31349799  0.91558606  1  0  0.153962  0  0.934322  0  0  0.174013  0  0.988838  0  0  0.177255  0  0.987229  0  0  0.107059  0.17168  0  0.990048  0
H  H40  1  0.41253512  0.18649933  0.41558415  1  0  0.153929  0  0.934356  0  0  0.174001  0  0.98885  0  0  0.177243  0  0.98724  0  0  0.107031  0.171665  0  0.990059  0
H  H41  1  0.58747046  0.68651210  0.08440416  1  0  0.153917  0  0.934398  0  0  0.173921  0  0.988964  0  0  0.177166  0  0.987347  0  0  0.106994  0.171587  0  0.990174  0
H  H42  1  0.47797138  0.51820747  0.59439040  1  0  0.15039  0  0.937927  0  0  0.170239  0  0.994745  0  0  0.172849  0  0.994051  0  0  0.10654  0.168325  0  0.995315  0
H  H43  1  0.52202810  0.01820258  0.90561170  1  0  0.150334  0  0.937882  0  0  0.170202  0  0.994703  0  0  0.172814  0  0.994006  0  0  0.106511  0.168288  0  0.995276  0
H  H44  1  0.52203119  0.48179487  0.40562598  1  0  0.150404  0  0.937968  0  0  0.170245  0  0.994793  0  0  0.172855  0  0.994097  0  0  0.106539  0.168326  0  0.995365  0
H  H45  1  0.47796656  0.98180148  0.09438527  1  0  0.150315  0  0.937974  0  0  0.170189  0  0.99478  0  0  0.172799  0  0.994085  0  0  0.106508  0.168275  0  0.995357  0
H  H46  1  0.69360803  0.58964933  0.60345765  1  0  0.141429  0  0.931946  0  0  0.163036  0  0.985171  0  0  0.165221  0  0.984745  0  0  0.103244  0.161472  0  0.985481  0
H  H47  1  0.30639560  0.08965201  0.89654564  1  0  0.14143  0  0.931907  0  0  0.163037  0  0.985131  0  0  0.165221  0  0.984706  0  0  0.103241  0.161474  0  0.985449  0
H  H48  1  0.30639432  0.41034869  0.39656713  1  0  0.141514  0  0.931617  0  0  0.163052  0  0.984953  0  0  0.165237  0  0.984523  0  0  0.103253  0.161485  0  0.985266  0
H  H49  1  0.69360319  0.91035550  0.10345417  1  0  0.141413  0  0.932061  0  0  0.163039  0  0.985251  0  0  0.165223  0  0.984828  0  0  0.103243  0.161476  0  0.98556  0
H  H50  1  0.62167421  0.54757657  0.72071008  1  0  0.126244  0  0.957585  0  0  0.145859  0  1.018406  0  0  0.148769  0  1.016474  0  0  0.094504  0.143749  0  1.019856  0
H  H51  1  0.37832611  0.04757816  0.77929132  1  0  0.126226  0  0.957469  0  0  0.145849  0  1.018298  0  0  0.14876  0  1.016365  0  0  0.09449  0.143744  0  1.019739  0
H  H52  1  0.37833105  0.45241196  0.27931048  1  0  0.12621  0  0.957648  0  0  0.145851  0  1.01839  0  0  0.148738  0  1.01649  0  0  0.094479  0.143739  0  1.019843  0
H  H53  1  0.62166856  0.95242590  0.22070565  1  0  0.126292  0  0.95742  0  0  0.145865  0  1.018282  0  0  0.148776  0  1.016345  0  0  0.094496  0.143757  0  1.019729  0
C  C54  1  0.80739996  0.16128814  0.62659152  1  0  0.626011  0  3.823452  0  0  0.574824  0  4.126075  0  0  0.608307  0  4.118043  0  0  0.228609  0.551909  0  4.131078  0
C  C55  1  0.19262594  0.66129093  0.87341609  1  0  0.625849  0  3.823343  0  0  0.574594  0  4.126077  0  0  0.608074  0  4.118049  0  0  0.228531  0.551696  0  4.131062  0
C  C56  1  0.19263781  0.83870644  0.37341646  1  0  0.625808  0  3.823324  0  0  0.574671  0  4.126039  0  0  0.60817  0  4.117996  0  0  0.228544  0.551759  0  4.131039  0
C  C57  1  0.80736864  0.33870968  0.12658393  1  0  0.625964  0  3.823531  0  0  0.574831  0  4.12616  0  0  0.608324  0  4.118118  0  0  0.228665  0.55193  0  4.131147  0
C  C58  1  0.84319567  0.23427711  0.72936471  1  0  0.339187  0  3.595705  0  0  0.321266  0  3.847477  0  0  0.328709  0  3.859523  0  0  0.18371  0.31605  0  3.839352  0
C  C59  1  0.15679685  0.73428557  0.77063303  1  0  0.339278  0  3.595594  0  0  0.321383  0  3.847331  0  0  0.328833  0  3.859365  0  0  0.183672  0.316153  0  3.83922  0
C  C60  1  0.15680874  0.76571401  0.27063430  1  0  0.339337  0  3.595553  0  0  0.321002  0  3.847984  0  0  0.328408  0  3.860029  0  0  0.183636  0.315773  0  3.839867  0
C  C61  1  0.84319226  0.26572280  0.22936245  1  0  0.33933  0  3.595554  0  0  0.321139  0  3.847767  0  0  0.328557  0  3.859814  0  0  0.18366  0.31592  0  3.839641  0
C  C62  1  0.79829975  0.15731235  0.81591365  1  0  -0.383728  0  3.622069  0  0  -0.468887  0  3.862605  0  0  -0.472148  0  3.869579  0  0  -0.241113  -0.466358  0  3.857897  0
C  C63  1  0.20170535  0.65731552  0.68408970  1  0  -0.383844  0  3.621945  0  0  -0.469029  0  3.862482  0  0  -0.472289  0  3.869452  0  0  -0.241159  -0.466499  0  3.857785  0
C  C64  1  0.20171712  0.84268654  0.18409082  1  0  -0.3841  0  3.622078  0  0  -0.469159  0  3.862757  0  0  -0.472397  0  3.869724  0  0  -0.241164  -0.466623  0  3.858055  0
C  C65  1  0.79828087  0.34269027  0.31590922  1  0  -0.383982  0  3.622064  0  0  -0.469041  0  3.862744  0  0  -0.472285  0  3.869715  0  0  -0.241178  -0.466516  0  3.858032  0
C  C66  1  0.87171281  0.82790947  0.66665116  1  0  0.677059  0  3.772402  0  0  0.637646  0  4.05629  0  0  0.667714  0  4.054776  0  0  0.25215  0.617277  0  4.056694  0
C  C67  1  0.12828745  0.32791700  0.83335431  1  0  0.677069  0  3.772214  0  0  0.637589  0  4.056202  0  0  0.667662  0  4.05468  0  0  0.252067  0.617222  0  4.056609  0
C  C68  1  0.12829296  0.17208856  0.33334956  1  0  0.677123  0  3.772099  0  0  0.637608  0  4.056166  0  0  0.667681  0  4.054635  0  0  0.252098  0.61724  0  4.056566  0
C  C69  1  0.87171833  0.67208965  0.16664565  1  0  0.676875  0  3.772518  0  0  0.637452  0  4.056467  0  0  0.667525  0  4.054935  0  0  0.252026  0.617072  0  4.056878  0
C  C70  1  0.66788898  0.85015250  0.65812731  1  0  -0.461672  0  3.660506  0  0  -0.538399  0  3.895731  0  0  -0.545539  0  3.898007  0  0  -0.245111  -0.533304  0  3.894128  0
C  C71  1  0.33211263  0.35016117  0.84186298  1  0  -0.461552  0  3.660353  0  0  -0.538394  0  3.895556  0  0  -0.545527  0  3.897806  0  0  -0.245092  -0.533284  0  3.893955  0
C  C72  1  0.33211148  0.14983862  0.34186199  1  0  -0.461593  0  3.66048  0  0  -0.538405  0  3.895673  0  0  -0.545543  0  3.897934  0  0  -0.245091  -0.533302  0  3.894069  0
C  C73  1  0.66789476  0.64984634  0.15812877  1  0  -0.461431  0  3.660728  0  0  -0.538114  0  3.895875  0  0  -0.545256  0  3.898148  0  0  -0.244983  -0.533009  0  3.894276  0
C  C74  1  0.71939829  0.40922907  0.63408706  1  0  0.644341  0  3.792936  0  0  0.607981  0  4.086209  0  0  0.636819  0  4.084514  0  0  0.235417  0.588394  0  4.086711  0
C  C75  1  0.28059503  0.90923471  0.86590816  1  0  0.644335  0  3.792714  0  0  0.607949  0  4.086051  0  0  0.636763  0  4.084393  0  0  0.235409  0.588357  0  4.086556  0
C  C76  1  0.28060192  0.59076550  0.36591217  1  0  0.643936  0  3.793037  0  0  0.607639  0  4.086165  0  0  0.636428  0  4.084538  0  0  0.235338  0.588052  0  4.086659  0
C  C77  1  0.71939832  0.09076935  0.13408557  1  0  0.64435  0  3.792858  0  0  0.608059  0  4.086029  0  0  0.636882  0  4.084345  0  0  0.235434  0.588468  0  4.086539  0
C  C78  1  0.62272677  0.52307527  0.63977363  1  0  -0.449913  0  3.658826  0  0  -0.527068  0  3.890737  0  0  -0.533788  0  3.893915  0  0  -0.240161  -0.522195  0  3.888406  0
C  C79  1  0.37726983  0.02307668  0.86022809  1  0  -0.449838  0  3.658646  0  0  -0.527016  0  3.89058  0  0  -0.53373  0  3.893765  0  0  -0.240108  -0.522143  0  3.888251  0
C  C80  1  0.37727435  0.47692103  0.36024485  1  0  -0.449885  0  3.658834  0  0  -0.527008  0  3.890744  0  0  -0.533699  0  3.893972  0  0  -0.240113  -0.522133  0  3.888415  0
C  C81  1  0.62272768  0.97692738  0.13976696  1  0  -0.449852  0  3.65884  0  0  -0.527017  0  3.890726  0  0  -0.533735  0  3.893908  0  0  -0.240086  -0.522143  0  3.888396  0
N  N82  1  0.04200222  0.26418531  0.75174924  1  0  -0.497811  0  3.276317  0  0  -0.444877  0  3.516452  0  0  -0.467664  0  3.524127  0  0  -0.411611  -0.42941  0  3.511025  0
N  N83  1  0.95800090  0.76418647  0.74824830  1  0  -0.497623  0  3.276762  0  0  -0.444777  0  3.516834  0  0  -0.467559  0  3.524507  0  0  -0.411586  -0.42932  0  3.511412  0
N  N84  1  0.95800362  0.73581443  0.24824843  1  0  -0.497733  0  3.276422  0  0  -0.444701  0  3.516659  0  0  -0.467464  0  3.524325  0  0  -0.411591  -0.429229  0  3.511235  0
N  N85  1  0.04199791  0.23581759  0.25175074  1  0  -0.49784  0  3.276349  0  0  -0.444747  0  3.516641  0  0  -0.467515  0  3.524311  0  0  -0.411582  -0.42929  0  3.511215  0
N  N86  1  0.72911930  0.33768711  0.71845544  1  0  -0.520879  0  3.228346  0  0  -0.470909  0  3.473737  0  0  -0.49276  0  3.480168  0  0  -0.424092  -0.455758  0  3.468998  0
N  N87  1  0.27087395  0.83769130  0.78154297  1  0  -0.520803  0  3.228438  0  0  -0.470833  0  3.473828  0  0  -0.492679  0  3.480264  0  0  -0.42405  -0.455673  0  3.469083  0
N  N88  1  0.27088356  0.66230573  0.28154950  1  0  -0.520605  0  3.228618  0  0  -0.47046  0  3.473974  0  0  -0.492275  0  3.480421  0  0  -0.423949  -0.455301  0  3.469225  0
N  N89  1  0.72912203  0.16231017  0.21845723  1  0  -0.520859  0  3.228244  0  0  -0.470858  0  3.473714  0  0  -0.492694  0  3.480145  0  0  -0.424027  -0.455702  0  3.46897  0
O  O90  1  0.95546057  0.12395116  0.60218252  1  0  -0.644206  0  2.106423  0  0  -0.580156  0  2.367974  0  0  -0.608027  0  2.354325  0  0  -0.317325  -0.560737  0  2.376833  0
O  O91  1  0.04454392  0.62394286  0.89781546  1  0  -0.6443  0  2.106279  0  0  -0.580244  0  2.367867  0  0  -0.608115  0  2.354207  0  0  -0.317301  -0.560825  0  2.376726  0
O  O92  1  0.04454380  0.87605204  0.39781802  1  0  -0.644316  0  2.106009  0  0  -0.580272  0  2.367582  0  0  -0.608152  0  2.353921  0  0  -0.317347  -0.560844  0  2.376431  0
O  O93  1  0.95544515  0.37605602  0.10218154  1  0  -0.644439  0  2.106301  0  0  -0.580325  0  2.367827  0  0  -0.608197  0  2.35416  0  0  -0.317377  -0.560904  0  2.376683  0
O  O94  1  0.64162639  0.13510191  0.58236300  1  0  -0.632861  0  1.99392  0  0  -0.581455  0  2.215277  0  0  -0.606458  0  2.20552  0  0  -0.320238  -0.564166  0  2.221719  0
O  O95  1  0.35838315  0.63512068  0.91764787  1  0  -0.632688  0  1.99428  0  0  -0.581173  0  2.215609  0  0  -0.606172  0  2.205854  0  0  -0.32013  -0.563893  0  2.222047  0
O  O96  1  0.35838338  0.86488145  0.41764514  1  0  -0.632667  0  1.994522  0  0  -0.581157  0  2.215815  0  0  -0.606158  0  2.206051  0  0  -0.320138  -0.563879  0  2.222259  0
O  O97  1  0.64161142  0.36487906  0.08235291  1  0  -0.632746  0  1.994296  0  0  -0.581261  0  2.215592  0  0  -0.606262  0  2.205831  0  0  -0.320192  -0.563981  0  2.222036  0
O  O98  1  0.95917490  0.86564768  0.60104168  1  0  -0.627835  0  2.06352  0  0  -0.565292  0  2.318887  0  0  -0.59058  0  2.307109  0  0  -0.307363  -0.547766  0  2.326454  0
O  O99  1  0.04083030  0.36564791  0.89896054  1  0  -0.627745  0  2.0637  0  0  -0.565186  0  2.319104  0  0  -0.590478  0  2.307333  0  0  -0.307278  -0.547673  0  2.326693  0
O  O100  1  0.04083083  0.13435552  0.39896056  1  0  -0.627753  0  2.063365  0  0  -0.565231  0  2.318817  0  0  -0.590534  0  2.307064  0  0  -0.307295  -0.547715  0  2.326402  0
O  O101  1  0.95917554  0.63436046  0.10103713  1  0  -0.627628  0  2.063718  0  0  -0.565149  0  2.319131  0  0  -0.590463  0  2.307396  0  0  -0.307242  -0.547621  0  2.326717  0
O  O102  1  0.78199119  0.38087098  0.55702966  1  0  -0.554732  0  1.876362  0  0  -0.51743  0  2.084642  0  0  -0.538379  0  2.078882  0  0  -0.300001  -0.502761  0  2.088115  0
O  O103  1  0.21800259  0.88087775  0.94296950  1  0  -0.554805  0  1.87621  0  0  -0.517459  0  2.084477  0  0  -0.5384  0  2.078723  0  0  -0.300017  -0.502793  0  2.087953  0
O  O104  1  0.21798791  0.61912962  0.44297369  1  0  -0.554642  0  1.876074  0  0  -0.517343  0  2.084281  0  0  -0.538273  0  2.078534  0  0  -0.299997  -0.502676  0  2.087758  0
O  O105  1  0.78199332  0.11912976  0.05703376  1  0  -0.554746  0  1.87639  0  0  -0.517471  0  2.084659  0  0  -0.538418  0  2.078899  0  0  -0.300039  -0.502807  0  2.088139  0
O  O106  1  0.70246718  0.00936717  0.42389044  1  0  -0.828133  0  1.895765  0  0  -0.770411  0  2.104559  0  0  -0.790689  0  2.071911  0  0  -0.565814  -0.756081  0  2.126751  0
O  O107  1  0.29754010  0.50936733  0.07611373  1  0  -0.828088  0  1.895698  0  0  -0.770381  0  2.104529  0  0  -0.790658  0  2.071889  0  0  -0.565772  -0.756048  0  2.126717  0
O  O108  1  0.29753440  0.99063258  0.57610973  1  0  -0.828079  0  1.895698  0  0  -0.770374  0  2.104559  0  0  -0.790653  0  2.071891  0  0  -0.56579  -0.756045  0  2.126745  0
O  O109  1  0.70245861  0.49063414  0.92388913  1  0  -0.827998  0  1.895745  0  0  -0.770289  0  2.104609  0  0  -0.790568  0  2.071962  0  0  -0.565746  -0.755959  0  2.126795  0
