# generated using pymatgen
data_CdH6(C2N3)4
_symmetry_space_group_name_H-M   'P 1'
_cell_length_a   7.32343157
_cell_length_b   8.87252767
_cell_length_c   10.14519324
_cell_angle_alpha   81.43053095
_cell_angle_beta   68.83905859
_cell_angle_gamma   65.60965009
_symmetry_Int_Tables_number   1
_chemical_formula_structural   CdH6(C2N3)4
_chemical_formula_sum   'Cd2 H12 C16 N24'
_cell_volume   559.89233254
_cell_formula_units_Z   2
loop_
 _symmetry_equiv_pos_site_id
 _symmetry_equiv_pos_as_xyz
  1  'x, y, z'
loop_
 _atom_site_type_symbol
 _atom_site_label
 _atom_site_symmetry_multiplicity
 _atom_site_fract_x
 _atom_site_fract_y
 _atom_site_fract_z
 _atom_site_occupancy
 _atom_site_hle17_bader_spin_density
 _atom_site_hle17_ddec_charge
 _atom_site_hle17_ddec_spin_density
 _atom_site_hle17_ddec_sum_bond_order
 _atom_site_hle17_magmom
 _atom_site_hse06_10hf_bader_spin_density
 _atom_site_hse06_10hf_ddec_charge
 _atom_site_hse06_10hf_ddec_spin_density
 _atom_site_hse06_10hf_ddec_sum_bond_order
 _atom_site_hse06_10hf_magmom
 _atom_site_hse06_bader_spin_density
 _atom_site_hse06_ddec_charge
 _atom_site_hse06_ddec_spin_density
 _atom_site_hse06_ddec_sum_bond_order
 _atom_site_hse06_magmom
 _atom_site_pbe_bader_spin_density
 _atom_site_pbe_cm5_charge
 _atom_site_pbe_ddec_charge
 _atom_site_pbe_ddec_spin_density
 _atom_site_pbe_ddec_sum_bond_order
 _atom_site_pbe_magmom
Cd  Cd0  1  0.83193978  0.99994092  0.00002958  1  0  0.980001  0  1.821153  0  0  0.756534  0  2.274731  0  0  0.806823  0  2.237896  0  0  0.796946  0.720643  0  2.299862  0
Cd  Cd1  1  0.58185331  0.50000730  0.50001627  1  0  0.980381  0  1.821297  0  0  0.757045  0  2.27512  0  0  0.807263  0  2.238331  0  0  0.797366  0.721213  0  2.300218  0
H  H2  1  0.11221648  0.68148220  0.44461903  1  0  0.107431  0  0.958149  0  0  0.109731  0  1.031569  0  0  0.112826  0  1.028075  0  0  0.136244  0.107454  0  1.034154  0
H  H3  1  0.23830441  0.31845327  0.55553279  1  0  0.108106  0  0.957296  0  0  0.111108  0  1.029975  0  0  0.114254  0  1.026455  0  0  0.136274  0.108572  0  1.032904  0
H  H4  1  0.30691925  0.18150691  0.05539577  1  0  0.107213  0  0.957147  0  0  0.109643  0  1.030514  0  0  0.112784  0  1.026944  0  0  0.136174  0.107144  0  1.0334  0
H  H5  1  0.54384823  0.81854430  0.94435303  1  0  0.108986  0  0.955946  0  0  0.111373  0  1.02943  0  0  0.114442  0  1.026034  0  0  0.136762  0.10906  0  1.032042  0
H  H6  1  0.29701325  0.64656091  0.00040659  1  0  0.115821  0  0.959736  0  0  0.116693  0  1.035344  0  0  0.120259  0  1.031145  0  0  0.142766  0.114091  0  1.038306  0
H  H7  1  0.94383658  0.35341560  0.99971279  1  0  0.114932  0  0.960553  0  0  0.116149  0  1.03576  0  0  0.119629  0  1.031674  0  0  0.142772  0.113363  0  1.038959  0
H  H8  1  0.04721726  0.14678442  0.49959915  1  0  0.115729  0  0.960219  0  0  0.116663  0  1.035686  0  0  0.120164  0  1.031532  0  0  0.142714  0.113862  0  1.038958  0
H  H9  1  0.69352285  0.85337457  0.50019450  1  0  0.115374  0  0.959986  0  0  0.115875  0  1.036005  0  0  0.119442  0  1.03173  0  0  0.142765  0.113297  0  1.03896  0
H  H10  1  0.70363832  0.13458223  0.34859006  1  0  0.089134  0  0.982507  0  0  0.084791  0  1.072823  0  0  0.088423  0  1.067796  0  0  0.121531  0.081802  0  1.077045  0
H  H11  1  0.18629939  0.86537004  0.65139900  1  0  0.088384  0  0.983034  0  0  0.083912  0  1.073698  0  0  0.087592  0  1.068626  0  0  0.121136  0.081115  0  1.077515  0
H  H12  1  0.80203419  0.63456592  0.15166035  1  0  0.088336  0  0.983789  0  0  0.083685  0  1.074637  0  0  0.087417  0  1.069501  0  0  0.121045  0.080808  0  1.078535  0
H  H13  1  0.58796342  0.36526574  0.84856505  1  0  0.088383  0  0.983414  0  0  0.084038  0  1.073748  0  0  0.087673  0  1.068714  0  0  0.121121  0.081064  0  1.077902  0
C  C14  1  0.11297826  0.71252546  0.33676954  1  0  0.1722  0  3.624576  0  0  0.113  0  3.905379  0  0  0.12601  0  3.915115  0  0  0.15562  0.104524  0  3.898856  0
C  C15  1  0.16214384  0.28741076  0.66336386  1  0  0.171723  0  3.623411  0  0  0.112059  0  3.903927  0  0  0.12499  0  3.913752  0  0  0.155094  0.103344  0  3.89755  0
C  C16  1  0.19974375  0.21261507  0.16324310  1  0  0.173024  0  3.621006  0  0  0.113896  0  3.902101  0  0  0.126893  0  3.911843  0  0  0.155447  0.10513  0  3.895799  0
C  C17  1  0.57552871  0.78750743  0.83653644  1  0  0.170526  0  3.62094  0  0  0.111089  0  3.9017  0  0  0.124063  0  3.911452  0  0  0.154816  0.102657  0  3.895152  0
C  C18  1  0.21057035  0.69421605  0.10736806  1  0  0.182577  0  3.609233  0  0  0.116715  0  3.880944  0  0  0.131254  0  3.890985  0  0  0.160307  0.107397  0  3.873471  0
C  C19  1  0.01193057  0.30577129  0.89276587  1  0  0.186512  0  3.606227  0  0  0.120452  0  3.877729  0  0  0.135024  0  3.887784  0  0  0.161614  0.111268  0  3.870492  0
C  C20  1  0.06778437  0.19441063  0.39263173  1  0  0.183095  0  3.608368  0  0  0.117447  0  3.879646  0  0  0.132004  0  3.88975  0  0  0.161137  0.10826  0  3.872387  0
C  C21  1  0.65474687  0.80576053  0.60714951  1  0  0.185085  0  3.60511  0  0  0.119729  0  3.876732  0  0  0.134298  0  3.886791  0  0  0.161428  0.110394  0  3.869255  0
C  C22  1  0.62115013  0.23159434  0.28681162  1  0  0.209545  0  3.716944  0  0  0.151567  0  3.995446  0  0  0.165288  0  4.009016  0  0  0.123293  0.142734  0  3.986341  0
C  C23  1  0.13921003  0.76835059  0.71321750  1  0  0.210065  0  3.717097  0  0  0.152229  0  3.995438  0  0  0.165897  0  4.008987  0  0  0.123593  0.14365  0  3.985686  0
C  C24  1  0.65775960  0.73157836  0.21334568  1  0  0.210251  0  3.716637  0  0  0.152472  0  3.995012  0  0  0.166099  0  4.00856  0  0  0.124085  0.143958  0  3.985326  0
C  C25  1  0.60262782  0.26829301  0.78671242  1  0  0.210765  0  3.719357  0  0  0.153005  0  3.997274  0  0  0.166696  0  4.010875  0  0  0.124052  0.144216  0  3.988094  0
C  C26  1  0.42010491  0.45531801  0.22321928  1  0  0.42531  0  3.823935  0  0  0.379521  0  4.108449  0  0  0.397286  0  4.122557  0  0  0.308864  0.367868  0  4.098452  0
C  C27  1  0.09849958  0.54459029  0.77692134  1  0  0.421962  0  3.824645  0  0  0.376112  0  4.109244  0  0  0.393865  0  4.123419  0  0  0.307672  0.364306  0  4.099579  0
C  C28  1  0.39319126  0.95537179  0.27685157  1  0  0.420736  0  3.826637  0  0  0.374913  0  4.111316  0  0  0.392659  0  4.125509  0  0  0.306992  0.363108  0  4.101639  0
C  C29  1  0.62544610  0.04461267  0.72301828  1  0  0.423703  0  3.823359  0  0  0.376056  0  4.110579  0  0  0.393843  0  4.124697  0  0  0.307532  0.3644  0  4.100574  0
N  N30  1  0.98159520  0.84671618  0.29375793  1  0  -0.23062  0  2.934982  0  0  -0.210717  0  3.223279  0  0  -0.218954  0  3.237164  0  0  -0.22813  -0.205238  0  3.213966  0
N  N31  1  0.12200241  0.15323292  0.70638915  1  0  -0.230256  0  2.934726  0  0  -0.210433  0  3.223428  0  0  -0.218657  0  3.237367  0  0  -0.227461  -0.204659  0  3.213936  0
N  N32  1  0.02542317  0.34688110  0.20620754  1  0  -0.231605  0  2.933635  0  0  -0.21185  0  3.222189  0  0  -0.22009  0  3.236106  0  0  -0.227856  -0.206077  0  3.212758  0
N  N33  1  0.57835915  0.65331231  0.79355805  1  0  -0.231042  0  2.933352  0  0  -0.211052  0  3.221842  0  0  -0.219289  0  3.235751  0  0  -0.228276  -0.205567  0  3.212437  0
N  N34  1  0.04498050  0.83477095  0.14806840  1  0  -0.273261  0  3.115345  0  0  -0.210958  0  3.407963  0  0  -0.226051  0  3.422701  0  0  -0.240044  -0.200332  0  3.397407  0
N  N35  1  0.02767465  0.16521035  0.85208099  1  0  -0.2755  0  3.116698  0  0  -0.213371  0  3.409881  0  0  -0.228496  0  3.424561  0  0  -0.241206  -0.203018  0  3.399555  0
N  N36  1  0.94300600  0.33499929  0.35190053  1  0  -0.27303  0  3.115166  0  0  -0.210728  0  3.407787  0  0  -0.225827  0  3.422481  0  0  -0.240444  -0.200384  0  3.397493  0
N  N37  1  0.62975809  0.66522163  0.64787847  1  0  -0.274458  0  3.11615  0  0  -0.212348  0  3.409174  0  0  -0.227434  0  3.423847  0  0  -0.240323  -0.201735  0  3.398629  0
N  N38  1  0.26025274  0.61304993  0.22331290  1  0  -0.143146  0  3.552849  0  0  -0.051817  0  3.770159  0  0  -0.069661  0  3.790586  0  0  -0.206047  -0.040202  0  3.756109  0
N  N39  1  0.09647942  0.38690457  0.77681539  1  0  -0.143934  0  3.551236  0  0  -0.05254  0  3.76892  0  0  -0.070417  0  3.789355  0  0  -0.206441  -0.040897  0  3.754824  0
N  N40  1  0.23343445  0.11316285  0.27670716  1  0  -0.142267  0  3.550703  0  0  -0.051145  0  3.768394  0  0  -0.068986  0  3.788789  0  0  -0.20658  -0.039525  0  3.754316  0
N  N41  1  0.62328714  0.88692845  0.72308302  1  0  -0.143466  0  3.547269  0  0  -0.051633  0  3.765169  0  0  -0.069485  0  3.785547  0  0  -0.206363  -0.040005  0  3.751103  0
N  N42  1  0.52242630  0.36265159  0.10747320  1  0  -0.340168  0  2.938503  0  0  -0.318606  0  3.21576  0  0  -0.329997  0  3.232752  0  0  -0.245093  -0.310752  0  3.204656  0
N  N43  1  0.99246365  0.63726842  0.89266981  1  0  -0.337681  0  2.937101  0  0  -0.31559  0  3.214119  0  0  -0.327055  0  3.231162  0  0  -0.244725  -0.308431  0  3.202927  0
N  N44  1  0.37962713  0.86280065  0.39263010  1  0  -0.338255  0  2.938763  0  0  -0.3164  0  3.216235  0  0  -0.327856  0  3.233244  0  0  -0.244473  -0.309235  0  3.205073  0
N  N45  1  0.63511140  0.13730433  0.60730362  1  0  -0.338146  0  2.936319  0  0  -0.315893  0  3.214065  0  0  -0.327274  0  3.23102  0  0  -0.244294  -0.30806  0  3.203002  0
N  N46  1  0.65347974  0.21702089  0.15004149  1  0  -0.293269  0  3.235549  0  0  -0.212777  0  3.52157  0  0  -0.233303  0  3.542698  0  0  -0.268809  -0.198675  0  3.506966  0
N  N47  1  0.02034949  0.78290020  0.85003589  1  0  -0.29446  0  3.236229  0  0  -0.214046  0  3.522301  0  0  -0.234574  0  3.543454  0  0  -0.269314  -0.199763  0  3.507215  0
N  N48  1  0.55322992  0.71713909  0.35013967  1  0  -0.293377  0  3.234643  0  0  -0.212953  0  3.520588  0  0  -0.233473  0  3.541826  0  0  -0.268932  -0.198673  0  3.505468  0
N  N49  1  0.62045609  0.28290520  0.64993189  1  0  -0.295466  0  3.238053  0  0  -0.215205  0  3.524356  0  0  -0.235716  0  3.545473  0  0  -0.269621  -0.201129  0  3.509751  0
N  N50  1  0.47363856  0.38264893  0.33901978  1  0  -0.511713  0  3.050468  0  0  -0.445838  0  3.32957  0  0  -0.467112  0  3.340432  0  0  -0.358786  -0.431008  0  3.321748  0
N  N51  1  0.19493235  0.61730004  0.66104074  1  0  -0.509833  0  3.049118  0  0  -0.443949  0  3.328115  0  0  -0.465209  0  3.338964  0  0  -0.357806  -0.429256  0  3.320178  0
N  N52  1  0.56252435  0.88263591  0.16108071  1  0  -0.509792  0  3.050343  0  0  -0.443654  0  3.32919  0  0  -0.464976  0  3.340183  0  0  -0.357983  -0.428895  0  3.321097  0
N  N53  1  0.60614715  0.11725186  0.83886212  1  0  -0.510547  0  3.050352  0  0  -0.444003  0  3.329426  0  0  -0.465265  0  3.340313  0  0  -0.358155  -0.429185  0  3.321579  0
