# generated using pymatgen
data_CdH5C5BrN6O
_symmetry_space_group_name_H-M   'P 1'
_cell_length_a   7.70751234
_cell_length_b   9.12725718
_cell_length_c   13.92306329
_cell_angle_alpha   90.00002533
_cell_angle_beta   89.99743021
_cell_angle_gamma   94.69776931
_symmetry_Int_Tables_number   1
_chemical_formula_structural   CdH5C5BrN6O
_chemical_formula_sum   'Cd4 H20 C20 Br4 N24 O4'
_cell_volume   976.17544338
_cell_formula_units_Z   4
loop_
 _symmetry_equiv_pos_site_id
 _symmetry_equiv_pos_as_xyz
  1  'x, y, z'
loop_
 _atom_site_type_symbol
 _atom_site_label
 _atom_site_symmetry_multiplicity
 _atom_site_fract_x
 _atom_site_fract_y
 _atom_site_fract_z
 _atom_site_occupancy
 _atom_site_hle17_bader_spin_density
 _atom_site_hle17_ddec_charge
 _atom_site_hle17_ddec_spin_density
 _atom_site_hle17_ddec_sum_bond_order
 _atom_site_hle17_magmom
 _atom_site_hse06_10hf_bader_spin_density
 _atom_site_hse06_10hf_ddec_charge
 _atom_site_hse06_10hf_ddec_spin_density
 _atom_site_hse06_10hf_ddec_sum_bond_order
 _atom_site_hse06_10hf_magmom
 _atom_site_hse06_bader_spin_density
 _atom_site_hse06_ddec_charge
 _atom_site_hse06_ddec_spin_density
 _atom_site_hse06_ddec_sum_bond_order
 _atom_site_hse06_magmom
 _atom_site_pbe_bader_spin_density
 _atom_site_pbe_cm5_charge
 _atom_site_pbe_ddec_charge
 _atom_site_pbe_ddec_spin_density
 _atom_site_pbe_ddec_sum_bond_order
 _atom_site_pbe_magmom
Cd  Cd0  1  0.71719117  0.92861944  0.45535375  1  0  0.957208  0  1.918296  0  0  0.772859  0  2.387614  0  0  0.822763  0  2.343139  0  0  0.659352  0.737715  0  2.417838  0
Cd  Cd1  1  0.78282046  0.57139057  0.95535567  1  0  0.957177  0  1.918236  0  0  0.772832  0  2.387527  0  0  0.822739  0  2.343047  0  0  0.659305  0.737678  0  2.417763  0
Cd  Cd2  1  0.28280579  0.07138605  0.54464896  1  0  0.957165  0  1.918359  0  0  0.772823  0  2.387651  0  0  0.822719  0  2.343191  0  0  0.659327  0.737676  0  2.417887  0
Cd  Cd3  1  0.21718227  0.42860828  0.04464345  1  0  0.957187  0  1.91821  0  0  0.772837  0  2.387507  0  0  0.822741  0  2.34303  0  0  0.659304  0.737685  0  2.417737  0
H  H4  1  0.83172856  0.63992227  0.46725272  1  0  0.377173  0  0.94668  0  0  0.336363  0  1.027429  0  0  0.347447  0  1.011777  0  0  0.273171  0.328571  0  1.038393  0
H  H5  1  0.66830365  0.86009522  0.96727330  1  0  0.377288  0  0.946576  0  0  0.33644  0  1.027368  0  0  0.347527  0  1.011713  0  0  0.273233  0.328655  0  1.038323  0
H  H6  1  0.16826958  0.36008212  0.53274640  1  0  0.377153  0  0.946705  0  0  0.336361  0  1.027431  0  0  0.347446  0  1.011778  0  0  0.273179  0.328572  0  1.03839  0
H  H7  1  0.33170167  0.13990360  0.03272941  1  0  0.377284  0  0.946554  0  0  0.336464  0  1.027313  0  0  0.347551  0  1.011658  0  0  0.273214  0.328676  0  1.038271  0
H  H8  1  0.73799269  0.64823273  0.36333780  1  0  0.386041  0  0.933596  0  0  0.344268  0  1.016581  0  0  0.355576  0  1.000423  0  0  0.274855  0.336296  0  1.027932  0
H  H9  1  0.76198316  0.85176045  0.86333885  1  0  0.386033  0  0.93356  0  0  0.344282  0  1.016551  0  0  0.355589  0  1.000392  0  0  0.274896  0.336307  0  1.027906  0
H  H10  1  0.26200167  0.35177278  0.63666204  1  0  0.386065  0  0.933554  0  0  0.344297  0  1.016532  0  0  0.355605  0  1.000374  0  0  0.27487  0.336326  0  1.027881  0
H  H11  1  0.23801815  0.14823731  0.13666315  1  0  0.386096  0  0.933511  0  0  0.344318  0  1.016515  0  0  0.355626  0  1.000354  0  0  0.274916  0.336342  0  1.027874  0
H  H12  1  0.40274745  0.87665048  0.28193168  1  0  0.091594  0  0.940813  0  0  0.095211  0  1.009478  0  0  0.098236  0  1.007456  0  0  0.116895  0.092956  0  1.011145  0
H  H13  1  0.09729977  0.62336910  0.78191947  1  0  0.091894  0  0.940593  0  0  0.095376  0  1.009388  0  0  0.098324  0  1.007445  0  0  0.116937  0.093141  0  1.01104  0
H  H14  1  0.59724998  0.12334731  0.71806529  1  0  0.09157  0  0.940873  0  0  0.095185  0  1.009519  0  0  0.098198  0  1.007509  0  0  0.116891  0.092926  0  1.011194  0
H  H15  1  0.90269931  0.37661988  0.21807822  1  0  0.091842  0  0.94053  0  0  0.095404  0  1.009219  0  0  0.098352  0  1.007277  0  0  0.116908  0.093147  0  1.010894  0
H  H16  1  0.38657615  0.86707520  0.09933053  1  0  0.094391  0  0.941129  0  0  0.099641  0  1.010152  0  0  0.102888  0  1.007566  0  0  0.110763  0.097153  0  1.012296  0
H  H17  1  0.11349088  0.63295291  0.59932081  1  0  0.094763  0  0.940985  0  0  0.099794  0  1.01031  0  0  0.103147  0  1.007617  0  0  0.11085  0.097284  0  1.012472  0
H  H18  1  0.61343047  0.13292361  0.90066643  1  0  0.094432  0  0.941084  0  0  0.099662  0  1.010141  0  0  0.102919  0  1.007541  0  0  0.110754  0.097151  0  1.01231  0
H  H19  1  0.88650985  0.36703935  0.40067903  1  0  0.094709  0  0.940892  0  0  0.099745  0  1.010224  0  0  0.103097  0  1.007532  0  0  0.110835  0.097235  0  1.012386  0
H  H20  1  0.91481419  0.99857983  0.08428645  1  0  0.096491  0  0.936087  0  0  0.102141  0  1.004523  0  0  0.105697  0  1.001248  0  0  0.113229  0.0995  0  1.007123  0
H  H21  1  0.58525347  0.50146258  0.58428529  1  0  0.09655  0  0.935891  0  0  0.102206  0  1.004394  0  0  0.105768  0  1.001095  0  0  0.113247  0.099554  0  1.007017  0
H  H22  1  0.08519396  0.00142118  0.91571770  1  0  0.096559  0  0.936027  0  0  0.102192  0  1.004461  0  0  0.105749  0  1.001183  0  0  0.113253  0.099543  0  1.007067  0
H  H23  1  0.41474125  0.49854623  0.41571384  1  0  0.096517  0  0.93602  0  0  0.1022  0  1.004489  0  0  0.10576  0  1.001192  0  0  0.113233  0.09955  0  1.007109  0
C  C24  1  0.96750617  0.02764962  0.27958397  1  0  0.233703  0  3.814157  0  0  0.208143  0  4.078809  0  0  0.216436  0  4.096992  0  0  0.215182  0.20278  0  4.066392  0
C  C25  1  0.53253846  0.47237042  0.77957988  1  0  0.23406  0  3.813704  0  0  0.208307  0  4.0787  0  0  0.216599  0  4.096885  0  0  0.215204  0.20293  0  4.066298  0
C  C26  1  0.03249185  0.97235366  0.72041946  1  0  0.233783  0  3.814234  0  0  0.208257  0  4.078812  0  0  0.216552  0  4.096993  0  0  0.215228  0.202882  0  4.066406  0
C  C27  1  0.46746050  0.52762956  0.22041996  1  0  0.23407  0  3.813809  0  0  0.208374  0  4.078704  0  0  0.216666  0  4.096888  0  0  0.215251  0.202985  0  4.066319  0
C  C28  1  0.80724330  0.98320863  0.22835951  1  0  0.14098  0  3.752924  0  0  0.142033  0  3.993015  0  0  0.145638  0  4.011738  0  0  0.136337  0.139233  0  3.980653  0
C  C29  1  0.69281880  0.51681983  0.72835643  1  0  0.141095  0  3.751999  0  0  0.142117  0  3.992553  0  0  0.14572  0  4.01127  0  0  0.136513  0.139325  0  3.980188  0
C  C30  1  0.19275813  0.01679023  0.77164249  1  0  0.140932  0  3.752876  0  0  0.141991  0  3.992902  0  0  0.145595  0  4.011624  0  0  0.136336  0.139197  0  3.980533  0
C  C31  1  0.30718263  0.48317902  0.27164269  1  0  0.141121  0  3.751941  0  0  0.14215  0  3.992457  0  0  0.145753  0  4.011175  0  0  0.136469  0.139359  0  3.980099  0
C  C32  1  0.51575032  0.90650140  0.23696246  1  0  0.102871  0  3.670226  0  0  0.068421  0  3.936812  0  0  0.07206  0  3.953004  0  0  0.059959  0.065776  0  3.926063  0
C  C33  1  0.98430153  0.59352269  0.73695300  1  0  0.102695  0  3.670571  0  0  0.068487  0  3.937135  0  0  0.072188  0  3.953392  0  0  0.060039  0.065818  0  3.926364  0
C  C34  1  0.48425111  0.09349745  0.76303666  1  0  0.102808  0  3.670282  0  0  0.068389  0  3.936863  0  0  0.072038  0  3.953061  0  0  0.059955  0.065743  0  3.926121  0
C  C35  1  0.01569932  0.40647067  0.26304613  1  0  0.10275  0  3.670431  0  0  0.068488  0  3.937001  0  0  0.07219  0  3.953258  0  0  0.060039  0.065842  0  3.926234  0
C  C36  1  0.50758975  0.90117033  0.13679136  1  0  0.097658  0  3.635481  0  0  0.064888  0  3.898569  0  0  0.068112  0  3.91352  0  0  0.059164  0.062689  0  3.888648  0
C  C37  1  0.99247887  0.59886078  0.63678385  1  0  0.097028  0  3.635744  0  0  0.064301  0  3.898795  0  0  0.067434  0  3.913714  0  0  0.05875  0.062129  0  3.888879  0
C  C38  1  0.49241569  0.09882960  0.86320704  1  0  0.097787  0  3.635309  0  0  0.064992  0  3.89841  0  0  0.068209  0  3.913357  0  0  0.059227  0.062807  0  3.8885  0
C  C39  1  0.00752363  0.40113587  0.36321456  1  0  0.097104  0  3.63552  0  0  0.064357  0  3.898608  0  0  0.067492  0  3.913524  0  0  0.058831  0.06218  0  3.888691  0
C  C40  1  0.79884922  0.97442591  0.12799951  1  0  0.072215  0  3.655894  0  0  0.033082  0  3.914802  0  0  0.035379  0  3.929684  0  0  0.061494  0.031345  0  3.905238  0
C  C41  1  0.70121541  0.52560968  0.62799480  1  0  0.072409  0  3.655002  0  0  0.033066  0  3.914333  0  0  0.035373  0  3.929202  0  0  0.061348  0.031334  0  3.904765  0
C  C42  1  0.20115504  0.02557512  0.87200320  1  0  0.072248  0  3.655784  0  0  0.033149  0  3.914635  0  0  0.035448  0  3.929516  0  0  0.061511  0.031422  0  3.905056  0
C  C43  1  0.29878414  0.47439579  0.37200361  1  0  0.072443  0  3.655101  0  0  0.033058  0  3.914447  0  0  0.035363  0  3.929318  0  0  0.061361  0.031324  0  3.904876  0
Br  Br44  1  0.60244437  0.20283055  0.49592877  1  0  -0.538717  0  0.986749  0  0  -0.482741  0  1.289521  0  0  -0.503327  0  1.264612  0  0  -0.267632  -0.467776  0  1.306415  0
Br  Br45  1  0.89754595  0.29717552  0.99591285  1  0  -0.538704  0  0.98668  0  0  -0.482772  0  1.289511  0  0  -0.503343  0  1.264573  0  0  -0.267675  -0.467816  0  1.306405  0
Br  Br46  1  0.39754517  0.79717830  0.50405814  1  0  -0.538739  0  0.986765  0  0  -0.482753  0  1.28952  0  0  -0.503327  0  1.26459  0  0  -0.267656  -0.467806  0  1.306438  0
Br  Br47  1  0.10245548  0.70282333  0.00408699  1  0  -0.538699  0  0.986672  0  0  -0.482759  0  1.289485  0  0  -0.503328  0  1.264546  0  0  -0.267684  -0.467806  0  1.306388  0
N  N48  1  0.97800314  0.02655462  0.37588018  1  0  -0.280761  0  3.113977  0  0  -0.232849  0  3.390994  0  0  -0.247475  0  3.408699  0  0  -0.224391  -0.222882  0  3.378789  0
N  N49  1  0.52202611  0.47345621  0.87587491  1  0  -0.280892  0  3.114325  0  0  -0.232831  0  3.391281  0  0  -0.247466  0  3.409004  0  0  -0.224411  -0.222861  0  3.379068  0
N  N50  1  0.02199229  0.97344868  0.62412325  1  0  -0.28088  0  3.113987  0  0  -0.232956  0  3.390959  0  0  -0.247584  0  3.408665  0  0  -0.224441  -0.222991  0  3.378769  0
N  N51  1  0.47797415  0.52654375  0.12412422  1  0  -0.280952  0  3.114248  0  0  -0.232909  0  3.391207  0  0  -0.247544  0  3.408932  0  0  -0.224453  -0.222933  0  3.378996  0
N  N52  1  0.14265019  0.07442106  0.39545937  1  0  -0.107319  0  3.194666  0  0  -0.055341  0  3.491394  0  0  -0.065472  0  3.510221  0  0  -0.110464  -0.04824  0  3.478356  0
N  N53  1  0.35737770  0.42558427  0.89545307  1  0  -0.107379  0  3.195072  0  0  -0.055373  0  3.491712  0  0  -0.065503  0  3.510538  0  0  -0.110459  -0.04827  0  3.478664  0
N  N54  1  0.85734512  0.92558115  0.60454406  1  0  -0.107302  0  3.194639  0  0  -0.055314  0  3.491332  0  0  -0.065445  0  3.510161  0  0  -0.110475  -0.04822  0  3.478303  0
N  N55  1  0.64262362  0.57441349  0.10454677  1  0  -0.107352  0  3.194867  0  0  -0.055356  0  3.491527  0  0  -0.065488  0  3.510355  0  0  -0.110407  -0.048257  0  3.478481  0
N  N56  1  0.22989128  0.10431706  0.31490707  1  0  -0.072905  0  2.946347  0  0  -0.076881  0  3.240984  0  0  -0.075463  0  3.256169  0  0  -0.094918  -0.077438  0  3.230492  0
N  N57  1  0.27014928  0.39569631  0.81489930  1  0  -0.072806  0  2.946633  0  0  -0.076756  0  3.241195  0  0  -0.075335  0  3.256372  0  0  -0.094814  -0.077312  0  3.230699  0
N  N58  1  0.77010615  0.89568073  0.68509637  1  0  -0.072923  0  2.946291  0  0  -0.076902  0  3.240929  0  0  -0.075486  0  3.256115  0  0  -0.094894  -0.077456  0  3.230432  0
N  N59  1  0.72984968  0.60430366  0.18510054  1  0  -0.072759  0  2.946562  0  0  -0.076714  0  3.241146  0  0  -0.075292  0  3.256322  0  0  -0.094829  -0.07727  0  3.230647  0
N  N60  1  0.12226875  0.07541926  0.24066322  1  0  -0.301001  0  3.021641  0  0  -0.255454  0  3.291089  0  0  -0.268347  0  3.305298  0  0  -0.200173  -0.246646  0  3.281313  0
N  N61  1  0.37778538  0.42460321  0.74065642  1  0  -0.301245  0  3.022066  0  0  -0.25565  0  3.291605  0  0  -0.268541  0  3.305811  0  0  -0.200219  -0.246837  0  3.281825  0
N  N62  1  0.87773127  0.92457851  0.75934093  1  0  -0.300941  0  3.021653  0  0  -0.255427  0  3.291123  0  0  -0.268318  0  3.305331  0  0  -0.200166  -0.246612  0  3.281338  0
N  N63  1  0.62221241  0.57539787  0.25934342  1  0  -0.301297  0  3.022169  0  0  -0.255721  0  3.291689  0  0  -0.268613  0  3.305897  0  0  -0.200253  -0.246904  0  3.28191  0
N  N64  1  0.66471019  0.94722291  0.28216765  1  0  -0.289267  0  3.190389  0  0  -0.225018  0  3.443295  0  0  -0.239429  0  3.461119  0  0  -0.297276  -0.214917  0  3.431162  0
N  N65  1  0.83534228  0.55280533  0.78216254  1  0  -0.2895  0  3.19065  0  0  -0.225247  0  3.443509  0  0  -0.23965  0  3.461296  0  0  -0.297444  -0.215151  0  3.43139  0
N  N66  1  0.33529007  0.05277705  0.71783219  1  0  -0.28921  0  3.190354  0  0  -0.224964  0  3.443217  0  0  -0.239374  0  3.461036  0  0  -0.297263  -0.214866  0  3.431091  0
N  N67  1  0.16465774  0.44719244  0.21783658  1  0  -0.289524  0  3.190498  0  0  -0.225277  0  3.443366  0  0  -0.23968  0  3.461152  0  0  -0.297408  -0.215177  0  3.431236  0
N  N68  1  0.64989714  0.93335449  0.08297244  1  0  -0.249076  0  3.151761  0  0  -0.191572  0  3.404835  0  0  -0.201215  0  3.419829  0  0  -0.283986  -0.184862  0  3.394741  0
N  N69  1  0.85017640  0.56668127  0.58296697  1  0  -0.249134  0  3.151271  0  0  -0.191331  0  3.404228  0  0  -0.200982  0  3.419267  0  0  -0.283726  -0.18462  0  3.394123  0
N  N70  1  0.35011078  0.06664431  0.91702811  1  0  -0.249294  0  3.15164  0  0  -0.191796  0  3.404721  0  0  -0.201441  0  3.419719  0  0  -0.284092  -0.185083  0  3.394613  0
N  N71  1  0.14982374  0.43331759  0.41703143  1  0  -0.249134  0  3.151224  0  0  -0.191331  0  3.404201  0  0  -0.200981  0  3.419239  0  0  -0.283767  -0.184621  0  3.394098  0
O  O72  1  0.81700688  0.70372087  0.40974689  1  0  -0.811256  0  1.958424  0  0  -0.747196  0  2.166697  0  0  -0.769522  0  2.133884  0  0  -0.601505  -0.731235  0  2.189343  0
O  O73  1  0.68299084  0.79628178  0.90976781  1  0  -0.811341  0  1.958171  0  0  -0.747267  0  2.166406  0  0  -0.769593  0  2.133597  0  0  -0.601603  -0.731302  0  2.189032  0
O  O74  1  0.18298737  0.29628354  0.59025295  1  0  -0.811241  0  1.958428  0  0  -0.74719  0  2.166643  0  0  -0.769516  0  2.133829  0  0  -0.601518  -0.731232  0  2.189286  0
O  O75  1  0.31701048  0.20371597  0.09023491  1  0  -0.811396  0  1.958106  0  0  -0.747301  0  2.166361  0  0  -0.769629  0  2.133546  0  0  -0.601613  -0.731341  0  2.189002  0
