# generated using pymatgen
data_TmH6C6SNO8
_symmetry_space_group_name_H-M   'P 1'
_cell_length_a   7.49830568
_cell_length_b   9.28060085
_cell_length_c   14.66377663
_cell_angle_alpha   89.99988470
_cell_angle_beta   89.99999088
_cell_angle_gamma   101.16576900
_symmetry_Int_Tables_number   1
_chemical_formula_structural   TmH6C6SNO8
_chemical_formula_sum   'Tm4 H24 C24 S4 N4 O32'
_cell_volume   1001.11857887
_cell_formula_units_Z   4
loop_
 _symmetry_equiv_pos_site_id
 _symmetry_equiv_pos_as_xyz
  1  'x, y, z'
loop_
 _atom_site_type_symbol
 _atom_site_label
 _atom_site_symmetry_multiplicity
 _atom_site_fract_x
 _atom_site_fract_y
 _atom_site_fract_z
 _atom_site_occupancy
 _atom_site_hle17_bader_spin_density
 _atom_site_hle17_ddec_charge
 _atom_site_hle17_ddec_spin_density
 _atom_site_hle17_ddec_sum_bond_order
 _atom_site_hle17_magmom
 _atom_site_hse06_10hf_bader_spin_density
 _atom_site_hse06_10hf_ddec_charge
 _atom_site_hse06_10hf_ddec_spin_density
 _atom_site_hse06_10hf_ddec_sum_bond_order
 _atom_site_hse06_10hf_magmom
 _atom_site_hse06_bader_spin_density
 _atom_site_hse06_ddec_charge
 _atom_site_hse06_ddec_spin_density
 _atom_site_hse06_ddec_sum_bond_order
 _atom_site_hse06_magmom
 _atom_site_pbe_bader_spin_density
 _atom_site_pbe_cm5_charge
 _atom_site_pbe_ddec_charge
 _atom_site_pbe_ddec_spin_density
 _atom_site_pbe_ddec_sum_bond_order
 _atom_site_pbe_magmom
Tm  Tm0  1  0.13695033  0.27726286  0.04372798  1  0  2.274302  0  1.712465  0  0  2.147929  0  2.190486  0  0  2.268931  0  2.00649  0  0  1.588554  2.112798  0  2.223754  0
Tm  Tm1  1  0.36304669  0.72273797  0.54372849  1  0  2.274346  0  1.712676  0  0  2.147973  0  2.190717  0  0  2.268976  0  2.006718  0  0  1.588511  2.112862  0  2.22396  0
Tm  Tm2  1  0.86304698  0.72273708  0.95627158  1  0  2.274378  0  1.712675  0  0  2.148001  0  2.190745  0  0  2.269027  0  2.006709  0  0  1.588542  2.112901  0  2.22397  0
Tm  Tm3  1  0.63694904  0.27726086  0.45627175  1  0  2.274366  0  1.712424  0  0  2.147981  0  2.190485  0  0  2.269009  0  2.006442  0  0  1.58857  2.11288  0  2.223705  0
H  H4  1  0.15131479  0.04646981  0.44867565  1  0  0.139216  0  0.929102  0  0  0.145421  0  0.990136  0  0  0.149831  0  0.985579  0  0  0.141037  0.142153  0  0.993428  0
H  H5  1  0.34868761  0.95353190  0.94867859  1  0  0.13928  0  0.92904  0  0  0.14537  0  0.990205  0  0  0.149779  0  0.985646  0  0  0.141056  0.142104  0  0.993489  0
H  H6  1  0.84868920  0.95353018  0.55132527  1  0  0.139189  0  0.929104  0  0  0.145412  0  0.990125  0  0  0.149821  0  0.985567  0  0  0.14103  0.142147  0  0.993412  0
H  H7  1  0.65131396  0.04646917  0.05132370  1  0  0.139189  0  0.929141  0  0  0.145412  0  0.99016  0  0  0.149821  0  0.985604  0  0  0.141041  0.142145  0  0.993449  0
H  H8  1  0.10414225  0.12272895  0.28862816  1  0  0.133189  0  0.961205  0  0  0.138707  0  1.022309  0  0  0.1432  0  1.019131  0  0  0.12124  0.135445  0  1.024743  0
H  H9  1  0.39586351  0.87727551  0.78863051  1  0  0.133105  0  0.96126  0  0  0.138614  0  1.022385  0  0  0.143105  0  1.019213  0  0  0.121218  0.135352  0  1.024821  0
H  H10  1  0.89586835  0.87727657  0.71137345  1  0  0.133065  0  0.961317  0  0  0.138587  0  1.022433  0  0  0.143078  0  1.019262  0  0  0.12121  0.135325  0  1.024868  0
H  H11  1  0.60413647  0.12272445  0.21137178  1  0  0.133112  0  0.961433  0  0  0.138636  0  1.022515  0  0  0.143126  0  1.019343  0  0  0.121222  0.135376  0  1.024947  0
H  H12  1  0.91843687  0.66482901  0.22138112  1  0  0.136511  0  0.936047  0  0  0.143141  0  0.995808  0  0  0.14729  0  0.993019  0  0  0.122172  0.140171  0  0.99783  0
H  H13  1  0.58155826  0.33517629  0.72138350  1  0  0.136502  0  0.93622  0  0  0.143165  0  0.995948  0  0  0.147311  0  0.99316  0  0  0.122186  0.140197  0  0.997966  0
H  H14  1  0.08155394  0.33517747  0.77861639  1  0  0.136467  0  0.936268  0  0  0.143118  0  0.996001  0  0  0.147267  0  0.993213  0  0  0.122179  0.140148  0  0.998023  0
H  H15  1  0.41844306  0.66482368  0.27861810  1  0  0.136535  0  0.936057  0  0  0.143161  0  0.99582  0  0  0.147309  0  0.993031  0  0  0.122177  0.140189  0  0.997845  0
H  H16  1  0.96284545  0.60590641  0.38732272  1  0  0.134451  0  0.930789  0  0  0.140185  0  0.99289  0  0  0.144409  0  0.988491  0  0  0.142623  0.137057  0  0.996399  0
H  H17  1  0.53715007  0.39409505  0.88732639  1  0  0.134395  0  0.930885  0  0  0.140216  0  0.992914  0  0  0.144442  0  0.988514  0  0  0.142624  0.137087  0  0.996424  0
H  H18  1  0.03715370  0.39409574  0.61267479  1  0  0.134378  0  0.930897  0  0  0.140224  0  0.9929  0  0  0.14445  0  0.988497  0  0  0.142631  0.137095  0  0.996411  0
H  H19  1  0.46284724  0.60590489  0.11267521  1  0  0.134453  0  0.930843  0  0  0.140218  0  0.992924  0  0  0.144444  0  0.988522  0  0  0.142622  0.13709  0  0.996434  0
H  H20  1  0.28916333  0.36201357  0.22274729  1  0  0.450258  0  0.841261  0  0  0.418419  0  0.904909  0  0  0.428921  0  0.889823  0  0  0.305919  0.411153  0  0.91547  0
H  H21  1  0.21083641  0.63798778  0.72274791  1  0  0.450249  0  0.841277  0  0  0.418403  0  0.904943  0  0  0.428907  0  0.889853  0  0  0.305898  0.411136  0  0.915505  0
H  H22  1  0.71083449  0.63798857  0.77725227  1  0  0.45027  0  0.841256  0  0  0.418426  0  0.90492  0  0  0.428929  0  0.889831  0  0  0.305906  0.411157  0  0.915485  0
H  H23  1  0.78916224  0.36201217  0.27725369  1  0  0.450241  0  0.841288  0  0  0.418402  0  0.904936  0  0  0.428906  0  0.889848  0  0  0.305916  0.411135  0  0.9155  0
H  H24  1  0.46573851  0.34923266  0.16218308  1  0  0.459732  0  0.830028  0  0  0.427684  0  0.893232  0  0  0.439038  0  0.876796  0  0  0.306567  0.419918  0  0.904521  0
H  H25  1  0.03425996  0.65076888  0.66218370  1  0  0.459712  0  0.830053  0  0  0.427656  0  0.89327  0  0  0.439011  0  0.876833  0  0  0.30654  0.419889  0  0.90456  0
H  H26  1  0.53426039  0.65076839  0.83781579  1  0  0.459736  0  0.830029  0  0  0.427677  0  0.893247  0  0  0.439032  0  0.876812  0  0  0.306551  0.419911  0  0.904537  0
H  H27  1  0.96573735  0.34923106  0.33781653  1  0  0.45975  0  0.830002  0  0  0.427694  0  0.893217  0  0  0.439049  0  0.876781  0  0  0.306573  0.419928  0  0.904507  0
C  C28  1  0.09513145  0.96817206  0.39611562  1  0  0.020596  0  3.556549  0  0  -0.023034  0  3.823749  0  0  -0.015747  0  3.832699  0  0  0.052932  -0.027387  0  3.817297  0
C  C29  1  0.40486968  0.03182982  0.89611768  1  0  0.020516  0  3.556539  0  0  -0.023013  0  3.823739  0  0  -0.015721  0  3.832685  0  0  0.05293  -0.027367  0  3.81729  0
C  C30  1  0.90487687  0.03182358  0.60388803  1  0  0.02059  0  3.556657  0  0  -0.023103  0  3.823954  0  0  -0.015814  0  3.832905  0  0  0.052874  -0.027458  0  3.817509  0
C  C31  1  0.59513215  0.96817235  0.10388597  1  0  0.020556  0  3.556694  0  0  -0.023121  0  3.823929  0  0  -0.015836  0  3.832882  0  0  0.052893  -0.027474  0  3.817478  0
C  C32  1  0.06994907  0.00720167  0.30691888  1  0  -0.078271  0  3.691928  0  0  -0.100416  0  3.944578  0  0  -0.10342  0  3.961027  0  0  -0.064184  -0.09833  0  3.932651  0
C  C33  1  0.43005667  0.99280273  0.80692245  1  0  -0.078021  0  3.691983  0  0  -0.100183  0  3.944649  0  0  -0.103185  0  3.961095  0  0  -0.064113  -0.098102  0  3.932732  0
C  C34  1  0.93005459  0.99280270  0.69307999  1  0  -0.078015  0  3.692219  0  0  -0.100185  0  3.944946  0  0  -0.103187  0  3.961383  0  0  -0.064085  -0.098103  0  3.933025  0
C  C35  1  0.56995469  0.00720609  0.19308188  1  0  -0.078154  0  3.692117  0  0  -0.100323  0  3.94472  0  0  -0.103329  0  3.961168  0  0  -0.064175  -0.098239  0  3.932791  0
C  C36  1  0.00900422  0.89916038  0.24168819  1  0  -0.046518  0  3.728235  0  0  -0.036009  0  3.964997  0  0  -0.039244  0  3.984337  0  0  -0.003676  -0.033233  0  3.95005  0
C  C37  1  0.49099181  0.10083650  0.74168879  1  0  -0.046529  0  3.727983  0  0  -0.036086  0  3.964699  0  0  -0.039332  0  3.984025  0  0  -0.003673  -0.033312  0  3.949757  0
C  C38  1  0.99099175  0.10083955  0.75831069  1  0  -0.046579  0  3.728028  0  0  -0.036091  0  3.96472  0  0  -0.039319  0  3.984051  0  0  -0.003742  -0.033318  0  3.949772  0
C  C39  1  0.50900641  0.89915578  0.25831076  1  0  -0.046576  0  3.728461  0  0  -0.03593  0  3.965002  0  0  -0.039155  0  3.984331  0  0  -0.00361  -0.033153  0  3.950051  0
C  C40  1  0.96595939  0.75241067  0.27001519  1  0  -0.077781  0  3.682628  0  0  -0.097564  0  3.930351  0  0  -0.100765  0  3.94815  0  0  -0.060064  -0.095295  0  3.917656  0
C  C41  1  0.53403886  0.24759668  0.77001633  1  0  -0.077884  0  3.682564  0  0  -0.097663  0  3.930319  0  0  -0.100866  0  3.948123  0  0  -0.060109  -0.095392  0  3.91762  0
C  C42  1  0.03403944  0.24759586  0.72998573  1  0  -0.077643  0  3.682446  0  0  -0.097406  0  3.930177  0  0  -0.100611  0  3.947978  0  0  -0.05995  -0.095135  0  3.917476  0
C  C43  1  0.46596664  0.75240990  0.22998459  1  0  -0.077762  0  3.682649  0  0  -0.097556  0  3.930357  0  0  -0.100761  0  3.948156  0  0  -0.06001  -0.095287  0  3.917659  0
C  C44  1  0.99004164  0.71686739  0.36014206  1  0  0.038638  0  3.526774  0  0  -6.1e-05  0  3.781011  0  0  0.006854  0  3.790918  0  0  0.061477  -0.004415  0  3.77444  0
C  C45  1  0.50996001  0.28313749  0.86014315  1  0  0.038808  0  3.526666  0  0  -3.6e-05  0  3.781005  0  0  0.006878  0  3.790915  0  0  0.061494  -0.004389  0  3.774431  0
C  C46  1  0.00995484  0.28313474  0.63985272  1  0  0.038673  0  3.52662  0  0  -0.000205  0  3.78097  0  0  0.006712  0  3.790879  0  0  0.061417  -0.004559  0  3.774399  0
C  C47  1  0.49004557  0.71686361  0.13985572  1  0  0.038704  0  3.526512  0  0  -9.7e-05  0  3.780857  0  0  0.00682  0  3.790763  0  0  0.061456  -0.004451  0  3.774287  0
C  C48  1  0.99764861  0.94111222  0.14357902  1  0  0.749412  0  3.844264  0  0  0.708246  0  4.126259  0  0  0.745182  0  4.114888  0  0  0.246355  0.683809  0  4.135013  0
C  C49  1  0.50236758  0.05890336  0.64357767  1  0  0.749505  0  3.844163  0  0  0.708587  0  4.125712  0  0  0.745566  0  4.114245  0  0  0.246658  0.684146  0  4.134491  0
C  C50  1  0.00236743  0.05890539  0.85642463  1  0  0.749436  0  3.84418  0  0  0.708468  0  4.12583  0  0  0.745403  0  4.114451  0  0  0.246619  0.684038  0  4.134585  0
C  C51  1  0.49764796  0.94111206  0.35641916  1  0  0.749557  0  3.844323  0  0  0.708386  0  4.126246  0  0  0.745316  0  4.114885  0  0  0.2464  0.683953  0  4.134999  0
S  S52  1  0.81825968  0.40157606  0.09374773  1  0  1.595361  0  5.860256  0  0  1.474491  0  6.401483  0  0  1.529818  0  6.376371  0  0  0.559674  1.435068  0  6.42672  0
S  S53  1  0.68174293  0.59842096  0.59374568  1  0  1.595475  0  5.860328  0  0  1.474574  0  6.401586  0  0  1.529901  0  6.376475  0  0  0.559713  1.435148  0  6.426835  0
S  S54  1  0.18174171  0.59841843  0.90625182  1  0  1.595363  0  5.860472  0  0  1.474462  0  6.401714  0  0  1.529791  0  6.376607  0  0  0.559635  1.435037  0  6.42696  0
S  S55  1  0.31826005  0.40157464  0.40625047  1  0  1.595681  0  5.859989  0  0  1.474843  0  6.401168  0  0  1.530169  0  6.376052  0  0  0.559802  1.43542  0  6.426412  0
N  N56  1  0.05982629  0.82424508  0.42070760  1  0  0.295367  0  3.710887  0  0  0.347701  0  3.973753  0  0  0.347972  0  3.998521  0  0  -0.109532  0.346549  0  3.959578  0
N  N57  1  0.44017290  0.17575999  0.92071221  1  0  0.295269  0  3.711056  0  0  0.347634  0  3.973911  0  0  0.347901  0  3.99868  0  0  -0.109598  0.346482  0  3.959733  0
N  N58  1  0.94016810  0.17575374  0.57929059  1  0  0.295398  0  3.710909  0  0  0.347804  0  3.973764  0  0  0.348072  0  3.998535  0  0  -0.109503  0.346651  0  3.959589  0
N  N59  1  0.55983311  0.82424879  0.07929144  1  0  0.295365  0  3.710845  0  0  0.347759  0  3.973691  0  0  0.34803  0  3.998459  0  0  -0.109506  0.346605  0  3.959518  0
O  O60  1  0.04684892  0.07628130  0.12363522  1  0  -0.777767  0  2.071333  0  0  -0.73273  0  2.340258  0  0  -0.770498  0  2.318547  0  0  -0.425333  -0.716083  0  2.350954  0
O  O61  1  0.45314722  0.92369843  0.62364160  1  0  -0.778098  0  2.07055  0  0  -0.733141  0  2.339323  0  0  -0.770939  0  2.317596  0  0  -0.42556  -0.716478  0  2.349998  0
O  O62  1  0.95314753  0.92370329  0.87636365  1  0  -0.778101  0  2.070544  0  0  -0.733119  0  2.339339  0  0  -0.770908  0  2.317635  0  0  -0.425579  -0.716459  0  2.349996  0
O  O63  1  0.54684613  0.07627846  0.37636409  1  0  -0.777937  0  2.071319  0  0  -0.732922  0  2.340267  0  0  -0.770692  0  2.318548  0  0  -0.425435  -0.716282  0  2.350959  0
O  O64  1  0.94099196  0.83994374  0.08697361  1  0  -0.745152  0  2.107537  0  0  -0.699407  0  2.371846  0  0  -0.735772  0  2.354912  0  0  -0.404337  -0.682404  0  2.380165  0
O  O65  1  0.55899409  0.16003345  0.58698031  1  0  -0.744959  0  2.108355  0  0  -0.699301  0  2.372531  0  0  -0.735668  0  2.355561  0  0  -0.404393  -0.682305  0  2.380865  0
O  O66  1  0.05899413  0.16003639  0.91302185  1  0  -0.744905  0  2.108329  0  0  -0.699256  0  2.372575  0  0  -0.735606  0  2.355635  0  0  -0.404332  -0.682258  0  2.3809  0
O  O67  1  0.44099124  0.83994339  0.41302606  1  0  -0.745145  0  2.107519  0  0  -0.699424  0  2.371825  0  0  -0.735785  0  2.354897  0  0  -0.404319  -0.682418  0  2.380144  0
O  O68  1  0.09809654  0.78818053  0.50464166  1  0  -0.642752  0  1.849617  0  0  -0.61037  0  2.114392  0  0  -0.646063  0  2.11096  0  0  -0.325192  -0.592357  0  2.11443  0
O  O69  1  0.40190269  0.21181826  0.00464395  1  0  -0.642791  0  1.849787  0  0  -0.61039  0  2.114535  0  0  -0.646084  0  2.111105  0  0  -0.325209  -0.592374  0  2.114573  0
O  O70  1  0.90189977  0.21181502  0.49535789  1  0  -0.642893  0  1.849843  0  0  -0.610469  0  2.114521  0  0  -0.646168  0  2.111086  0  0  -0.325248  -0.592458  0  2.114559  0
O  O71  1  0.59809838  0.78818061  0.99535697  1  0  -0.642807  0  1.849694  0  0  -0.610415  0  2.11441  0  0  -0.646112  0  2.110975  0  0  -0.325231  -0.592405  0  2.11445  0
O  O72  1  0.00771160  0.44349461  0.13053294  1  0  -0.802186  0  1.935533  0  0  -0.752481  0  2.195433  0  0  -0.783634  0  2.179071  0  0  -0.41844  -0.73682  0  2.207066  0
O  O73  1  0.49228633  0.55651033  0.63053569  1  0  -0.802287  0  1.935442  0  0  -0.752573  0  2.195333  0  0  -0.783727  0  2.178971  0  0  -0.418524  -0.736917  0  2.206969  0
O  O74  1  0.99228597  0.55650643  0.86946457  1  0  -0.802219  0  1.935445  0  0  -0.752501  0  2.195339  0  0  -0.78366  0  2.178978  0  0  -0.418472  -0.736846  0  2.206976  0
O  O75  1  0.50771066  0.44349400  0.36946591  1  0  -0.802268  0  1.935475  0  0  -0.752541  0  2.195317  0  0  -0.7837  0  2.178955  0  0  -0.418463  -0.736885  0  2.206952  0
O  O76  1  0.82518656  0.27854070  0.02870522  1  0  -0.786721  0  1.960449  0  0  -0.739417  0  2.223804  0  0  -0.770146  0  2.208409  0  0  -0.411267  -0.723384  0  2.234437  0
O  O77  1  0.67480752  0.72145976  0.52870233  1  0  -0.786781  0  1.960489  0  0  -0.739422  0  2.223749  0  0  -0.77015  0  2.208352  0  0  -0.411252  -0.72339  0  2.234384  0
O  O78  1  0.17481100  0.72146034  0.97129434  1  0  -0.786722  0  1.960393  0  0  -0.739411  0  2.223754  0  0  -0.770141  0  2.208358  0  0  -0.411284  -0.72338  0  2.234385  0
O  O79  1  0.32518896  0.27854237  0.47129313  1  0  -0.786802  0  1.960381  0  0  -0.739567  0  2.223817  0  0  -0.770299  0  2.208415  0  0  -0.411359  -0.723536  0  2.234453  0
O  O80  1  0.76311683  0.52656483  0.04519877  1  0  -0.829951  0  2.043696  0  0  -0.782794  0  2.339096  0  0  -0.815978  0  2.314962  0  0  -0.441652  -0.767534  0  2.353855  0
O  O81  1  0.73688359  0.47344000  0.54520506  1  0  -0.829916  0  2.043878  0  0  -0.782776  0  2.339305  0  0  -0.81596  0  2.315167  0  0  -0.441627  -0.767514  0  2.354068  0
O  O82  1  0.23688391  0.47343842  0.95479533  1  0  -0.829889  0  2.043972  0  0  -0.782739  0  2.339392  0  0  -0.815918  0  2.315257  0  0  -0.441602  -0.767474  0  2.354159  0
O  O83  1  0.26311339  0.52656433  0.45479654  1  0  -0.829997  0  2.043617  0  0  -0.782854  0  2.338988  0  0  -0.816032  0  2.314854  0  0  -0.441616  -0.767597  0  2.353758  0
O  O84  1  0.68977109  0.35637953  0.17009031  1  0  -0.706529  0  1.988186  0  0  -0.635394  0  2.214245  0  0  -0.657522  0  2.195932  0  0  -0.321918  -0.618692  0  2.225745  0
O  O85  1  0.81022836  0.64362707  0.67009024  1  0  -0.706612  0  1.988254  0  0  -0.635418  0  2.214261  0  0  -0.657546  0  2.195942  0  0  -0.321911  -0.618711  0  2.225762  0
O  O86  1  0.31022915  0.64362153  0.82990652  1  0  -0.70661  0  1.988277  0  0  -0.635395  0  2.214267  0  0  -0.657525  0  2.195953  0  0  -0.321868  -0.618689  0  2.225767  0
O  O87  1  0.18977263  0.35637728  0.32991000  1  0  -0.706657  0  1.988196  0  0  -0.635501  0  2.214229  0  0  -0.657624  0  2.195905  0  0  -0.321966  -0.618796  0  2.225727  0
O  O88  1  0.33383454  0.35298226  0.15964554  1  0  -0.933369  0  1.847756  0  0  -0.882239  0  2.055598  0  0  -0.912657  0  2.016145  0  0  -0.662933  -0.868195  0  2.078903  0
O  O89  1  0.16616527  0.64701930  0.65964616  1  0  -0.933335  0  1.847782  0  0  -0.882223  0  2.055636  0  0  -0.912643  0  2.016184  0  0  -0.662921  -0.868182  0  2.078941  0
O  O90  1  0.66616436  0.64701879  0.84035334  1  0  -0.933389  0  1.847769  0  0  -0.882278  0  2.055627  0  0  -0.912699  0  2.016171  0  0  -0.662934  -0.868238  0  2.078934  0
O  O91  1  0.83383179  0.35297954  0.34035408  1  0  -0.933372  0  1.847776  0  0  -0.882236  0  2.055622  0  0  -0.912659  0  2.016164  0  0  -0.662935  -0.868196  0  2.078926  0
