# generated using pymatgen
data_AgH19C17N4O3
_symmetry_space_group_name_H-M   'P 1'
_cell_length_a   10.83801780
_cell_length_b   12.06453455
_cell_length_c   14.70451577
_cell_angle_alpha   90.00020428
_cell_angle_beta   89.99996515
_cell_angle_gamma   89.99996920
_symmetry_Int_Tables_number   1
_chemical_formula_structural   AgH19C17N4O3
_chemical_formula_sum   'Ag4 H76 C68 N16 O12'
_cell_volume   1922.69837312
_cell_formula_units_Z   4
loop_
 _symmetry_equiv_pos_site_id
 _symmetry_equiv_pos_as_xyz
  1  'x, y, z'
loop_
 _atom_site_type_symbol
 _atom_site_label
 _atom_site_symmetry_multiplicity
 _atom_site_fract_x
 _atom_site_fract_y
 _atom_site_fract_z
 _atom_site_occupancy
 _atom_site_pbe_bader_charge
 _atom_site_pbe_bader_spin_density
 _atom_site_pbe_cm5_charge
 _atom_site_pbe_ddec_charge
 _atom_site_pbe_ddec_spin_density
 _atom_site_pbe_ddec_sum_bond_order
 _atom_site_pbe_magmom
Ag  Ag0  1  0.50436703  0.36385811  0.01000484  1  0.542936  0  0.450654  0.304213  0  1.819347  0
Ag  Ag1  1  0.00437100  0.63614192  0.98999408  1  0.542914  0  0.450673  0.304292  0  1.819183  0
Ag  Ag2  1  0.50437380  0.86385718  0.98999499  1  0.542939  0  0.450674  0.304282  0  1.819183  0
Ag  Ag3  1  0.00436976  0.13613872  0.01000665  1  0.543029  0  0.450634  0.30424  0  1.819212  0
H  H4  1  0.48190226  0.91766060  0.35463447  1  0.098892  0  0.100897  0.103079  0  1.003268  0
H  H5  1  0.98189509  0.08234832  0.64535882  1  0.098945  0  0.10091  0.103067  0  1.003336  0
H  H6  1  0.48189766  0.41765355  0.64535600  1  0.098954  0  0.100902  0.103053  0  1.003391  0
H  H7  1  0.98189508  0.58234708  0.35463933  1  0.098918  0  0.100904  0.103053  0  1.003313  0
H  H8  1  0.37483930  0.80222170  0.47138485  1  0.052001  0  0.098934  0.098126  0  1.000456  0
H  H9  1  0.87482295  0.19778396  0.52861188  1  0.052071  0  0.09892  0.098048  0  1.000477  0
H  H10  1  0.37482743  0.30222077  0.52860533  1  0.052114  0  0.098936  0.098068  0  1.000522  0
H  H11  1  0.87482467  0.69777826  0.47139073  1  0.052123  0  0.098919  0.098077  0  1.000427  0
H  H12  1  0.17594772  0.86606356  0.53717226  1  0.053968  0  0.095398  0.093692  0  1.039905  0
H  H13  1  0.67593054  0.13393805  0.46282931  1  0.053796  0  0.095374  0.093618  0  1.039933  0
H  H14  1  0.17593683  0.36606897  0.46282430  1  0.054261  0  0.09538  0.093652  0  1.039906  0
H  H15  1  0.67593774  0.63393347  0.53717795  1  0.054346  0  0.095377  0.093642  0  1.040061  0
H  H16  1  0.08122217  0.04271467  0.48680288  1  0.046671  0  0.095356  0.095792  0  1.036917  0
H  H17  1  0.58120631  0.95728450  0.51320076  1  0.046642  0  0.095346  0.095804  0  1.036936  0
H  H18  1  0.08121925  0.54272325  0.51319822  1  0.046572  0  0.095353  0.09581  0  1.036904  0
H  H19  1  0.58121846  0.45728007  0.48680475  1  0.046549  0  0.095352  0.095773  0  1.036923  0
H  H20  1  0.08774089  0.21185899  0.39132293  1  0.052414  0  0.097936  0.103682  0  1.01168  0
H  H21  1  0.58774072  0.78814432  0.60868411  1  0.0523  0  0.097914  0.103639  0  1.011708  0
H  H22  1  0.08774249  0.71185804  0.60868342  1  0.052388  0  0.097864  0.103557  0  1.011702  0
H  H23  1  0.58774374  0.28814196  0.39132227  1  0.052411  0  0.097927  0.103642  0  1.011695  0
H  H24  1  0.19808212  0.32813174  0.27704866  1  0.121479  0  0.099636  0.106583  0  1.033317  0
H  H25  1  0.69808376  0.67187317  0.72295358  1  0.121536  0  0.099653  0.106643  0  1.033297  0
H  H26  1  0.19808822  0.82812715  0.72295594  1  0.121476  0  0.099639  0.106585  0  1.033345  0
H  H27  1  0.69808596  0.17186782  0.27704970  1  0.121329  0  0.099636  0.106566  0  1.033363  0
H  H28  1  0.74350251  0.51943762  0.95372872  1  0.078866  0  0.122707  0.101517  0  0.98024  0
H  H29  1  0.24349639  0.48055982  0.04627147  1  0.078931  0  0.122645  0.101448  0  0.980424  0
H  H30  1  0.74349847  0.01944203  0.04626798  1  0.079006  0  0.122662  0.101501  0  0.980289  0
H  H31  1  0.24350228  0.98055706  0.95373084  1  0.078923  0  0.122669  0.101501  0  0.980373  0
H  H32  1  0.79854162  0.44788044  0.05366020  1  0.087119  0  0.120089  0.08643  0  0.984304  0
H  H33  1  0.29853738  0.55211531  0.94634064  1  0.087216  0  0.120093  0.086429  0  0.984342  0
H  H34  1  0.79854013  0.94788511  0.94633772  1  0.087172  0  0.120088  0.086438  0  0.984379  0
H  H35  1  0.29853979  0.05211312  0.05366040  1  0.087217  0  0.120079  0.086414  0  0.984437  0
H  H36  1  0.45567260  0.60464830  0.06473396  1  0.076078  0  0.115794  0.075924  0  0.999294  0
H  H37  1  0.95566958  0.39534902  0.93526614  1  0.07602  0  0.115776  0.075913  0  0.999306  0
H  H38  1  0.45566957  0.10464916  0.93526446  1  0.076007  0  0.115765  0.075879  0  0.999297  0
H  H39  1  0.95567538  0.89534734  0.06473361  1  0.075619  0  0.115803  0.075951  0  0.999315  0
H  H40  1  0.54130130  0.61073006  0.96043431  1  0.122951  0  0.120333  0.096553  0  1.015398  0
H  H41  1  0.04129709  0.38926831  0.03956527  1  0.12296  0  0.120336  0.09655  0  1.01539  0
H  H42  1  0.54129635  0.11073195  0.03956273  1  0.123  0  0.120346  0.096547  0  1.015352  0
H  H43  1  0.04130112  0.88926558  0.96043481  1  0.122961  0  0.120321  0.096548  0  1.015434  0
H  H44  1  0.67934079  0.44261243  0.18989864  1  0.079863  0  0.118911  0.088673  0  1.003737  0
H  H45  1  0.17934221  0.55738503  0.81009953  1  0.079894  0  0.118931  0.088652  0  1.003736  0
H  H46  1  0.67934036  0.94261817  0.81009795  1  0.07979  0  0.118916  0.088598  0  1.003787  0
H  H47  1  0.17934265  0.05738593  0.18990294  1  0.079876  0  0.118916  0.08861  0  1.003777  0
H  H48  1  0.53190053  0.50818152  0.19366563  1  0.110193  0  0.122395  0.099299  0  0.968033  0
H  H49  1  0.03190107  0.49181601  0.80633192  1  0.110382  0  0.122404  0.0993  0  0.967955  0
H  H50  1  0.53190039  0.00818182  0.80632908  1  0.110314  0  0.122438  0.099325  0  0.967969  0
H  H51  1  0.03189936  0.99181572  0.19366983  1  0.110344  0  0.122406  0.099252  0  0.967992  0
H  H52  1  0.72864181  0.71473152  0.95235527  1  0.145215  0  0.124721  0.107002  0  0.988596  0
H  H53  1  0.22863488  0.28526758  0.04764764  1  0.144865  0  0.12471  0.106981  0  0.9886  0
H  H54  1  0.72863777  0.21473511  0.04764608  1  0.145146  0  0.124709  0.106941  0  0.988607  0
H  H55  1  0.22864445  0.78526233  0.95235343  1  0.14519  0  0.124705  0.106968  0  0.98859  0
H  H56  1  0.77809590  0.79394517  0.04940079  1  0.060645  0  0.112907  0.068858  0  1.009421  0
H  H57  1  0.27809093  0.20605224  0.95059938  1  0.060638  0  0.112923  0.068876  0  1.009376  0
H  H58  1  0.77809286  0.29395025  0.95059669  1  0.060576  0  0.112946  0.06897  0  1.009328  0
H  H59  1  0.27809583  0.70605131  0.04940416  1  0.060545  0  0.11294  0.068964  0  1.009348  0
H  H60  1  0.52066225  0.70815774  0.19339934  1  0.07673  0  0.119299  0.082766  0  0.977766  0
H  H61  1  0.02066106  0.29183731  0.80659957  1  0.076659  0  0.11929  0.082751  0  0.977782  0
H  H62  1  0.52066027  0.20815887  0.80659800  1  0.076634  0  0.119321  0.082819  0  0.977696  0
H  H63  1  0.02066028  0.79183702  0.19340091  1  0.076639  0  0.119319  0.082814  0  0.977642  0
H  H64  1  0.65854999  0.78952512  0.18880220  1  0.076226  0  0.123731  0.092886  0  0.948304  0
H  H65  1  0.15854977  0.21047153  0.81119938  1  0.077376  0  0.123724  0.092876  0  0.948276  0
H  H66  1  0.65855077  0.28952709  0.81119463  1  0.076165  0  0.123748  0.092909  0  0.948259  0
H  H67  1  0.15855084  0.71047204  0.18880286  1  0.076183  0  0.123743  0.092865  0  0.948233  0
H  H68  1  0.85286969  0.70097460  0.18242372  1  0.046773  0  0.114932  0.072793  0  0.990736  0
H  H69  1  0.35286940  0.29902112  0.81757778  1  0.046705  0  0.114917  0.072783  0  0.990705  0
H  H70  1  0.85286769  0.20097494  0.81757482  1  0.046756  0  0.114932  0.072804  0  0.99072  0
H  H71  1  0.35286956  0.79902409  0.18242532  1  0.046717  0  0.11493  0.072797  0  0.990675  0
H  H72  1  0.86572448  0.55353336  0.18390672  1  0.12098  0  0.117049  0.083451  0  1.037679  0
H  H73  1  0.36572503  0.44646153  0.81609273  1  0.121042  0  0.117033  0.083423  0  1.037787  0
H  H74  1  0.86572433  0.05353866  0.81609139  1  0.121016  0  0.117039  0.083446  0  1.037763  0
H  H75  1  0.36572334  0.94646202  0.18390875  1  0.121018  0  0.11704  0.083437  0  1.037767  0
H  H76  1  0.52429223  0.13431962  0.19860303  1  0.638591  0  0.290007  0.337389  0  1.006301  0
H  H77  1  0.02429532  0.86568621  0.80139520  1  0.638727  0  0.289993  0.337286  0  1.006273  0
H  H78  1  0.52429549  0.63431371  0.80139749  1  0.6387  0  0.290053  0.337446  0  1.006248  0
H  H79  1  0.02429299  0.36568383  0.19860414  1  0.638718  0  0.290028  0.337406  0  1.00619  0
C  C80  1  0.40407833  0.27968867  0.18418184  1  1.523308  0  0.184169  0.571085  0  4.218394  0
C  C81  1  0.90407985  0.72031780  0.81581420  1  1.523302  0  0.184169  0.57099  0  4.218404  0
C  C82  1  0.40408066  0.77968532  0.81581846  1  1.523302  0  0.184232  0.571123  0  4.218403  0
C  C83  1  0.90407938  0.22031452  0.18418370  1  1.523239  0  0.184174  0.571019  0  4.218421  0
C  C84  1  0.34776267  0.21346251  0.25873301  1  0.002846  0  -0.055714  -0.216926  0  4.043579  0
C  C85  1  0.84775961  0.78654648  0.74126510  1  0.002838  0  -0.055678  -0.216838  0  4.043755  0
C  C86  1  0.34776230  0.71345882  0.74126713  1  0.002825  0  -0.055688  -0.216925  0  4.043539  0
C  C87  1  0.84775998  0.28654022  0.25873437  1  0.002855  0  -0.055674  -0.216813  0  4.043533  0
C  C88  1  0.40056201  0.11226843  0.28596666  1  0.45185  0  0.08552  0.249816  0  4.054957  0
C  C89  1  0.90056168  0.88773472  0.71403074  1  0.451936  0  0.085565  0.249835  0  4.055153  0
C  C90  1  0.40056535  0.61226877  0.71402976  1  0.451882  0  0.085545  0.249948  0  4.054782  0
C  C91  1  0.90056018  0.38773273  0.28596696  1  0.451811  0  0.085556  0.249835  0  4.054737  0
C  C92  1  0.34275622  0.04618151  0.35466588  1  0.067823  0  -0.022903  -0.042622  0  3.975421  0
C  C93  1  0.84275131  0.95382251  0.64533427  1  0.06813  0  -0.022886  -0.042417  0  3.975412  0
C  C94  1  0.34275871  0.54617988  0.64533241  1  0.067805  0  -0.02277  -0.042443  0  3.975327  0
C  C95  1  0.84275159  0.45381916  0.35466365  1  0.06837  0  -0.022911  -0.042522  0  3.975278  0
C  C96  1  0.39428382  0.94418056  0.38396157  1  -0.075865  0  -0.09272  -0.112353  0  3.998241  0
C  C97  1  0.89427023  0.05582757  0.61603652  1  -0.076036  0  -0.092678  -0.112383  0  3.99822  0
C  C98  1  0.39427647  0.44417670  0.61603377  1  -0.075777  0  -0.092714  -0.112374  0  3.99837  0
C  C99  1  0.89427204  0.55582729  0.38396295  1  -0.076017  0  -0.092661  -0.112333  0  3.998123  0
C  C100  1  0.33478861  0.88047333  0.44857701  1  -0.056941  0  -0.097866  -0.097682  0  4.037861  0
C  C101  1  0.83477689  0.11952986  0.55142041  1  -0.057036  0  -0.097878  -0.097566  0  4.037731  0
C  C102  1  0.33478409  0.38047416  0.55141545  1  -0.057078  0  -0.097923  -0.097623  0  4.037863  0
C  C103  1  0.83478048  0.61952489  0.44858198  1  -0.057025  0  -0.097847  -0.097522  0  4.03765  0
C  C104  1  0.22138224  0.91661739  0.48581463  1  -0.092665  0  -0.094596  -0.074942  0  4.025709  0
C  C105  1  0.72137242  0.08338254  0.51418080  1  -0.092767  0  -0.094648  -0.074976  0  4.025755  0
C  C106  1  0.22137314  0.41661474  0.51418410  1  -0.093135  0  -0.094666  -0.075011  0  4.025658  0
C  C107  1  0.72137136  0.58338436  0.48581949  1  -0.093304  0  -0.094709  -0.075131  0  4.025837  0
C  C108  1  0.16916263  0.01538987  0.45826942  1  0.01976  0  -0.093771  -0.135224  0  3.973077  0
C  C109  1  0.66914672  0.98461754  0.54173216  1  0.019739  0  -0.093672  -0.13511  0  3.972829  0
C  C110  1  0.16915506  0.51538862  0.54173089  1  0.019746  0  -0.09371  -0.13516  0  3.972968  0
C  C111  1  0.66915337  0.48461133  0.45827204  1  0.01972  0  -0.093688  -0.135049  0  3.972866  0
C  C112  1  0.22798798  0.08316357  0.39247883  1  -0.069271  0  -0.007071  0.096809  0  4.019021  0
C  C113  1  0.72798589  0.91684382  0.60752476  1  -0.069242  0  -0.007168  0.096561  0  4.018767  0
C  C114  1  0.22798957  0.58316178  0.60751961  1  -0.069197  0  -0.007093  0.096697  0  4.018955  0
C  C115  1  0.72798706  0.41683732  0.39248262  1  -0.069359  0  -0.007123  0.096673  0  4.01891  0
C  C116  1  0.17611131  0.18543518  0.36309890  1  -0.007829  0  -0.109697  -0.178661  0  4.0236  0
C  C117  1  0.67610926  0.81456478  0.63690471  1  -0.007687  0  -0.109678  -0.178542  0  4.02356  0
C  C118  1  0.17611381  0.68543849  0.63690258  1  -0.007711  0  -0.109631  -0.178504  0  4.0236  0
C  C119  1  0.67611322  0.31456395  0.36310035  1  -0.007767  0  -0.10963  -0.178571  0  4.023523  0
C  C120  1  0.23587318  0.24908688  0.29938046  1  -0.109763  0  -0.093732  -0.071987  0  4.041318  0
C  C121  1  0.73586925  0.75091553  0.70062177  1  -0.10987  0  -0.093769  -0.072118  0  4.041515  0
C  C122  1  0.23587100  0.74908467  0.70062323  1  -0.109794  0  -0.093723  -0.071978  0  4.041549  0
C  C123  1  0.73587143  0.25091194  0.29938036  1  -0.10968  0  -0.093765  -0.072007  0  4.041327  0
C  C124  1  0.74576074  0.51923997  0.02844425  1  0.536601  0  0.01531  -0.009041  0  3.863003  0
C  C125  1  0.24575836  0.48075663  0.97155661  1  0.536526  0  0.015411  -0.008887  0  3.86317  0
C  C126  1  0.74575952  0.01924430  0.97155381  1  0.536377  0  0.015393  -0.008962  0  3.8631  0
C  C127  1  0.24576051  0.98075396  0.02844501  1  0.536446  0  0.015385  -0.008933  0  3.863294  0
C  C128  1  0.54831040  0.60979553  0.03474453  1  0.484429  0  0.007911  -0.017988  0  3.889926  0
C  C129  1  0.04830808  0.39020117  0.96525505  1  0.484431  0  0.00794  -0.017933  0  3.889963  0
C  C130  1  0.54831011  0.10979984  0.96525319  1  0.484496  0  0.007955  -0.017901  0  3.889893  0
C  C131  1  0.04831391  0.89019852  0.03474503  1  0.484973  0  0.007938  -0.017974  0  3.890189  0
C  C132  1  0.62606721  0.51462263  0.16670384  1  0.554232  0  0.021004  0.008609  0  3.84264  0
C  C133  1  0.12606588  0.48537237  0.83329707  1  0.554083  0  0.020956  0.008601  0  3.842648  0
C  C134  1  0.62606058  0.01462719  0.83329562  1  0.554107  0  0.020944  0.008618  0  3.842883  0
C  C135  1  0.12606420  0.98537445  0.16670393  1  0.554071  0  0.021046  0.008802  0  3.842666  0
C  C136  1  0.73329900  0.71708846  0.02690692  1  0.472762  0  0.010827  -0.009398  0  3.865237  0
C  C137  1  0.23329581  0.28290815  0.97309531  1  0.473168  0  0.010831  -0.009374  0  3.865251  0
C  C138  1  0.73329685  0.21709363  0.97309240  1  0.472537  0  0.010774  -0.009441  0  3.865292  0
C  C139  1  0.23329795  0.78290463  0.02690779  1  0.472461  0  0.010767  -0.009485  0  3.865252  0
C  C140  1  0.61468499  0.71231696  0.16570307  1  0.52646  0  0.025014  0.008721  0  3.905241  0
C  C141  1  0.11468378  0.28767971  0.83429716  1  0.525319  0  0.025014  0.008718  0  3.905196  0
C  C142  1  0.61468113  0.21232069  0.83429560  1  0.526474  0  0.024971  0.008627  0  3.905176  0
C  C143  1  0.11468302  0.78768095  0.16570396  1  0.526495  0  0.024996  0.00872  0  3.90494  0
C  C144  1  0.80962196  0.62324757  0.16007674  1  0.541217  0  0.017458  -0.000294  0  3.902829  0
C  C145  1  0.30962161  0.37674817  0.83992410  1  0.541222  0  0.017556  -0.000185  0  3.902858  0
C  C146  1  0.80962086  0.12324884  0.83992159  1  0.541197  0  0.017434  -0.00037  0  3.902947  0
C  C147  1  0.30961994  0.87675105  0.16007856  1  0.541222  0  0.017505  -0.000254  0  3.902803  0
N  N148  1  0.61873289  0.51153319  0.06499426  1  -1.014247  0  -0.356977  -0.158782  0  3.477702  0
N  N149  1  0.11873238  0.48846430  0.93500529  1  -1.014158  0  -0.356961  -0.158835  0  3.477762  0
N  N150  1  0.61873262  0.01153737  0.93500179  1  -1.014223  0  -0.357032  -0.158848  0  3.477904  0
N  N151  1  0.11873449  0.98846344  0.06499573  1  -1.014238  0  -0.357032  -0.158916  0  3.477946  0
N  N152  1  0.80807744  0.62204548  0.05875276  1  -0.958541  0  -0.35552  -0.162019  0  3.469657  0
N  N153  1  0.30807700  0.37794944  0.94124876  1  -0.958536  0  -0.355607  -0.162108  0  3.469783  0
N  N154  1  0.80807994  0.12205051  0.94124625  1  -0.958059  0  -0.355462  -0.162029  0  3.469734  0
N  N155  1  0.30807819  0.87794855  0.05875459  1  -0.958094  0  -0.355553  -0.162144  0  3.469878  0
N  N156  1  0.60664482  0.71447264  0.06455932  1  -0.949127  0  -0.356353  -0.167972  0  3.470283  0
N  N157  1  0.10664259  0.28552568  0.93544160  1  -0.949181  0  -0.356374  -0.167998  0  3.470248  0
N  N158  1  0.60664456  0.21447599  0.93543800  1  -0.94904  0  -0.356376  -0.167997  0  3.470422  0
N  N159  1  0.10664470  0.78552317  0.06456087  1  -0.949164  0  -0.356395  -0.168051  0  3.470531  0
N  N160  1  0.68512593  0.61697061  0.19775022  1  -0.997111  0  -0.341934  -0.18491  0  3.410532  0
N  N161  1  0.18512561  0.38302685  0.80224999  1  -0.997222  0  -0.341912  -0.184856  0  3.410528  0
N  N162  1  0.68512487  0.11697337  0.80224815  1  -0.997066  0  -0.341882  -0.18478  0  3.410385  0
N  N163  1  0.18512391  0.88302824  0.19775206  1  -0.997159  0  -0.341909  -0.184814  0  3.410277  0
O  O164  1  0.35728471  0.37027232  0.15885031  1  -1.189719  0  -0.34572  -0.561763  0  2.139269  0
O  O165  1  0.85728810  0.62973003  0.84114779  1  -1.189542  0  -0.345668  -0.561731  0  2.139217  0
O  O166  1  0.35729162  0.87026907  0.84115232  1  -1.189638  0  -0.345689  -0.56176  0  2.139372  0
O  O167  1  0.85728765  0.12973162  0.15884850  1  -1.189592  0  -0.345678  -0.561741  0  2.139349  0
O  O168  1  0.50112010  0.23662101  0.14488295  1  -1.176874  0  -0.346547  -0.568731  0  2.260016  0
O  O169  1  0.00112320  0.76338649  0.85510917  1  -1.176898  0  -0.346653  -0.568743  0  2.260002  0
O  O170  1  0.50112238  0.73661285  0.85511515  1  -1.17699  0  -0.346682  -0.568814  0  2.259931  0
O  O171  1  0.00112368  0.26338387  0.14488716  1  -1.176939  0  -0.346626  -0.568749  0  2.259899  0
O  O172  1  0.50437253  0.07306830  0.24656236  1  -1.171951  0  -0.357792  -0.46251  0  2.315503  0
O  O173  1  0.00437194  0.92693588  0.75343247  1  -1.172135  0  -0.357774  -0.462435  0  2.315529  0
O  O174  1  0.50436938  0.57306467  0.75343867  1  -1.171998  0  -0.357899  -0.462698  0  2.315509  0
O  O175  1  0.00436679  0.42693951  0.24655821  1  -1.171983  0  -0.357824  -0.462581  0  2.315235  0
