# generated using pymatgen
data_Zn4H33C53N16Cl5
_symmetry_space_group_name_H-M   'P 1'
_cell_length_a   15.78218363
_cell_length_b   15.86447631
_cell_length_c   17.82345157
_cell_angle_alpha   109.42412572
_cell_angle_beta   105.06848832
_cell_angle_gamma   110.02610253
_symmetry_Int_Tables_number   1
_chemical_formula_structural   Zn4H33C53N16Cl5
_chemical_formula_sum   'Zn4 H33 C53 N16 Cl5'
_cell_volume   3584.90000276
_cell_formula_units_Z   1
loop_
 _symmetry_equiv_pos_site_id
 _symmetry_equiv_pos_as_xyz
  1  'x, y, z'
loop_
 _atom_site_type_symbol
 _atom_site_label
 _atom_site_symmetry_multiplicity
 _atom_site_fract_x
 _atom_site_fract_y
 _atom_site_fract_z
 _atom_site_occupancy
 _atom_site_pbe_bader_charge
 _atom_site_pbe_bader_spin_density
 _atom_site_pbe_cm5_charge
 _atom_site_pbe_ddec_charge
 _atom_site_pbe_ddec_spin_density
 _atom_site_pbe_ddec_sum_bond_order
 _atom_site_pbe_magmom
Zn  Zn0  1  0.12581367  0.12416441  0.49975283  1  1.192574  0  0.743495  0.637785  0  2.42408  0
Zn  Zn1  1  0.87645186  0.86727162  0.49681260  1  1.190343  0  0.744922  0.614927  0  2.459494  0
Zn  Zn2  1  0.00535281  0.87319801  0.38122608  1  1.200592  0  0.746132  0.627781  0  2.458806  0
Zn  Zn3  1  0.99919957  0.11813825  0.62262559  1  1.200731  0  0.745949  0.659577  0  2.34407  0
H  H4  1  0.66753345  0.81623405  0.52283157  1  0.11192  0  0.124318  0.114861  0  0.992104  0
H  H5  1  0.84528890  0.84984531  0.20805572  1  0.112172  0  0.124394  0.116668  0  0.990866  0
H  H6  1  0.68436469  0.86941141  0.37182901  1  0.106843  0  0.12517  0.117333  0  0.991607  0
H  H7  1  0.98401258  0.13339168  0.34226935  1  0.110527  0  0.122881  0.118496  0  0.99123  0
H  H8  1  0.81937983  0.14127003  0.68680246  1  0.101055  0  0.124923  0.115139  0  0.991064  0
H  H9  1  0.30577126  0.36348592  0.62166203  1  0.109799  0  0.12145  0.113142  0  1.005035  0
H  H10  1  0.15469473  0.81614066  0.48406001  1  0.095519  0  0.125243  0.117349  0  0.990665  0
H  H11  1  0.00029394  0.79994289  0.61672544  1  0.117346  0  0.125359  0.120534  0  0.991397  0
H  H12  1  0.17032252  0.34359083  0.80172252  1  0.107278  0  0.121168  0.112451  0  0.990673  0
H  H13  1  0.98227812  0.63623604  0.31751519  1  0.101423  0  0.125376  0.116507  0  0.986302  0
H  H14  1  0.19835976  0.09568386  0.03411043  1  0.070572  0  0.112961  0.117898  0  0.967036  0
H  H15  1  0.12754712  0.86619566  0.96550091  1  0.066255  0  0.114575  0.119731  0  0.964627  0
H  H16  1  0.37223132  0.40207872  0.41501733  1  0.023858  0  0.086726  0.111455  0  1.004418  0
H  H17  1  0.34691111  0.40835618  0.50729254  1  0.002624  0  0.083991  0.107135  0  1.01269  0
H  H18  1  0.45960837  0.40966296  0.50629049  1  0.047311  0  0.089363  0.117839  0  1.00767  0
H  H19  1  0.33814177  0.23710463  0.47593714  1  0.037516  0  0.081597  0.065226  0  1.004639  0
H  H20  1  0.36451346  0.23059110  0.38463454  1  0.035639  0  0.094896  0.089092  0  0.963511  0
H  H21  1  0.20734325  0.23058404  0.31031095  1  0.056425  0  0.103524  0.112347  0  0.961753  0
H  H22  1  0.18285364  0.24874067  0.40416372  1  0.027804  0  0.09453  0.08934  0  0.992298  0
H  H23  1  0.62414095  0.49800460  0.49434349  1  0.010652  0  0.087393  0.112667  0  1.001576  0
H  H24  1  0.62525923  0.61666520  0.52130114  1  0.028745  0  0.083784  0.10741  0  1.006974  0
H  H25  1  0.53176984  0.50831303  0.42175944  1  0.03189  0  0.088373  0.11484  0  1.013577  0
H  H26  1  0.66102185  0.61864818  0.39083478  1  0.008857  0  0.086355  0.07184  0  0.981646  0
H  H27  1  0.65969025  0.50077950  0.36430556  1  0.038715  0  0.094846  0.0877  0  0.964098  0
H  H28  1  0.80549665  0.57729999  0.50808821  1  0.046317  0  0.102182  0.110151  0  0.965295  0
H  H29  1  0.80576452  0.69540656  0.53707800  1  0.013604  0  0.09242  0.084496  0  0.99853  0
H  H30  1  0.90581980  0.44197683  0.68910735  1  0.021642  0  0.084801  0.110149  0  1.002471  0
H  H31  1  0.97418984  0.40241154  0.75303574  1  0.000666  0  0.07973  0.100718  0  1.012574  0
H  H32  1  0.03764026  0.51276033  0.74452689  1  0.029228  0  0.090785  0.120181  0  0.994868  0
H  H33  1  0.05458873  0.36940404  0.64909375  1  0.008164  0  0.083446  0.07474  0  1.01537  0
H  H34  1  0.98742264  0.40799852  0.58469458  1  0.022103  0  0.091288  0.086546  0  0.981699  0
H  H35  1  0.82789263  0.26376453  0.54336241  1  0.0626  0  0.101926  0.109503  0  0.961862  0
H  H36  1  0.88676910  0.22886400  0.61765142  1  0.012349  0  0.089116  0.079604  0  1.025568  0
C  C37  1  0.16349450  0.10177311  0.33220728  1  0.427392  0  0.103908  0.172783  0  3.970867  0
C  C38  1  0.71975447  0.89663582  0.56095946  1  0.447213  0  0.017606  -0.05119  0  3.959851  0
C  C39  1  0.82095217  0.85950552  0.26056294  1  0.458162  0  0.026096  -0.028065  0  3.912921  0
C  C40  1  0.91891654  0.20014939  0.50567645  1  0.466107  0  0.105937  0.179585  0  3.934326  0
C  C41  1  0.73805526  0.86921925  0.34420000  1  0.415726  0  0.022432  -0.036334  0  3.912231  0
C  C42  1  0.96573238  0.14731327  0.39835793  1  0.434637  0  0.015187  -0.040736  0  3.949433  0
C  C43  1  0.79768852  0.06295327  0.64479306  1  0.43679  0  0.019444  -0.044472  0  3.955393  0
C  C44  1  0.09128543  0.93398472  0.25841915  1  0.5826  0  0.113089  0.176336  0  4.120627  0
C  C45  1  0.14144244  0.02210054  0.25160914  1  0.141023  0  -0.030961  -0.073526  0  4.174978  0
C  C46  1  0.70479165  0.97650503  0.60939653  1  0.103541  0  -0.027369  0.037379  0  4.210196  0
C  C47  1  0.72682946  0.84715590  0.25757085  1  0.149424  0  -0.023162  0.035703  0  4.179539  0
C  C48  1  0.92275527  0.20802657  0.42933856  1  0.101029  0  -0.028874  -0.026299  0  4.178192  0
C  C49  1  0.25850056  0.34235398  0.65388621  1  0.421264  0  0.017688  -0.046313  0  3.969765  0
C  C50  1  0.85271859  0.65083339  0.43535521  1  0.441797  0  0.099738  0.159612  0  3.973982  0
C  C51  1  0.18325583  0.89770794  0.51404838  1  0.452926  0  0.021003  -0.027121  0  3.925161  0
C  C52  1  0.09990304  0.04529884  0.73849973  1  0.596434  0  0.117096  0.181714  0  4.065222  0
C  C53  1  0.02818715  0.88139946  0.64833954  1  0.401063  0  0.020874  -0.032284  0  3.92001  0
C  C54  1  0.27285842  0.06459633  0.58727468  1  0.610703  0  0.117585  0.182726  0  4.064406  0
C  C55  1  0.18926246  0.33151719  0.74607703  1  0.465619  0  0.02297  -0.03396  0  3.966341  0
C  C56  1  0.94201154  0.65231640  0.35665646  1  0.427113  0  0.018404  -0.045306  0  3.978897  0
C  C57  1  0.27134268  0.39709024  0.74012519  1  0.176601  0  -0.02736  0.033872  0  4.194746  0
C  C58  1  0.89070856  0.59254887  0.38961773  1  0.115773  0  -0.030735  -0.025607  0  4.192411  0
C  C59  1  0.28160357  0.97496408  0.57081308  1  0.152367  0  -0.028445  -0.021368  0  4.188069  0
C  C60  1  0.08843378  0.95234642  0.73753672  1  0.210688  0  -0.027094  -0.006784  0  4.178071  0
C  C61  1  0.89983200  0.27347970  0.40152279  1  -0.385081  0  -0.031956  -0.062965  0  4.103569  0
C  C62  1  0.88788474  0.34140815  0.38968536  1  0.155232  0  -0.054515  -0.062077  0  4.336108  0
C  C63  1  0.88268434  0.42206039  0.38345525  1  -0.047909  0  -0.05345  -0.054938  0  4.344438  0
C  C64  1  0.88366156  0.49994446  0.38367703  1  -0.14243  0  -0.04025  -0.077696  0  4.125689  0
C  C65  1  0.61667008  0.97196852  0.61535365  1  -0.148947  0  -0.034654  -0.0786  0  4.096958  0
C  C66  1  0.53757642  0.96884974  0.61454597  1  -0.037445  0  -0.050427  -0.049138  0  4.326419  0
C  C67  1  0.44999601  0.96782409  0.60743568  1  -0.208948  0  -0.046136  -0.041048  0  4.315049  0
C  C68  1  0.36984343  0.96818108  0.59477121  1  0.018956  0  -0.037807  -0.069473  0  4.105633  0
C  C69  1  0.64067731  0.80618016  0.18141390  1  -0.214991  0  -0.030908  -0.040041  0  4.097961  0
C  C70  1  0.48677332  0.68951544  0.02987427  1  0.192259  0  0.009875  0.10118  0  4.122717  0
C  C71  1  0.49247734  0.65054487  0.95093980  1  0.210569  0  0.007053  0.096206  0  4.126721  0
C  C72  1  0.41418933  0.56863917  0.87372813  1  -0.082712  0  -0.065291  -0.129574  0  4.220723  0
C  C73  1  0.56826536  0.75745943  0.11035875  1  -0.039609  0  -0.065866  -0.133081  0  4.214292  0
C  C74  1  0.34848338  0.49084909  0.80822800  1  -0.198482  0  -0.035921  -0.046871  0  4.106483  0
C  C75  1  0.11912390  0.93903813  0.81194345  1  -0.044112  0  -0.057451  -0.105662  0  4.160152  0
C  C76  1  0.14846177  0.93816037  0.96313680  1  0.122673  0  -0.077236  -0.05962  0  4.0828  0
C  C77  1  0.17625886  0.02390684  0.03696543  1  0.098937  0  -0.079524  -0.060933  0  4.095541  0
C  C78  1  0.17182300  0.02508099  0.11458651  1  -0.428734  0  -0.051729  -0.067368  0  4.20408  0
C  C79  1  0.13804082  0.93771009  0.88257213  1  -0.338642  0  -0.04999  -0.060478  0  4.19142  0
C  C80  1  0.16077850  0.02700244  0.18056402  1  0.120261  0  -0.057392  -0.093958  0  4.192755  0
C  C81  1  0.21737344  0.21351486  0.36603304  1  0.028098  0  -0.153549  -0.212335  0  3.97943  0
C  C82  1  0.32902684  0.26112984  0.42428433  1  -0.029758  0  -0.163058  -0.085523  0  3.957727  0
C  C83  1  0.37987974  0.37650151  0.46553424  1  -0.069645  0  -0.24279  -0.35478  0  3.977142  0
C  C84  1  0.78824443  0.62541363  0.48084645  1  0.012373  0  -0.154415  -0.21478  0  3.989977  0
C  C85  1  0.67671402  0.57099475  0.41959005  1  0.002623  0  -0.161593  -0.081665  0  3.959612  0
C  C86  1  0.61086063  0.54725448  0.46674316  1  -0.065792  0  -0.243332  -0.356367  0  3.986076  0
C  C87  1  0.89760440  0.26285813  0.57394517  1  -0.006872  0  -0.153618  -0.210144  0  3.972312  0
C  C88  1  0.98407320  0.37223805  0.62792890  1  0.040367  0  -0.165075  -0.086377  0  3.937219  0
C  C89  1  0.97468962  0.43575109  0.70784970  1  -0.05951  0  -0.244689  -0.353004  0  3.989585  0
N  N90  1  0.12938823  0.06213566  0.38086433  1  -0.792328  0  -0.265051  -0.215004  0  3.499302  0
N  N91  1  0.81301369  0.93306671  0.56707063  1  -0.806832  0  -0.270793  -0.177309  0  3.559651  0
N  N92  1  0.88093087  0.88441269  0.34157791  1  -0.796321  0  -0.279628  -0.18034  0  3.656374  0
N  N93  1  0.95519619  0.13752496  0.51601597  1  -0.803603  0  -0.280634  -0.241826  0  3.586494  0
N  N94  1  0.83060545  0.89044216  0.39307014  1  -0.792174  0  -0.278345  -0.181174  0  3.617064  0
N  N95  1  0.98613999  0.10645669  0.45178919  1  -0.801442  0  -0.290299  -0.210169  0  3.60673  0
N  N96  1  0.86147688  0.03653460  0.61894303  1  -0.790098  0  -0.261644  -0.179897  0  3.522086  0
N  N97  1  0.08445449  0.95801650  0.33525625  1  -0.793885  0  -0.275506  -0.239343  0  3.551397  0
N  N98  1  0.17609524  0.25233838  0.61279480  1  -0.818823  0  -0.270398  -0.182385  0  3.560213  0
N  N99  1  0.88047780  0.73767542  0.42934395  1  -0.793012  0  -0.270217  -0.231342  0  3.507162  0
N  N100  1  0.12343881  0.93883225  0.49760589  1  -0.796141  0  -0.276646  -0.175416  0  3.614348  0
N  N101  1  0.05011611  0.03020227  0.65762950  1  -0.773227  0  -0.278742  -0.247491  0  3.582384  0
N  N102  1  0.00533932  0.92881952  0.60229829  1  -0.78257  0  -0.277874  -0.173462  0  3.620041  0
N  N103  1  0.17826870  0.04194599  0.54308115  1  -0.779079  0  -0.279349  -0.243647  0  3.567783  0
N  N104  1  0.13334162  0.24575720  0.67039287  1  -0.806518  0  -0.267578  -0.189319  0  3.559107  0
N  N105  1  0.93563378  0.73872148  0.38080174  1  -0.806235  0  -0.272604  -0.177643  0  3.577123  0
Cl  Cl106  1  0.16250763  0.16140756  0.82775139  1  -0.177393  0  0.019983  -0.058159  0  1.518794  0
Cl  Cl107  1  0.36601845  0.18576868  0.64984083  1  -0.181724  0  0.023971  -0.050393  0  1.519762  0
Cl  Cl108  1  0.60773721  0.69995983  0.94798126  1  -0.182136  0  -0.020384  -0.072491  0  1.401712  0
Cl  Cl109  1  0.37065330  0.64295867  0.03190370  1  -0.190711  0  -0.024506  -0.077999  0  1.398827  0
Cl  Cl110  1  0.04071169  0.81046503  0.18323319  1  -0.18613  0  0.007485  -0.067579  0  1.461237  0
