# generated using pymatgen
data_LuH21(C9O2)3
_symmetry_space_group_name_H-M   'P 1'
_cell_length_a   7.76594694
_cell_length_b   11.35385734
_cell_length_c   13.02100000
_cell_angle_alpha   94.44435390
_cell_angle_beta   90.00000000
_cell_angle_gamma   90.00000000
_symmetry_Int_Tables_number   1
_chemical_formula_structural   LuH21(C9O2)3
_chemical_formula_sum   'Lu2 H42 C54 O12'
_cell_volume   1144.65425748
_cell_formula_units_Z   2
loop_
 _symmetry_equiv_pos_site_id
 _symmetry_equiv_pos_as_xyz
  1  'x, y, z'
loop_
 _atom_site_type_symbol
 _atom_site_label
 _atom_site_symmetry_multiplicity
 _atom_site_fract_x
 _atom_site_fract_y
 _atom_site_fract_z
 _atom_site_occupancy
 _atom_site_hle17_bader_spin_density
 _atom_site_hle17_ddec_charge
 _atom_site_hle17_ddec_spin_density
 _atom_site_hle17_ddec_sum_bond_order
 _atom_site_hle17_magmom
 _atom_site_hse06_10hf_bader_spin_density
 _atom_site_hse06_10hf_ddec_charge
 _atom_site_hse06_10hf_ddec_spin_density
 _atom_site_hse06_10hf_ddec_sum_bond_order
 _atom_site_hse06_10hf_magmom
 _atom_site_hse06_bader_spin_density
 _atom_site_hse06_ddec_charge
 _atom_site_hse06_ddec_spin_density
 _atom_site_hse06_ddec_sum_bond_order
 _atom_site_hse06_magmom
 _atom_site_pbe_bader_charge
 _atom_site_pbe_bader_spin_density
 _atom_site_pbe_cm5_charge
 _atom_site_pbe_ddec_charge
 _atom_site_pbe_ddec_spin_density
 _atom_site_pbe_ddec_sum_bond_order
 _atom_site_pbe_magmom
Lu  Lu0  1  0.49789807  0.53998700  0.47496900  1  0  1.844091  0  2.352713  0  0  1.672834  0  2.849049  0  0  1.737183  0  2.787607  0  2.16634  0  1.36886  1.626712  0  2.891832  0
Lu  Lu1  1  0.99789891  0.46000708  0.52503214  1  0  1.843986  0  2.353079  0  0  1.672775  0  2.849344  0  0  1.737056  0  2.788007  0  2.166366  0  1.36886  1.626679  0  2.8921  0
H  H2  1  0.67710867  0.12997233  0.60885817  1  0  0.114141  0  0.956974  0  0  0.125211  0  1.015086  0  0  0.128999  0  1.014325  0  0.073697  0  0.103483  0.122474  0  1.015843  0
H  H3  1  0.17707692  0.87001557  0.39115944  1  0  0.114041  0  0.957089  0  0  0.125059  0  1.015241  0  0  0.128848  0  1.01448  0  0.074144  0  0.103458  0.122324  0  1.015997  0
H  H4  1  0.33354979  0.26583615  0.60255264  1  0  0.101145  0  0.965298  0  0  0.106872  0  1.034916  0  0  0.110014  0  1.032133  0  0.109356  0  0.110971  0.104541  0  1.037  0
H  H5  1  0.83350814  0.73416588  0.39746439  1  0  0.10122  0  0.964943  0  0  0.106923  0  1.034611  0  0  0.110081  0  1.031814  0  0.108524  0  0.110974  0.104587  0  1.036705  0
H  H6  1  0.54301169  0.96124841  0.59609443  1  0  0.088718  0  0.957623  0  0  0.10075  0  1.017612  0  0  0.103273  0  1.016952  0  0.071413  0  0.099962  0.098896  0  1.018194  0
H  H7  1  0.04299411  0.03875892  0.40391528  1  0  0.088725  0  0.957759  0  0  0.100909  0  1.017592  0  0  0.10343  0  1.016934  0  0.071142  0  0.100012  0.099053  0  1.018172  0
H  H8  1  0.38076619  0.78039318  0.62507607  1  0  0.094099  0  0.987157  0  0  0.097264  0  1.060736  0  0  0.101185  0  1.057821  0  0.075323  0  0.101139  0.094396  0  1.062918  0
H  H9  1  0.88075801  0.21960885  0.37492330  1  0  0.094091  0  0.987054  0  0  0.097277  0  1.060624  0  0  0.101206  0  1.057696  0  0.075445  0  0.101121  0.094406  0  1.062809  0
H  H10  1  0.06823250  0.79038725  0.66428834  1  0  0.088999  0  0.981778  0  0  0.097547  0  1.046197  0  0  0.099495  0  1.046704  0  0.083556  0  0.097739  0.096048  0  1.04599  0
H  H11  1  0.56822433  0.20961743  0.33569969  1  0  0.08888  0  0.981653  0  0  0.097427  0  1.04609  0  0  0.099368  0  1.046615  0  0.083405  0  0.097704  0.095969  0  1.045841  0
H  H12  1  0.91490066  0.98400163  0.67052410  1  0  0.080552  0  0.954129  0  0  0.093691  0  1.01143  0  0  0.096304  0  1.010797  0  0.062183  0  0.096364  0.091779  0  1.012019  0
H  H13  1  0.41489467  0.01600040  0.32946452  1  0  0.080702  0  0.954096  0  0  0.093842  0  1.01137  0  0  0.096456  0  1.010731  0  0.062011  0  0.096419  0.09193  0  1.01196  0
H  H14  1  0.07777416  0.16715966  0.63862226  1  0  0.107014  0  0.952141  0  0  0.114725  0  1.018194  0  0  0.118394  0  1.015468  0  0.064345  0  0.107912  0.111978  0  1.020306  0
H  H15  1  0.57775955  0.83284768  0.36138592  1  0  0.107099  0  0.95205  0  0  0.114782  0  1.018133  0  0  0.118451  0  1.015414  0  0.064409  0  0.107916  0.112032  0  1.02025  0
H  H16  1  0.40794510  0.62637432  0.75647928  1  0  0.117685  0  0.960402  0  0  0.125912  0  1.024206  0  0  0.129443  0  1.02409  0  0.042687  0  0.106503  0.123388  0  1.024485  0
H  H17  1  0.90793821  0.37362153  0.24350892  1  0  0.117658  0  0.960648  0  0  0.125888  0  1.024452  0  0  0.129415  0  1.024338  0  0.042652  0  0.106492  0.123364  0  1.024729  0
H  H18  1  0.17411141  0.45176924  0.86171151  1  0  0.0963  0  0.952249  0  0  0.106504  0  1.015287  0  0  0.108917  0  1.014042  0  0.115779  0  0.107905  0.104699  0  1.016276  0
H  H19  1  0.67409809  0.54822837  0.13828679  1  0  0.096418  0  0.952223  0  0  0.106506  0  1.015345  0  0  0.108919  0  1.014094  0  0.115849  0  0.107933  0.1047  0  1.016334  0
H  H20  1  0.44596879  0.73295649  0.90378464  1  0  0.087339  0  0.957442  0  0  0.099418  0  1.017599  0  0  0.101607  0  1.017478  0  0.060678  0  0.099171  0.097813  0  1.017826  0
H  H21  1  0.94595933  0.26704466  0.09620853  1  0  0.087344  0  0.957415  0  0  0.099437  0  1.017575  0  0  0.10162  0  1.017456  0  0.060824  0  0.099185  0.09783  0  1.017803  0
H  H22  1  0.50738436  0.82806399  0.07665596  1  0  0.088232  0  0.977183  0  0  0.098377  0  1.038494  0  0  0.100233  0  1.040126  0  0.050633  0  0.096495  0.09703  0  1.037466  0
H  H23  1  0.00737708  0.17194334  0.92333762  1  0  0.088253  0  0.977043  0  0  0.098371  0  1.038392  0  0  0.100237  0  1.040017  0  0.050744  0  0.096475  0.097024  0  1.037367  0
H  H24  1  0.40585006  0.73526043  0.23368534  1  0  0.097821  0  0.960138  0  0  0.10569  0  1.024449  0  0  0.108664  0  1.022499  0  0.103359  0  0.104445  0.103454  0  1.026034  0
H  H25  1  0.90584832  0.26474778  0.76630830  1  0  0.097862  0  0.960031  0  0  0.105713  0  1.024351  0  0  0.108683  0  1.022399  0  0.103501  0  0.104424  0.103459  0  1.025954  0
H  H26  1  0.24037635  0.54815063  0.21602441  1  0  0.100827  0  0.949678  0  0  0.109618  0  1.010283  0  0  0.112028  0  1.010447  0  0.08592  0  0.105382  0.107861  0  1.010311  0
H  H27  1  0.74036689  0.45185582  0.78397602  1  0  0.100798  0  0.949621  0  0  0.109616  0  1.010202  0  0  0.112018  0  1.010375  0  0.085992  0  0.105384  0.107858  0  1.01023  0
H  H28  1  0.17802851  0.45170299  0.04158493  1  0  0.086487  0  0.980133  0  0  0.095999  0  1.046178  0  0  0.097605  0  1.047775  0  0.086315  0  0.096331  0.094762  0  1.045216  0
H  H29  1  0.67801777  0.54829728  0.95841509  1  0  0.08651  0  0.980036  0  0  0.096021  0  1.046088  0  0  0.09762  0  1.047689  0  0.086289  0  0.096337  0.094795  0  1.045116  0
H  H30  1  0.13788660  0.18442069  0.26367691  1  0  0.112355  0  0.969879  0  0  0.120846  0  1.03512  0  0  0.124619  0  1.034369  0  0.082836  0  0.10275  0.118141  0  1.035837  0
H  H31  1  0.63790418  0.81558664  0.73631284  1  0  0.112374  0  0.969981  0  0  0.120902  0  1.035168  0  0  0.124677  0  1.03443  0  0.082771  0  0.102777  0.118201  0  1.035885  0
H  H32  1  0.43809725  0.33213639  0.18690809  1  0  0.095558  0  0.941544  0  0  0.104588  0  1.00666  0  0  0.106935  0  1.005103  0  0.099511  0  0.108349  0.102803  0  1.007881  0
H  H33  1  0.93810710  0.66786475  0.81308968  1  0  0.095458  0  0.941504  0  0  0.104534  0  1.006579  0  0  0.106881  0  1.005004  0  0.099264  0  0.108344  0.102747  0  1.007797  0
H  H34  1  0.19304021  0.04241890  0.14057146  1  0  0.087031  0  0.956313  0  0  0.099305  0  1.01594  0  0  0.101779  0  1.015165  0  0.08293  0  0.099671  0.097506  0  1.016548  0
H  H35  1  0.69303718  0.95758136  0.85942856  1  0  0.087024  0  0.956293  0  0  0.099277  0  1.015939  0  0  0.101756  0  1.015163  0  0.082913  0  0.099673  0.09748  0  1.016545  0
H  H36  1  0.18207438  0.92735799  0.97231458  1  0  0.08773  0  0.973478  0  0  0.096859  0  1.036026  0  0  0.098636  0  1.037367  0  0.089869  0  0.096661  0.095563  0  1.035175  0
H  H37  1  0.68205205  0.07263697  0.02769046  1  0  0.087693  0  0.973574  0  0  0.096836  0  1.036122  0  0  0.098616  0  1.037462  0  0.089791  0  0.096645  0.095531  0  1.035289  0
H  H38  1  0.32113148  0.00395240  0.81857748  1  0  0.079452  0  0.996759  0  0  0.087517  0  1.06284  0  0  0.088749  0  1.064769  0  0.089868  0  0.093718  0.086587  0  1.061571  0
H  H39  1  0.82112201  0.99603550  0.18142170  1  0  0.079406  0  0.996766  0  0  0.087468  0  1.062875  0  0  0.088696  0  1.064806  0  0.089858  0  0.093712  0.086539  0  1.061605  0
H  H40  1  0.47428215  0.19792191  0.83506917  1  0  0.08953  0  0.956921  0  0  0.099174  0  1.017075  0  0  0.100931  0  1.018372  0  0.091623  0  0.098208  0.097879  0  1.016283  0
H  H41  1  0.97429458  0.80207482  0.16492216  1  0  0.089584  0  0.956991  0  0  0.099178  0  1.017183  0  0  0.100934  0  1.018485  0  0.091391  0  0.098165  0.097885  0  1.016387  0
H  H42  1  0.48568707  0.31397605  0.00428557  1  0  0.087727  0  0.975786  0  0  0.096643  0  1.041811  0  0  0.09817  0  1.043317  0  0.075103  0  0.097161  0.095491  0  1.040866  0
H  H43  1  0.98568920  0.68602333  0.99570210  1  0  0.087711  0  0.975727  0  0  0.09663  0  1.041772  0  0  0.098147  0  1.043273  0  0.075029  0  0.097156  0.095482  0  1.04082  0
C  C44  1  0.66282580  0.31812103  0.58931643  1  0  0.740376  0  3.857931  0  0  0.690087  0  4.149746  0  0  0.728377  0  4.137957  0  1.496886  0  0.22879  0.664007  0  4.157077  0
C  C45  1  0.16280693  0.68187040  0.41068683  1  0  0.74055  0  3.857037  0  0  0.690134  0  4.149021  0  0  0.72842  0  4.137228  0  1.497553  0  0.22885  0.664064  0  4.156336  0
C  C46  1  0.58618222  0.20243262  0.60390018  1  0  -0.271006  0  3.700931  0  0  -0.284545  0  3.958025  0  0  -0.299272  0  3.975588  0  -0.110837  0  -0.10498  -0.274778  0  3.946178  0
C  C47  1  0.08613373  0.79756941  0.39611301  1  0  -0.270742  0  3.701444  0  0  -0.284254  0  3.958557  0  0  -0.298959  0  3.976111  0  -0.111409  0  -0.104875  -0.274486  0  3.946707  0
C  C48  1  0.41380272  0.18750292  0.60729274  1  0  -0.011391  0  3.70832  0  0  -0.037787  0  3.956665  0  0  -0.031068  0  3.973158  0  0.026564  0  -0.063272  -0.042075  0  3.945395  0
C  C49  1  0.91379970  0.81249734  0.39272647  1  0  -0.011638  0  3.708948  0  0  -0.037996  0  3.957314  0  0  -0.031276  0  3.973801  0  0.028023  0  -0.063432  -0.042283  0  3.946045  0
C  C50  1  0.32249512  0.07773781  0.61894135  1  0  0.063793  0  3.826145  0  0  0.086486  0  4.053388  0  0  0.083684  0  4.078782  0  -0.006261  0  -0.013827  0.088286  0  4.036075  0
C  C51  1  0.82247793  0.92226334  0.38107716  1  0  0.063981  0  3.825527  0  0  0.086611  0  4.05288  0  0  0.083812  0  4.078274  0  -0.007095  0  -0.013787  0.088406  0  4.035559  0
C  C52  1  0.40613463  0.96725033  0.61448477  1  0  -0.109686  0  3.728314  0  0  -0.127076  0  3.968453  0  0  -0.128813  0  3.98984  0  -0.079096  0  -0.086823  -0.125695  0  3.953881  0
C  C53  1  0.90612775  0.03275082  0.38552683  1  0  -0.109647  0  3.728065  0  0  -0.127156  0  3.968221  0  0  -0.128895  0  3.989595  0  -0.078688  0  -0.08681  -0.125765  0  3.953641  0
C  C54  1  0.31484377  0.86521686  0.63098035  1  0  -0.078871  0  3.782922  0  0  -0.092426  0  4.036573  0  0  -0.095137  0  4.056992  0  -0.060496  0  -0.094464  -0.090496  0  4.022646  0
C  C55  1  0.81483173  0.13478605  0.36901831  1  0  -0.078909  0  3.782887  0  0  -0.092502  0  4.036602  0  0  -0.095216  0  4.057013  0  -0.060503  0  -0.094468  -0.090569  0  4.022677  0
C  C56  1  0.13826775  0.87112425  0.65209066  1  0  -0.062049  0  3.751151  0  0  -0.075146  0  3.994611  0  0  -0.076796  0  4.017979  0  -0.079082  0  -0.089189  -0.07379  0  3.978564  0
C  C57  1  0.63826730  0.12888043  0.34790658  1  0  -0.061928  0  3.750775  0  0  -0.074996  0  3.994247  0  0  -0.076645  0  4.01762  0  -0.079195  0  -0.089199  -0.07368  0  3.978182  0
C  C58  1  0.05290018  0.97962166  0.65496818  1  0  -0.074911  0  3.789774  0  0  -0.08589  0  4.036461  0  0  -0.089282  0  4.060038  0  -0.032458  0  -0.093157  -0.083538  0  4.020266  0
C  C59  1  0.55288428  0.02037772  0.34502947  1  0  -0.075047  0  3.790067  0  0  -0.086052  0  4.036749  0  0  -0.089436  0  4.060313  0  -0.031828  0  -0.093221  -0.083702  0  4.020567  0
C  C60  1  0.14368885  0.08216106  0.63762668  1  0  -0.103963  0  3.695163  0  0  -0.122342  0  3.937568  0  0  -0.124108  0  3.958414  0  -0.03596  0  -0.079795  -0.120795  0  3.923252  0
C  C61  1  0.64367295  0.91784980  0.36238174  1  0  -0.104242  0  3.695634  0  0  -0.122559  0  3.938009  0  0  -0.124338  0  3.958869  0  -0.035939  0  -0.079832  -0.121002  0  3.923682  0
C  C62  1  0.24071244  0.49835433  0.67324185  1  0  0.706724  0  3.858123  0  0  0.656068  0  4.149287  0  0  0.693693  0  4.138782  0  1.465187  0  0.209202  0.630396  0  4.155926  0
C  C63  1  0.74071070  0.50164063  0.32675858  1  0  0.706774  0  3.857998  0  0  0.65596  0  4.149413  0  0  0.69356  0  4.138931  0  1.465338  0  0.209171  0.630294  0  4.156046  0
C  C64  1  0.31723755  0.55500769  0.76686175  1  0  -0.252363  0  3.663635  0  0  -0.267323  0  3.920908  0  0  -0.282133  0  3.937585  0  -0.091528  0  -0.099985  -0.257572  0  3.909806  0
C  C65  1  0.81724354  0.44498639  0.23313862  1  0  -0.252318  0  3.663587  0  0  -0.26731  0  3.920896  0  0  -0.282096  0  3.937552  0  -0.091222  0  -0.099941  -0.257557  0  3.909792  0
C  C66  1  0.26453825  0.52566862  0.86062006  1  0  -0.001409  0  3.691334  0  0  -0.024469  0  3.933293  0  0  -0.016309  0  3.948818  0  0.030747  0  -0.056394  -0.029738  0  3.92277  0
C  C67  1  0.76452106  0.47433341  0.13937701  1  0  -0.001498  0  3.691366  0  0  -0.024381  0  3.933311  0  0  -0.016218  0  3.948818  0  0.030418  0  -0.056384  -0.029644  0  3.922791  0
C  C68  1  0.30907499  0.58415506  0.96037565  1  0  0.048218  0  3.841785  0  0  0.070623  0  4.069997  0  0  0.067327  0  4.094467  0  -0.006077  0  -0.017924  0.072841  0  4.053306  0
C  C69  1  0.80906682  0.41584608  0.03962520  1  0  0.048161  0  3.841876  0  0  0.070474  0  4.070195  0  0  0.067153  0  4.094662  0  -0.006112  0  -0.017966  0.072685  0  4.053512  0
C  C70  1  0.40175139  0.69121604  0.97172918  1  0  -0.104301  0  3.725952  0  0  -0.120704  0  3.964502  0  0  -0.122101  0  3.985613  0  -0.049423  0  -0.084874  -0.119532  0  3.950109  0
C  C71  1  0.90174579  0.30878599  0.02826481  1  0  -0.104357  0  3.726066  0  0  -0.120768  0  3.964681  0  0  -0.122142  0  3.985782  0  -0.04942  0  -0.084929  -0.11959  0  3.950288  0
C  C72  1  0.43570089  0.74533047  0.06916801  1  0  -0.07979  0  3.777492  0  0  -0.090426  0  4.022874  0  0  -0.093712  0  4.045663  0  -0.071841  0  -0.091033  -0.088172  0  4.007346  0
C  C73  1  0.93569916  0.25467333  0.93082917  1  0  -0.079753  0  3.777231  0  0  -0.090389  0  4.022627  0  0  -0.09369  0  4.045412  0  -0.071905  0  -0.091048  -0.088133  0  4.007096  0
C  C74  1  0.37752769  0.69417548  0.15724748  1  0  -0.042421  0  3.720627  0  0  -0.059368  0  3.970801  0  0  -0.059407  0  3.990036  0  -0.053968  0  -0.078958  -0.059117  0  3.95769  0
C  C75  1  0.87752338  0.30583450  0.84274782  1  0  -0.042397  0  3.720357  0  0  -0.059268  0  3.970468  0  0  -0.059306  0  3.989695  0  -0.053996  0  -0.078841  -0.059  0  3.957359  0
C  C76  1  0.28499808  0.58829474  0.14744977  1  0  -0.067724  0  3.750052  0  0  -0.081189  0  4.002124  0  0  -0.084254  0  4.02428  0  -0.028442  0  -0.08815  -0.079083  0  3.987061  0
C  C77  1  0.78500021  0.41171082  0.85254984  1  0  -0.067784  0  3.750109  0  0  -0.081274  0  4.002177  0  0  -0.084335  0  4.024327  0  -0.028701  0  -0.088194  -0.079164  0  3.987109  0
C  C78  1  0.25089149  0.53403367  0.04992654  1  0  -0.109603  0  3.725216  0  0  -0.127846  0  3.967599  0  0  -0.130151  0  3.990592  0  -0.071649  0  -0.085265  -0.126063  0  3.951984  0
C  C79  1  0.75088718  0.46597366  0.95007011  1  0  -0.109544  0  3.725004  0  0  -0.127766  0  3.967447  0  0  -0.130056  0  3.990432  0  -0.071755  0  -0.085256  -0.125991  0  3.95183  0
C  C80  1  0.25545758  0.32963457  0.35843246  1  0  0.742023  0  3.861407  0  0  0.689687  0  4.157195  0  0  0.728101  0  4.144866  0  1.546095  0  0.233738  0.663507  0  4.165006  0
C  C81  1  0.75546743  0.67036658  0.64156685  1  0  0.74226  0  3.861003  0  0  0.690004  0  4.156718  0  0  0.728447  0  4.144357  0  1.544073  0  0.233802  0.663825  0  4.164526  0
C  C82  1  0.24070085  0.24993734  0.26410874  1  0  -0.281521  0  3.687948  0  0  -0.296675  0  3.948141  0  0  -0.311402  0  3.963574  0  -0.012144  0  -0.106893  -0.286963  0  3.937813  0
C  C83  1  0.74070941  0.75007264  0.73588963  1  0  -0.28164  0  3.688071  0  0  -0.29687  0  3.948298  0  0  -0.311605  0  3.963739  0  -0.012369  0  -0.106923  -0.287157  0  3.937966  0
C  C84  1  0.34343397  0.26048708  0.18141861  1  0  -0.005791  0  3.710643  0  0  -0.029241  0  3.957898  0  0  -0.020771  0  3.973144  0  -0.125914  0  -0.058914  -0.034674  0  3.947451  0
C  C85  1  0.84343481  0.73952114  0.81857657  1  0  -0.005596  0  3.710795  0  0  -0.029034  0  3.958054  0  0  -0.020552  0  3.973298  0  -0.1257  0  -0.0589  -0.034466  0  3.947603  0
C  C86  1  0.33793947  0.18790134  0.08430223  1  0  0.054014  0  3.828504  0  0  0.075575  0  4.057746  0  0  0.071976  0  4.083157  0  -0.021006  0  -0.016494  0.07795  0  4.040432  0
C  C87  1  0.83794031  0.81209804  0.91569312  1  0  0.053993  0  3.828446  0  0  0.075505  0  4.057744  0  0  0.071901  0  4.083149  0  -0.020939  0  -0.016494  0.077882  0  4.040423  0
C  C88  1  0.25352864  0.07768039  0.07383264  1  0  -0.100692  0  3.716433  0  0  -0.118381  0  3.955448  0  0  -0.11999  0  3.976941  0  -0.080765  0  -0.083421  -0.117086  0  3.940803  0
C  C89  1  0.75352047  0.92231988  0.92616661  1  0  -0.100669  0  3.716266  0  0  -0.118324  0  3.955317  0  0  -0.119934  0  3.97681  0  -0.080861  0  -0.083445  -0.117033  0  3.940671  0
C  C90  1  0.24809724  0.01230596  0.97903287  1  0  -0.073788  0  3.777422  0  0  -0.084124  0  4.023332  0  0  -0.08658  0  4.04481  0  -0.050332  0  -0.090237  -0.08247  0  4.00876  0
C  C91  1  0.74808392  0.98768812  0.02096826  1  0  -0.073804  0  3.777546  0  0  -0.084143  0  4.02343  0  0  -0.086601  0  4.044915  0  -0.049035  0  -0.090178  -0.082486  0  4.00886  0
C  C92  1  0.32693373  0.05526817  0.89275524  1  0  -0.060694  0  3.747916  0  0  -0.074104  0  3.992626  0  0  -0.074812  0  4.013469  0  -0.079911  0  -0.085532  -0.073425  0  3.978375  0
C  C93  1  0.82693071  0.94472503  0.10724199  1  0  -0.060465  0  3.747819  0  0  -0.073879  0  3.992512  0  0  -0.074596  0  4.013366  0  -0.08115  0  -0.085484  -0.073211  0  3.978268  0
C  C94  1  0.41248415  0.16392548  0.90195338  1  0  -0.06723  0  3.760305  0  0  -0.077602  0  4.004657  0  0  -0.080307  0  4.026151  0  -0.096834  0  -0.089001  -0.075761  0  3.990065  0
C  C95  1  0.91249400  0.83607214  0.09804339  1  0  -0.067415  0  3.760211  0  0  -0.077744  0  4.004576  0  0  -0.080445  0  4.026061  0  -0.096477  0  -0.089001  -0.075901  0  3.989978  0
C  C96  1  0.41890706  0.22923276  0.99704735  1  0  -0.103578  0  3.715996  0  0  -0.121762  0  3.957581  0  0  -0.123416  0  3.979615  0  -0.007734  0  -0.083028  -0.120463  0  3.942624  0
C  C97  1  0.91891176  0.77076838  0.00294428  1  0  -0.103547  0  3.715833  0  0  -0.121707  0  3.9574  0  0  -0.12335  0  3.979418  0  -0.007705  0  -0.083012  -0.12041  0  3.942432  0
O  O98  1  0.56466778  0.40804730  0.58308564  1  0  -0.714409  0  2.08951  0  0  -0.649693  0  2.344633  0  0  -0.679238  0  2.333257  0  -1.218134  0  -0.401211  -0.628873  0  2.35178  0
O  O99  1  0.06464118  0.59193088  0.41690904  1  0  -0.714555  0  2.089314  0  0  -0.649736  0  2.344397  0  0  -0.679269  0  2.333025  0  -1.218656  0  -0.401231  -0.628919  0  2.351535  0
O  O100  1  0.82706978  0.32386587  0.58365131  1  0  -0.669361  0  2.020385  0  0  -0.603056  0  2.26885  0  0  -0.631166  0  2.255767  0  -1.156336  0  -0.381933  -0.583366  0  2.277395  0
O  O101  1  0.32705348  0.67612379  0.41635030  1  0  -0.669407  0  2.020239  0  0  -0.602975  0  2.268662  0  0  -0.631068  0  2.255566  0  -1.156801  0  -0.381882  -0.583297  0  2.277214  0
O  O102  1  0.26944686  0.54323796  0.58513030  1  0  -0.740896  0  2.098047  0  0  -0.664786  0  2.351206  0  0  -0.695578  0  2.338942  0  -1.209186  0  -0.418689  -0.64296  0  2.358776  0
O  O103  1  0.76945156  0.45675258  0.41486753  1  0  -0.740911  0  2.098138  0  0  -0.664702  0  2.351304  0  0  -0.695474  0  2.339054  0  -1.209213  0  -0.418644  -0.642887  0  2.358876  0
O  O104  1  0.13412144  0.41356599  0.67427491  1  0  -0.628424  0  1.975714  0  0  -0.569679  0  2.212109  0  0  -0.595853  0  2.202277  0  -1.16945  0  -0.350414  -0.551508  0  2.21852  0
O  O105  1  0.63412099  0.58642544  0.32572988  1  0  -0.628523  0  1.975698  0  0  -0.569671  0  2.212115  0  0  -0.59585  0  2.202291  0  -1.169582  0  -0.350465  -0.551474  0  2.218484  0
O  O106  1  0.13386648  0.32655145  0.42500319  1  0  -0.686893  0  2.024836  0  0  -0.617382  0  2.273687  0  0  -0.645587  0  2.258956  0  -1.219063  0  -0.39328  -0.597689  0  2.283456  0
O  O107  1  0.63388020  0.67343998  0.57499700  1  0  -0.686911  0  2.024866  0  0  -0.617469  0  2.27376  0  0  -0.64572  0  2.259014  0  -1.218846  0  -0.393194  -0.597764  0  2.283533  0
O  O108  1  0.38493696  0.39834476  0.37037568  1  0  -0.685172  0  2.066516  0  0  -0.620856  0  2.322884  0  0  -0.649069  0  2.310001  0  -1.204771  0  -0.383793  -0.601143  0  2.331271  0
O  O109  1  0.88495711  0.60165285  0.62962954  1  0  -0.685353  0  2.066162  0  0  -0.621124  0  2.322633  0  0  -0.649341  0  2.309751  0  -1.202725  0  -0.383931  -0.60142  0  2.33101  0
