# generated using pymatgen
data_CoH4C6(N2O)2
_symmetry_space_group_name_H-M   'P 1'
_cell_length_a   5.86243491
_cell_length_b   10.15922263
_cell_length_c   12.58020014
_cell_angle_alpha   89.99985941
_cell_angle_beta   89.99971771
_cell_angle_gamma   89.99922639
_symmetry_Int_Tables_number   1
_chemical_formula_structural   CoH4C6(N2O)2
_chemical_formula_sum   'Co4 H16 C24 N16 O8'
_cell_volume   749.24880952
_cell_formula_units_Z   4
loop_
 _symmetry_equiv_pos_site_id
 _symmetry_equiv_pos_as_xyz
  1  'x, y, z'
loop_
 _atom_site_type_symbol
 _atom_site_label
 _atom_site_symmetry_multiplicity
 _atom_site_fract_x
 _atom_site_fract_y
 _atom_site_fract_z
 _atom_site_occupancy
 _atom_site_hle17_ddec_charge
 _atom_site_hle17_ddec_spin_density
 _atom_site_hle17_ddec_sum_bond_order
 _atom_site_hle17_magmom
 _atom_site_hse06_10hf_ddec_charge
 _atom_site_hse06_10hf_ddec_spin_density
 _atom_site_hse06_10hf_ddec_sum_bond_order
 _atom_site_hse06_10hf_magmom
 _atom_site_hse06_ddec_charge
 _atom_site_hse06_ddec_spin_density
 _atom_site_hse06_ddec_sum_bond_order
 _atom_site_hse06_magmom
 _atom_site_pbe_cm5_charge
 _atom_site_pbe_ddec_charge
 _atom_site_pbe_ddec_spin_density
 _atom_site_pbe_ddec_sum_bond_order
 _atom_site_pbe_magmom
Co  Co0  1  0.20842054  0.68005733  0.49367721  1  0.910793  -2.875071  2.146456  -2.469  0.885085  -2.830216  2.596538  -2.543  0.980577  -2.899096  2.506254  -2.646  0.686513  0.809057  -2.766379  2.668882  -2.444
Co  Co1  1  0.29157026  0.31993814  0.99367746  1  0.911028  2.875116  2.146629  2.469  0.885135  2.830193  2.596763  2.543  0.980634  2.899076  2.506473  2.646  0.68657  0.809122  2.766351  2.669109  2.444
Co  Co2  1  0.79156837  0.18004401  0.00632303  1  0.910839  2.875004  2.146502  2.469  0.885208  2.830234  2.596534  2.543  0.980691  2.899114  2.506252  2.646  0.686572  0.80919  2.766359  2.668881  2.444
Co  Co3  1  0.70842276  0.81995575  0.50632647  1  0.91068  -2.875  2.146598  -2.469  0.885135  -2.830225  2.596625  -2.543  0.980629  -2.899109  2.506337  -2.646  0.686571  0.809127  -2.766347  2.668961  -2.444
H  H4  1  0.71507348  0.03683128  0.21244162  1  0.096756  0.000668  0.942722  0.002  0.100785  0.000486  1.012123  0.001  0.104007  0.000344  1.008046  0.001  0.12104  0.098119  0.000633  1.015605  0.002
H  H5  1  0.78491741  0.96318066  0.71243741  1  0.096756  -0.000669  0.942791  -0.002  0.100769  -0.000485  1.012222  -0.001  0.103994  -0.000343  1.008131  -0.001  0.121057  0.098103  -0.000633  1.015704  -0.002
H  H6  1  0.28489304  0.53682984  0.28755335  1  0.096791  -0.000668  0.942777  -0.002  0.100807  -0.000486  1.012192  -0.001  0.10403  -0.000343  1.008119  -0.001  0.121021  0.098137  -0.000633  1.015675  -0.002
H  H7  1  0.21508775  0.46315838  0.78755430  1  0.096888  0.000669  0.942662  0.002  0.100843  0.000486  1.012124  0.001  0.104061  0.000344  1.008052  0.001  0.121074  0.098179  0.000633  1.015606  0.002
H  H8  1  0.47542018  0.99607489  0.90328291  1  0.091021  0.000481  0.94378  0.002  0.094417  0.000289  1.014952  0.001  0.097463  0.000144  1.011045  0.001  0.120048  0.091868  0.00042  1.018319  0.001
H  H9  1  0.02457829  0.00392184  0.40328528  1  0.09107  -0.000482  0.943893  -0.002  0.094483  -0.000289  1.015035  -0.001  0.097531  -0.000144  1.011127  -0.001  0.120068  0.09193  -0.00042  1.018405  -0.001
H  H10  1  0.52458596  0.49609792  0.59670794  1  0.091066  -0.000482  0.94367  -0.002  0.094454  -0.00029  1.014857  -0.001  0.097501  -0.000144  1.010948  -0.001  0.120076  0.091902  -0.000421  1.018223  -0.001
H  H11  1  0.97542819  0.50390944  0.09671213  1  0.091104  0.000482  0.943708  0.002  0.094454  0.000289  1.014945  0.001  0.097501  0.000144  1.011037  0.001  0.120064  0.091903  0.000421  1.018313  0.001
H  H12  1  0.18587096  0.75354978  0.15136703  1  0.105245  -0.00015  0.956379  0.001  0.111823  -0.00038  1.02418  0.0  0.115161  -0.000302  1.020575  0.0  0.108032  0.108907  -0.000475  1.027617  0.0
H  H13  1  0.31414181  0.24644081  0.65136419  1  0.1053  0.00015  0.956279  -0.001  0.111845  0.00038  1.024118  0.0  0.115181  0.000303  1.020517  0.0  0.108051  0.108942  0.000475  1.027542  0.0
H  H14  1  0.81413165  0.25355592  0.34863147  1  0.105295  0.000151  0.956195  -0.001  0.111859  0.00038  1.024021  0.0  0.115196  0.000303  1.020419  0.0  0.108057  0.108941  0.000476  1.027464  0.0
H  H15  1  0.68590403  0.74645561  0.84864227  1  0.105272  -0.000151  0.956396  0.001  0.111868  -0.000381  1.024187  0.0  0.115206  -0.000302  1.020584  0.0  0.10806  0.108974  -0.000476  1.027606  0.0
H  H16  1  0.20276385  0.82058612  0.95718798  1  0.107521  0.000137  0.961819  0.0  0.114884  0.000145  1.024435  0.0  0.117216  8.8e-05  1.025623  0.0  0.106654  0.113172  0.0002  1.023922  0.0
H  H17  1  0.29724776  0.17940160  0.45718613  1  0.107559  -0.000136  0.961852  0.0  0.11497  -0.000145  1.024414  0.0  0.117305  -8.8e-05  1.025593  0.0  0.106687  0.113251  -0.0002  1.0239  0.0
H  H18  1  0.79725645  0.32061004  0.54280878  1  0.107543  -0.000137  0.961605  0.0  0.114898  -0.000145  1.024243  0.0  0.117238  -8.8e-05  1.025408  0.0  0.106668  0.113178  -0.0002  1.023736  0.0
H  H19  1  0.70278550  0.67941127  0.04281729  1  0.107572  0.000137  0.961951  0.0  0.114969  0.000145  1.024517  0.0  0.117302  8.8e-05  1.025699  0.0  0.106678  0.113254  0.0002  1.024004  0.0
C  C20  1  0.45574845  0.85141814  0.31075356  1  0.654938  0.004654  3.897488  0.009  0.610532  -0.001632  4.191944  0.0  0.649579  -0.001374  4.186003  0.0  0.213777  0.582254  -0.001214  4.19516  0.002
C  C21  1  0.04424918  0.14857789  0.81075081  1  0.654818  -0.004655  3.897554  -0.009  0.610469  0.001631  4.191979  0.0  0.649517  0.001374  4.186039  0.0  0.213791  0.582195  0.001214  4.195187  -0.002
C  C22  1  0.54422809  0.35141317  0.18924793  1  0.654888  -0.004655  3.897488  -0.009  0.610583  0.001632  4.191825  0.0  0.649632  0.001374  4.185876  0.0  0.213875  0.582315  0.001214  4.195036  -0.002
C  C23  1  0.95576302  0.64858604  0.68924948  1  0.654989  0.004655  3.897353  0.009  0.61059  -0.001631  4.191797  0.0  0.649633  -0.001374  4.18586  0.0  0.213912  0.582325  -0.001214  4.195013  0.002
C  C24  1  0.60135099  0.98576762  0.15795042  1  0.131047  -0.009383  3.645522  -0.012  0.092899  -0.002319  3.897741  -0.003  0.10544  -0.001731  3.913292  -0.003  0.052532  0.083059  -0.003208  3.888703  -0.004
C  C25  1  0.89863871  0.01423562  0.65795021  1  0.131058  0.009395  3.645648  0.012  0.092942  0.00232  3.897859  0.003  0.105487  0.001728  3.913414  0.003  0.052517  0.083106  0.003206  3.888818  0.004
C  C26  1  0.39861914  0.48577322  0.34204682  1  0.130926  0.009378  3.645658  0.012  0.092814  0.002323  3.897899  0.003  0.10535  0.001731  3.913456  0.003  0.052484  0.082984  0.003209  3.888856  0.004
C  C27  1  0.10136285  0.51422369  0.84204637  1  0.130872  -0.009383  3.645542  -0.012  0.092771  -0.002324  3.897738  -0.003  0.105315  -0.001732  3.913284  -0.003  0.052432  0.082944  -0.003209  3.888706  -0.004
C  C28  1  0.46529638  0.96309886  0.98547799  1  0.140821  -0.007974  3.657459  -0.011  0.108237  -0.000962  3.920502  -0.002  0.119207  -0.000639  3.936943  -0.001  0.051993  0.09976  -0.001323  3.910387  -0.002
C  C29  1  0.03469791  0.03689861  0.48547391  1  0.140731  0.007989  3.657445  0.011  0.108127  0.000962  3.920543  0.002  0.119095  0.000639  3.936989  0.001  0.051973  0.099654  0.001322  3.910418  0.002
C  C30  1  0.53470026  0.46311418  0.51451928  1  0.140759  0.007971  3.65738  0.011  0.108143  0.000963  3.920525  0.002  0.119111  0.00064  3.936971  0.001  0.051986  0.09967  0.001323  3.910396  0.002
C  C31  1  0.96531467  0.53688851  0.01452502  1  0.14084  -0.007979  3.657219  -0.011  0.108226  -0.000964  3.920328  -0.002  0.119194  -0.000641  3.936771  -0.001  0.051973  0.099754  -0.001325  3.910198  -0.002
C  C32  1  0.30559185  0.82775876  0.12310095  1  -0.002219  -0.00938  3.66173  -0.011  -0.029554  -0.002919  3.901188  -0.004  -0.020155  -0.001659  3.913567  -0.002  -0.060105  -0.037291  -0.00477  3.895342  -0.006
C  C33  1  0.19441607  0.17222996  0.62309936  1  -0.002294  0.009396  3.661502  0.011  -0.029592  0.00292  3.901037  0.004  -0.020196  0.001657  3.913427  0.002  -0.060105  -0.037347  0.004769  3.895187  0.006
C  C34  1  0.69440057  0.32777464  0.37689660  1  -0.00228  0.009379  3.661417  0.011  -0.029568  0.002923  3.900903  0.004  -0.020173  0.001659  3.913296  0.002  -0.060118  -0.037304  0.004773  3.895066  0.006
C  C35  1  0.80562119  0.67224271  0.87690326  1  -0.002265  -0.009381  3.66171  -0.011  -0.02964  -0.002922  3.901191  -0.004  -0.020245  -0.001663  3.913578  -0.002  -0.06014  -0.037385  -0.004774  3.895356  -0.006
C  C36  1  0.45455966  0.88807270  0.19515838  1  -0.111556  0.001074  3.748318  0.002  -0.086062  -0.002025  3.979938  -0.002  -0.099471  -0.001592  4.000014  -0.002  -0.013074  -0.078075  -0.002478  3.969186  -0.002
C  C37  1  0.04542883  0.11192269  0.69515570  1  -0.111531  -0.00109  3.748406  -0.002  -0.086104  0.002023  3.980088  0.002  -0.099517  0.001593  4.000168  0.002  -0.013103  -0.078124  0.002479  3.969341  0.002
C  C38  1  0.54540753  0.38808017  0.30484144  1  -0.111512  -0.00107  3.748427  -0.002  -0.086119  0.002022  3.980125  0.002  -0.099532  0.001592  4.000204  0.002  -0.013063  -0.078158  0.002477  3.969397  0.002
C  C39  1  0.95458761  0.61192461  0.80484625  1  -0.111484  0.001069  3.748384  0.002  -0.085953  -0.002022  3.97994  -0.002  -0.099358  -0.001591  4.000009  -0.002  -0.013049  -0.078016  -0.002478  3.96925  -0.002
C  C40  1  0.31355108  0.86509048  0.01656683  1  -0.112243  0.007946  3.713484  0.011  -0.120601  0.002295  3.95934  0.004  -0.129518  0.001668  3.979765  0.003  -0.079512  -0.114779  0.002831  3.946758  0.005
C  C41  1  0.18645954  0.13490052  0.51656295  1  -0.112286  -0.007963  3.713384  -0.011  -0.120679  -0.002294  3.959237  -0.004  -0.129594  -0.001669  3.979662  -0.003  -0.079564  -0.114854  -0.002831  3.946649  -0.005
C  C42  1  0.68645756  0.36511300  0.48343145  1  -0.112303  -0.007943  3.713229  -0.011  -0.120643  -0.002295  3.959124  -0.004  -0.129557  -0.00167  3.979553  -0.003  -0.079592  -0.11482  -0.002832  3.946533  -0.005
C  C43  1  0.81355297  0.63490009  0.98343896  1  -0.112397  0.007948  3.713441  0.011  -0.120755  0.002297  3.959312  0.004  -0.129672  0.001671  3.979741  0.003  -0.07956  -0.114932  0.002833  3.946725  0.005
N  N44  1  0.37331708  0.83237219  0.66550956  1  0.421821  0.022047  4.108222  0.044  0.464599  -0.000605  4.408713  0.006  0.485474  0.004386  4.446455  0.012  0.10872  0.449159  -0.005723  4.37903  0.0
N  N45  1  0.12667509  0.16761541  0.16550658  1  0.421877  -0.022037  4.108224  -0.044  0.46458  0.000611  4.408738  -0.006  0.485462  -0.004381  4.446471  -0.012  0.108794  0.449139  0.005728  4.379059  0.0
N  N46  1  0.62669101  0.33238974  0.83448638  1  0.421922  -0.021997  4.108171  -0.044  0.464514  0.000628  4.408845  -0.006  0.485393  -0.004365  4.44657  -0.012  0.108776  0.449071  0.005742  4.379164  0.0
N  N47  1  0.87330045  0.66761691  0.33448812  1  0.421919  0.021991  4.108563  0.044  0.464593  -0.000627  4.409148  0.006  0.485469  0.004363  4.446881  0.012  0.108793  0.449149  -0.005742  4.379464  0.0
N  N48  1  0.40041058  0.81343869  0.57073284  1  -0.580301  -0.055354  2.980398  -0.074  -0.611666  -0.040669  3.374048  -0.039  -0.668713  -0.023087  3.380992  -0.012  -0.345372  -0.565157  -0.058887  3.368652  -0.066
N  N49  1  0.09958589  0.18655116  0.07072670  1  -0.580348  0.055355  2.980497  0.074  -0.611673  0.040671  3.374146  0.039  -0.668727  0.023091  3.38109  0.012  -0.345413  -0.56517  0.058893  3.368761  0.066
N  N50  1  0.59959453  0.31344436  0.92927587  1  -0.580433  0.055438  2.979711  0.075  -0.611709  0.040711  3.373436  0.039  -0.668782  0.023129  3.380393  0.012  -0.345463  -0.565191  0.058939  3.368039  0.066
N  N51  1  0.90039263  0.68656004  0.42927671  1  -0.580345  -0.055451  2.979748  -0.075  -0.611673  -0.040713  3.373455  -0.039  -0.668741  -0.02313  3.380406  -0.012  -0.345465  -0.565151  -0.058938  3.368059  -0.066
N  N52  1  0.60440874  0.02423652  0.05547288  1  -0.322605  0.050337  3.3432  0.077  -0.27436  0.035371  3.643312  0.05  -0.305718  0.027888  3.659103  0.039  -0.337178  -0.251494  0.041582  3.63362  0.059
N  N53  1  0.89559045  0.97576703  0.55547473  1  -0.322513  -0.050354  3.343102  -0.077  -0.27429  -0.035372  3.643227  -0.05  -0.305655  -0.027889  3.659028  -0.039  -0.337182  -0.251428  -0.041583  3.633529  -0.059
N  N54  1  0.39559218  0.52424650  0.44452290  1  -0.322449  -0.050341  3.342971  -0.077  -0.274167  -0.035373  3.643055  -0.05  -0.305527  -0.027889  3.658855  -0.039  -0.33707  -0.251297  -0.041585  3.633341  -0.059
N  N55  1  0.10441102  0.47574519  0.94452252  1  -0.322651  0.050344  3.343  0.077  -0.274312  0.035377  3.643024  0.05  -0.305671  0.027894  3.658817  0.039  -0.337153  -0.251452  0.041588  3.633326  0.059
N  N56  1  0.34690932  0.85304304  0.75520211  1  -0.284444  -0.122641  2.371408  -0.178  -0.296518  -0.080981  2.601439  -0.115  -0.307922  -0.06993  2.614735  -0.102  -0.120123  -0.284917  -0.095041  2.590371  -0.131
N  N57  1  0.15308543  0.14694528  0.25519591  1  -0.284534  0.122608  2.371338  0.178  -0.296512  0.080971  2.601406  0.115  -0.307922  0.069921  2.614709  0.102  -0.12014  -0.284889  0.095028  2.590306  0.131
N  N58  1  0.65308808  0.35306360  0.74481129  1  -0.284413  0.122485  2.372088  0.178  -0.296331  0.080917  2.602193  0.114  -0.30773  0.069865  2.615485  0.102  -0.120006  -0.284717  0.094971  2.591099  0.131
N  N59  1  0.84690933  0.64694628  0.24481393  1  -0.2844  -0.122473  2.37239  -0.178  -0.296378  -0.080906  2.60241  -0.114  -0.307773  -0.069856  2.615703  -0.102  -0.120018  -0.284787  -0.094959  2.591342  -0.131
O  O60  1  0.30512748  0.77126395  0.34202281  1  -0.631731  -0.027982  2.120173  -0.05  -0.591614  -0.025349  2.389745  -0.045  -0.628971  -0.020252  2.38171  -0.036  -0.298674  -0.562532  -0.030637  2.394034  -0.053
O  O61  1  0.19486985  0.22873690  0.84201872  1  -0.631642  0.02798  2.120135  0.05  -0.591506  0.025349  2.389614  0.045  -0.628874  0.020252  2.381597  0.036  -0.298677  -0.562435  0.030639  2.393908  0.053
O  O62  1  0.69483720  0.27124505  0.15797645  1  -0.631763  0.027977  2.12011  0.05  -0.591657  0.025346  2.389589  0.045  -0.62903  0.02025  2.381584  0.036  -0.298834  -0.562587  0.030636  2.393882  0.053
O  O63  1  0.80516785  0.72876213  0.65798221  1  -0.631748  -0.02798  2.120138  -0.05  -0.591655  -0.025349  2.389735  -0.045  -0.629029  -0.020251  2.381736  -0.036  -0.298815  -0.562585  -0.030637  2.394032  -0.053
O  O64  1  0.61206319  0.90336923  0.36842011  1  -0.614904  -0.045347  2.084305  -0.073  -0.572997  -0.03541  2.347385  -0.054  -0.613744  -0.028003  2.336113  -0.042  -0.315347  -0.541225  -0.042874  2.355294  -0.066
O  O65  1  0.88791600  0.09663535  0.86841818  1  -0.614887  0.04535  2.084238  0.073  -0.572969  0.035415  2.347287  0.054  -0.613716  0.028009  2.336021  0.042  -0.315327  -0.541196  0.042881  2.355191  0.066
O  O66  1  0.38790024  0.40335684  0.13158047  1  -0.614911  0.04535  2.084357  0.073  -0.573024  0.035415  2.347423  0.054  -0.613773  0.028009  2.336159  0.042  -0.315315  -0.541251  0.042882  2.355323  0.066
O  O67  1  0.11208542  0.59663480  0.63158301  1  -0.614931  -0.045349  2.084211  -0.073  -0.573028  -0.035412  2.347304  -0.054  -0.613774  -0.028004  2.33604  -0.042  -0.315331  -0.541251  -0.042877  2.355203  -0.066
