# generated using pymatgen
data_Zr3H5C25(Cl5O8)2
_symmetry_space_group_name_H-M   'P 1'
_cell_length_a   14.78757683
_cell_length_b   14.83390468
_cell_length_c   14.72704409
_cell_angle_alpha   60.12183203
_cell_angle_beta   60.81317118
_cell_angle_gamma   60.11764580
_symmetry_Int_Tables_number   1
_chemical_formula_structural   Zr3H5C25(Cl5O8)2
_chemical_formula_sum   'Zr6 H10 C50 Cl20 O32'
_cell_volume   2302.20807971
_cell_formula_units_Z   2
loop_
 _symmetry_equiv_pos_site_id
 _symmetry_equiv_pos_as_xyz
  1  'x, y, z'
loop_
 _atom_site_type_symbol
 _atom_site_label
 _atom_site_symmetry_multiplicity
 _atom_site_fract_x
 _atom_site_fract_y
 _atom_site_fract_z
 _atom_site_occupancy
 _atom_site_pbe_bader_charge
 _atom_site_pbe_bader_spin_density
 _atom_site_pbe_cm5_charge
 _atom_site_pbe_ddec_charge
 _atom_site_pbe_ddec_spin_density
 _atom_site_pbe_ddec_sum_bond_order
 _atom_site_pbe_magmom
Zr  Zr0  1  0.88818864  0.87762296  0.61913542  1  2.634603  0  1.622857  2.383902  0  2.716412  0
Zr  Zr1  1  0.11891129  0.12237125  0.37642244  1  2.636283  0  1.622465  2.385275  0  2.717367  0
Zr  Zr2  1  0.12623339  0.88250548  0.61498161  1  2.635483  0  1.62532  2.379666  0  2.735184  0
Zr  Zr3  1  0.88054661  0.11704676  0.37959700  1  2.633626  0  1.621064  2.377018  0  2.734619  0
Zr  Zr4  1  0.12227412  0.88222014  0.37752927  1  2.632519  0  1.62395  2.385855  0  2.72338  0
Zr  Zr5  1  0.88332378  0.11952417  0.61609582  1  2.636448  0  1.62039  2.385495  0  2.710825  0
H  H6  1  0.10179546  0.71906351  0.59097138  1  0.610006  0  0.331077  0.424232  0  0.854397  0
H  H7  1  0.09141924  0.09653488  0.21380699  1  0.603576  0  0.319338  0.413094  0  0.880247  0
H  H8  1  0.09751726  0.09766102  0.58955786  1  0.61528  0  0.317634  0.411313  0  0.882536  0
H  H9  1  0.72213007  0.08645958  0.59518215  1  0.637626  0  0.323151  0.416725  0  0.869474  0
H  H10  1  0.15259324  0.39784097  0.07967179  1  0.114006  0  0.10582  0.118564  0  0.992418  0
H  H11  1  0.16064223  0.56654094  0.91464197  1  0.094013  0  0.101551  0.115665  0  1.003164  0
H  H12  1  0.74052352  0.67485035  0.97104182  1  0.061514  0  0.098443  0.117571  0  0.96981  0
H  H13  1  0.79760991  0.59351378  0.88701478  1  0.056021  0  0.089  0.105485  0  1.021569  0
H  H14  1  0.78554578  0.42418203  0.05913918  1  0.05852  0  0.097218  0.114913  0  0.972245  0
H  H15  1  0.73005405  0.50862603  0.14009867  1  0.073625  0  0.081161  0.094435  0  1.062902  0
C  C16  1  0.00821388  0.69854589  0.49107405  1  1.594245  0  0.231898  0.656094  0  4.092202  0
C  C17  1  0.30831015  0.99798913  0.19725804  1  1.619761  0  0.235333  0.663183  0  4.083535  0
C  C18  1  0.99129190  0.31098079  0.49177203  1  1.613815  0  0.235807  0.662594  0  4.081449  0
C  C19  1  0.70704283  0.99750205  0.80709049  1  1.605184  0  0.23239  0.655426  0  4.098465  0
C  C20  1  0.00856139  0.70109669  0.80328082  1  1.517698  0  0.23477  0.64214  0  4.110153  0
C  C21  1  0.70463945  0.98581137  0.50281606  1  1.633197  0  0.230879  0.651821  0  4.13235  0
C  C22  1  0.99115468  0.30877323  0.19975170  1  1.549162  0  0.235307  0.644798  0  4.099168  0
C  C23  1  0.30939150  0.00040909  0.49033402  1  1.644904  0  0.232687  0.654556  0  4.129078  0
C  C24  1  0.30982121  0.70125625  0.49524519  1  1.60194  0  0.232348  0.653637  0  4.098507  0
C  C25  1  0.00633792  0.99339791  0.80198754  1  1.640037  0  0.232204  0.658321  0  4.142587  0
C  C26  1  0.69170243  0.29464803  0.49974166  1  1.597153  0  0.231984  0.653431  0  4.091801  0
C  C27  1  0.99033140  0.99912484  0.20048853  1  1.641812  0  0.232185  0.658249  0  4.142209  0
C  C28  1  0.98894336  0.41423635  0.49140085  1  0.080312  0  -0.017247  -0.123926  0  3.888128  0
C  C29  1  0.00932396  0.59637573  0.49047857  1  0.085668  0  -0.018968  -0.128255  0  3.896203  0
C  C30  1  0.03088816  0.49096060  0.39133693  1  0.128699  0  0.013097  0.071152  0  4.01542  0
C  C31  1  0.96814176  0.51913090  0.59046892  1  0.089087  0  0.011506  0.069841  0  4.018991  0
C  C32  1  0.04556570  0.57830004  0.39066067  1  0.127803  0  0.014068  0.072124  0  4.012236  0
C  C33  1  0.95407337  0.43143663  0.59131772  1  0.103329  0  0.012267  0.069928  0  4.015883  0
C  C34  1  0.41230124  0.99533899  0.09807155  1  0.068017  0  -0.016613  -0.122629  0  3.894737  0
C  C35  1  0.60405261  0.99953131  0.90731403  1  0.083536  0  -0.017389  -0.122767  0  3.901538  0
C  C36  1  0.49776805  0.01851581  0.09059210  1  0.112805  0  0.013428  0.072081  0  4.016785  0
C  C37  1  0.51835158  0.97687443  0.91457888  1  0.130737  0  0.011049  0.067646  0  4.022595  0
C  C38  1  0.59135413  0.02310018  0.99537210  1  0.127016  0  0.01268  0.070583  0  4.017415  0
C  C39  1  0.42416193  0.97375371  0.00905817  1  0.103411  0  0.011142  0.071322  0  4.017526  0
C  C40  1  0.00492934  0.99119795  0.90597344  1  0.082631  0  -0.017344  -0.114318  0  3.940693  0
C  C41  1  0.99002687  0.00020458  0.09785753  1  0.087706  0  -0.017332  -0.116183  0  3.942024  0
C  C42  1  0.04874229  0.06042083  0.89818990  1  0.126428  0  0.009155  0.071594  0  4.029207  0
C  C43  1  0.94591276  0.93123865  0.10565003  1  0.108592  0  0.009756  0.070472  0  4.03829  0
C  C44  1  0.03872331  0.06719503  0.99453392  1  0.094107  0  0.00977  0.069432  0  4.026976  0
C  C45  1  0.95701111  0.92353077  0.00919593  1  0.13874  0  0.011339  0.068097  0  4.038456  0
C  C46  1  0.40518859  0.59365492  0.49909842  1  0.124148  0  -0.018243  -0.125525  0  3.890781  0
C  C47  1  0.58308705  0.38850994  0.50486454  1  0.053489  0  -0.019842  -0.131247  0  3.893988  0
C  C48  1  0.47224245  0.56503341  0.40262478  1  0.0807  0  0.015378  0.073416  0  4.01293  0
C  C49  1  0.51430584  0.41569539  0.60238532  1  0.099795  0  0.014021  0.074914  0  4.008465  0
C  C50  1  0.55128316  0.45853262  0.40877281  1  0.121337  0  0.017332  0.074309  0  4.009732  0
C  C51  1  0.42353141  0.51453492  0.60020691  1  0.125412  0  0.012437  0.06901  0  4.009976  0
C  C52  1  0.00374304  0.60374918  0.90559807  1  0.071634  0  -0.016848  -0.087032  0  3.986419  0
C  C53  1  0.99283855  0.40982004  0.09981307  1  0.00535  0  -0.014692  -0.086227  0  3.960683  0
C  C54  1  0.91360091  0.56811705  0.95910687  1  -0.033833  0  -0.004305  0.066746  0  3.875762  0
C  C55  1  0.08437780  0.44618221  0.04617931  1  -0.051631  0  -0.087875  -0.098601  0  3.971995  0
C  C56  1  0.90780580  0.47409217  0.05359430  1  -0.045323  0  -0.001385  0.072039  0  3.860873  0
C  C57  1  0.08947565  0.54043985  0.95272405  1  -0.088455  0  -0.086337  -0.09935  0  3.979915  0
C  C58  1  0.80035421  0.59589092  0.95886297  1  -0.011321  0  -0.154642  -0.195871  0  3.862233  0
C  C59  1  0.79344638  0.49044967  0.06551865  1  -0.034193  0  -0.159223  -0.203382  0  3.88258  0
C  C60  1  0.41279257  0.99737892  0.49048194  1  0.064909  0  -0.016162  -0.118253  0  3.928801  0
C  C61  1  0.60178775  0.98679954  0.50341638  1  0.081871  0  -0.015395  -0.114712  0  3.926747  0
C  C62  1  0.50822925  0.90392291  0.48425899  1  0.114482  0  0.013731  0.070384  0  4.03566  0
C  C63  1  0.50578987  0.07942280  0.51132417  1  0.117085  0  0.011909  0.069908  0  4.025454  0
C  C64  1  0.60211702  0.89813961  0.49217647  1  0.131024  0  0.014012  0.069906  0  4.024179  0
C  C65  1  0.41183798  0.08518996  0.50381060  1  0.128516  0  0.012962  0.071503  0  4.018586  0
Cl  Cl66  1  0.05889608  0.48463571  0.26664985  1  -0.144192  0  0.020917  -0.028639  0  1.702267  0
Cl  Cl67  1  0.94213550  0.52422070  0.71531159  1  -0.153867  0  0.021806  -0.034133  0  1.708582  0
Cl  Cl68  1  0.11019514  0.65807393  0.26607859  1  -0.131441  0  0.021053  -0.018531  0  1.713143  0
Cl  Cl69  1  0.89369370  0.34844794  0.71658801  1  -0.136677  0  0.015906  -0.02879  0  1.702777  0
Cl  Cl70  1  0.49178594  0.03805247  0.19907918  1  -0.153406  0  0.014665  -0.02851  0  1.682371  0
Cl  Cl71  1  0.52413592  0.95812842  0.80545623  1  -0.161728  0  0.009027  -0.038121  0  1.676243  0
Cl  Cl72  1  0.68882011  0.05810807  0.98967140  1  -0.150999  0  0.014235  -0.029464  0  1.707835  0
Cl  Cl73  1  0.32346579  0.94515148  0.01197814  1  -0.153224  0  0.008491  -0.039629  0  1.691384  0
Cl  Cl74  1  0.12081228  0.13063764  0.77039423  1  -0.176203  0  0.005636  -0.060873  0  1.704274  0
Cl  Cl75  1  0.87317413  0.86221367  0.23306236  1  -0.159953  0  0.009459  -0.050385  0  1.724  0
Cl  Cl76  1  0.08256584  0.15976091  0.98655706  1  -0.178578  0  0.017122  -0.036211  0  1.597799  0
Cl  Cl77  1  0.91581656  0.82950981  0.01683863  1  -0.165446  0  0.021236  -0.023024  0  1.606628  0
Cl  Cl78  1  0.46402414  0.65716481  0.27404852  1  -0.137276  0  0.020917  -0.020715  0  1.642293  0
Cl  Cl79  1  0.53263359  0.32502133  0.72785662  1  -0.142081  0  0.015594  -0.025394  0  1.647887  0
Cl  Cl80  1  0.60137199  0.41785029  0.29828611  1  -0.124454  0  0.05126  0.002876  0  1.7633  0
Cl  Cl81  1  0.33363657  0.53342623  0.72395760  1  -0.150351  0  0.018797  -0.032585  0  1.700045  0
Cl  Cl82  1  0.51156431  0.79756876  0.46450302  1  -0.160382  0  0.017113  -0.028514  0  1.6292  0
Cl  Cl83  1  0.50168332  0.18456335  0.53419273  1  -0.172582  0  0.013147  -0.047198  0  1.675832  0
Cl  Cl84  1  0.71716408  0.78186587  0.48825524  1  -0.159378  0  0.022292  -0.010425  0  1.660899  0
Cl  Cl85  1  0.29504171  0.19982267  0.51254186  1  -0.168314  0  0.015981  -0.021084  0  1.630967  0
O  O86  1  0.92880447  0.74072623  0.56335691  1  -1.168097  0  -0.347189  -0.620467  0  2.353769  0
O  O87  1  0.26393937  0.08042217  0.22904175  1  -1.168849  0  -0.34316  -0.602669  0  2.281001  0
O  O88  1  0.07354723  0.26721266  0.42187635  1  -1.163449  0  -0.348095  -0.616702  0  2.341258  0
O  O89  1  0.75086325  0.91588524  0.77449730  1  -1.170795  0  -0.337273  -0.601298  0  2.291495  0
O  O90  1  0.08645525  0.73867395  0.76232777  1  -1.17659  0  -0.35251  -0.618067  0  2.300159  0
O  O91  1  0.74421965  0.05908121  0.42212586  1  -1.1637  0  -0.338081  -0.592235  0  2.290167  0
O  O92  1  0.91435904  0.27007932  0.23880319  1  -1.171964  0  -0.345745  -0.605488  0  2.237402  0
O  O93  1  0.26946952  0.92699357  0.57098687  1  -1.170747  0  -0.345449  -0.594445  0  2.291498  0
O  O94  1  0.26565037  0.73835438  0.42252238  1  -1.161551  0  -0.351035  -0.600977  0  2.371981  0
O  O95  1  0.92886586  0.07074668  0.76417984  1  -1.170015  0  -0.343007  -0.609034  0  2.284297  0
O  O96  1  0.73753966  0.26530015  0.56848998  1  -1.15934  0  -0.341652  -0.59309  0  2.327905  0
O  O97  1  0.06906361  0.92304470  0.23683442  1  -1.169478  0  -0.341057  -0.606519  0  2.275719  0
O  O98  1  0.08478394  0.91939476  0.76205295  1  -1.169988  0  -0.347164  -0.596127  0  2.289146  0
O  O99  1  0.73274943  0.25345806  0.42434573  1  -1.170929  0  -0.361574  -0.627569  0  2.408775  0
O  O100  1  0.91438257  0.07551795  0.23854771  1  -1.171574  0  -0.348619  -0.601143  0  2.288361  0
O  O101  1  0.27803360  0.74544497  0.56542909  1  -1.168346  0  -0.348605  -0.61623  0  2.363627  0
O  O102  1  0.93253478  0.73972619  0.76160838  1  -1.169274  0  -0.362745  -0.618865  0  2.314043  0
O  O103  1  0.27044146  0.07581654  0.41297261  1  -1.172086  0  -0.344951  -0.610724  0  2.317311  0
O  O104  1  0.06953172  0.26639831  0.23932883  1  -1.181155  0  -0.367171  -0.628406  0  2.324622  0
O  O105  1  0.74110373  0.91347411  0.58299687  1  -1.166282  0  -0.350167  -0.611439  0  2.307218  0
O  O106  1  0.74096562  0.07862088  0.76250079  1  -1.171394  0  -0.353514  -0.619161  0  2.336434  0
O  O107  1  0.08593459  0.73587998  0.41855037  1  -1.167795  0  -0.35271  -0.602973  0  2.351299  0
O  O108  1  0.27211154  0.91897629  0.23970897  1  -1.167419  0  -0.350177  -0.619452  0  2.324757  0
O  O109  1  0.91417843  0.27269760  0.56411195  1  -1.183388  0  -0.351606  -0.604603  0  2.339332  0
O  O110  1  0.80197933  0.06203292  0.56786734  1  -1.267751  0  -0.694294  -1.062637  0  2.3619  0
O  O111  1  0.07004898  0.07027579  0.56369678  1  -1.243492  0  -0.689071  -1.059265  0  2.338309  0
O  O112  1  0.06656738  0.06817705  0.29408851  1  -1.235497  0  -0.691047  -1.065853  0  2.345279  0
O  O113  1  0.07390586  0.79917449  0.56455719  1  -1.233922  0  -0.694614  -1.062827  0  2.368546  0
O  O114  1  0.15150483  0.95350695  0.44619335  1  -1.200566  0  -0.792459  -1.147272  0  2.128375  0
O  O115  1  0.95449228  0.94907795  0.44921904  1  -1.196095  0  -0.788403  -1.14453  0  2.118106  0
O  O116  1  0.95129306  0.14739545  0.44796105  1  -1.196927  0  -0.791246  -1.148055  0  2.135522  0
O  O117  1  0.95732024  0.95096757  0.64547557  1  -1.196689  0  -0.789693  -1.144117  0  2.125734  0
