# generated using pymatgen
data_NiH18C18(NO)4
_symmetry_space_group_name_H-M   'P 1'
_cell_length_a   8.88287354
_cell_length_b   8.88288052
_cell_length_c   12.75754376
_cell_angle_alpha   77.69236786
_cell_angle_beta   77.69230665
_cell_angle_gamma   64.03836961
_symmetry_Int_Tables_number   1
_chemical_formula_structural   NiH18C18(NO)4
_chemical_formula_sum   'Ni2 H36 C36 N8 O8'
_cell_volume   875.98847610
_cell_formula_units_Z   2
loop_
 _symmetry_equiv_pos_site_id
 _symmetry_equiv_pos_as_xyz
  1  'x, y, z'
loop_
 _atom_site_type_symbol
 _atom_site_label
 _atom_site_symmetry_multiplicity
 _atom_site_fract_x
 _atom_site_fract_y
 _atom_site_fract_z
 _atom_site_occupancy
 _atom_site_hle17_ddec_charge
 _atom_site_hle17_ddec_spin_density
 _atom_site_hle17_ddec_sum_bond_order
 _atom_site_hle17_magmom
 _atom_site_hse06_10hf_ddec_charge
 _atom_site_hse06_10hf_ddec_spin_density
 _atom_site_hse06_10hf_ddec_sum_bond_order
 _atom_site_hse06_10hf_magmom
 _atom_site_hse06_ddec_charge
 _atom_site_hse06_ddec_spin_density
 _atom_site_hse06_ddec_sum_bond_order
 _atom_site_hse06_magmom
 _atom_site_pbe_cm5_charge
 _atom_site_pbe_ddec_charge
 _atom_site_pbe_ddec_spin_density
 _atom_site_pbe_ddec_sum_bond_order
 _atom_site_pbe_magmom
Ni  Ni0  1  0.99999863  0.00000118  0.50000037  1  0.778891  1.733059  1.911472  1.476  0.778026  1.807407  2.300127  1.611  0.893209  1.868189  2.211787  1.709  0.621937  0.69377  1.753449  2.365445  1.528
Ni  Ni1  1  0.00000010  0.99999887  0.00000016  1  0.778883  1.733061  1.911466  1.476  0.778022  1.807411  2.300131  1.611  0.893218  1.868183  2.21177  1.709  0.621934  0.693766  1.753452  2.365447  1.528
H  H2  1  0.09409315  0.08730847  0.24218305  1  0.110684  1.6e-05  1.00705  0.001  0.116016  1.2e-05  1.075858  0.0  0.12016  -5.4e-05  1.071392  0.0  0.130883  0.112037  0.00013  1.081056  0.0
H  H3  1  0.91268718  0.90590802  0.25781856  1  0.110691  1.6e-05  1.007005  0.001  0.116002  1.2e-05  1.075839  0.0  0.120146  -5.4e-05  1.071372  0.0  0.130852  0.11202  0.00013  1.081043  0.0
H  H4  1  0.90590726  0.91268982  0.75781814  1  0.110681  1.6e-05  1.007039  0.001  0.116034  1.2e-05  1.075817  0.0  0.120179  -5.4e-05  1.07135  0.0  0.130858  0.112048  0.00013  1.081023  0.0
H  H5  1  0.08731049  0.09409404  0.74218169  1  0.110718  1.6e-05  1.007  0.001  0.116037  1.2e-05  1.075824  0.0  0.120183  -5.4e-05  1.071355  0.0  0.130863  0.112052  0.00013  1.081029  0.0
H  H6  1  0.44985419  0.20147322  0.11150458  1  0.078475  0.000408  0.966854  0.0  0.09172  0.000355  1.035292  0.0  0.093465  0.000228  1.034389  0.0  0.106887  0.090823  0.000505  1.034526  0.0
H  H7  1  0.79852419  0.55014698  0.38849826  1  0.078461  0.000409  0.966848  0.0  0.091697  0.000355  1.035289  0.0  0.093442  0.000229  1.034386  0.0  0.106876  0.090801  0.000505  1.03452  0.0
H  H8  1  0.55014569  0.79852634  0.88849807  1  0.078472  0.000409  0.96685  0.0  0.091714  0.000355  1.035274  0.0  0.093458  0.000228  1.034371  0.0  0.106883  0.090817  0.000505  1.034502  0.0
H  H9  1  0.20147349  0.44985509  0.61150355  1  0.078474  0.000408  0.966841  0.0  0.091717  0.000355  1.035275  0.0  0.093461  0.000228  1.034372  0.0  0.10688  0.09082  0.000505  1.03451  0.0
H  H10  1  0.25967531  0.19673335  0.09104049  1  0.076371  -0.000118  0.918261  0.0  0.094255  -9.4e-05  0.978439  0.0  0.094316  -8.3e-05  0.979227  0.0  0.112076  0.09396  -9.6e-05  0.977983  0.0
H  H11  1  0.80326545  0.74032316  0.40896261  1  0.076408  -0.000119  0.91823  0.0  0.094267  -9.4e-05  0.978424  0.0  0.094331  -8.3e-05  0.979213  0.0  0.112083  0.093973  -9.6e-05  0.97797  0.0
H  H12  1  0.74032290  0.80326745  0.90896144  1  0.076416  -0.000119  0.918211  0.0  0.094269  -9.5e-05  0.978416  0.0  0.094331  -8.3e-05  0.979203  0.0  0.112079  0.093973  -9.6e-05  0.977961  0.0
H  H13  1  0.19673329  0.25967639  0.59104021  1  0.076376  -0.000118  0.918246  0.0  0.094257  -9.5e-05  0.978425  0.0  0.094318  -8.3e-05  0.979211  0.0  0.112076  0.093961  -9.6e-05  0.97797  0.0
H  H14  1  0.41963065  0.88653617  0.07455118  1  0.076062  -0.000142  0.948653  0.0  0.094349  -0.000177  1.010361  0.0  0.094853  -0.000162  1.011314  0.0  0.092524  0.093888  -0.000167  1.009567  0.0
H  H15  1  0.11346475  0.58036845  0.42544931  1  0.076058  -0.000141  0.948647  0.0  0.094349  -0.000177  1.01035  0.0  0.094853  -0.000162  1.011303  0.0  0.092522  0.093888  -0.000167  1.009558  0.0
H  H16  1  0.58036985  0.11346464  0.92544883  1  0.076037  -0.000142  0.948656  0.0  0.094317  -0.000177  1.010379  0.0  0.094821  -0.000162  1.011329  0.0  0.09251  0.093857  -0.000167  1.009586  0.0
H  H17  1  0.88653451  0.41962983  0.57455284  1  0.076044  -0.00014  0.948645  0.0  0.094324  -0.000178  1.010365  0.0  0.094827  -0.000162  1.011316  0.0  0.092514  0.093863  -0.000167  1.00957  0.0
H  H18  1  0.60799467  0.89778669  0.09145039  1  0.075122  -5.8e-05  0.930375  0.0  0.092822  -5e-05  0.98975  0.0  0.093352  -4.8e-05  0.991028  0.0  0.09148  0.092456  -5.9e-05  0.98883  0.0
H  H19  1  0.10221319  0.39200560  0.40854924  1  0.075138  -5.7e-05  0.930377  0.0  0.09284  -5e-05  0.989747  0.0  0.09337  -4.8e-05  0.991026  0.0  0.091487  0.092473  -5.9e-05  0.988824  0.0
H  H20  1  0.39200644  0.10221539  0.90854855  1  0.075136  -5.8e-05  0.930375  0.0  0.092842  -5e-05  0.989739  0.0  0.093364  -4.8e-05  0.991027  0.0  0.091487  0.092474  -5.9e-05  0.988817  0.0
H  H21  1  0.89778500  0.60799520  0.59145113  1  0.075142  -5.7e-05  0.9304  0.0  0.09284  -5e-05  0.989768  0.0  0.093369  -4.8e-05  0.991046  0.0  0.091494  0.092474  -5.9e-05  0.988847  0.0
H  H22  1  0.56495118  0.49615531  0.43101597  1  0.092081  0.000179  0.982777  0.0  0.103338  0.000197  1.043052  0.0  0.106717  0.000126  1.040859  0.0  0.103035  0.101071  0.000263  1.044083  0.0
H  H23  1  0.50385003  0.43504140  0.06898154  1  0.092066  0.000179  0.982735  0.0  0.103309  0.000197  1.043028  0.0  0.106687  0.000126  1.040838  0.0  0.103008  0.101046  0.000263  1.04405  0.0
H  H24  1  0.43504198  0.50384924  0.56898224  1  0.092081  0.00018  0.982726  0.0  0.103318  0.000197  1.043022  0.0  0.106696  0.000126  1.040832  0.0  0.103017  0.101055  0.000263  1.044045  0.0
H  H25  1  0.49615591  0.56495183  0.93101644  1  0.09207  0.000178  0.982716  0.0  0.103325  0.000197  1.042997  0.0  0.106705  0.000126  1.040804  0.0  0.103017  0.101058  0.000263  1.044027  0.0
H  H26  1  0.38830459  0.95540714  0.49426794  1  0.10121  -1.8e-05  0.975008  0.0  0.11093  8.7e-05  1.035478  0.0  0.113362  4.7e-05  1.034578  0.0  0.113387  0.108996  0.000162  1.036436  0.001
H  H27  1  0.04459168  0.61169517  0.00573516  1  0.101227  -1.8e-05  0.975006  0.0  0.110935  8.7e-05  1.035487  0.0  0.113366  4.7e-05  1.034588  0.0  0.113398  0.109002  0.000162  1.036443  0.001
H  H28  1  0.61169582  0.04459115  0.50573404  1  0.101216  -1.8e-05  0.975019  0.0  0.110932  8.7e-05  1.035488  0.0  0.113363  4.7e-05  1.03459  0.0  0.11339  0.109  0.000162  1.036446  0.001
H  H29  1  0.95540873  0.38830312  0.99426760  1  0.101226  -1.8e-05  0.974993  0.0  0.110951  8.7e-05  1.035455  0.0  0.113384  4.7e-05  1.034554  0.0  0.113393  0.109016  0.000162  1.036412  0.001
H  H30  1  0.32087243  0.71235740  0.34200005  1  0.100188  -0.000171  0.966801  0.0  0.106041  -0.000101  1.033294  0.0  0.108423  -0.000104  1.032921  0.0  0.103264  0.104079  -0.000144  1.034089  0.0
H  H31  1  0.28764967  0.67913028  0.15799031  1  0.100194  -0.000171  0.966916  0.0  0.106061  -0.000101  1.033373  0.0  0.108452  -0.000104  1.032991  0.0  0.103288  0.104097  -0.000144  1.034168  0.0
H  H32  1  0.67912936  0.28764845  0.65799116  1  0.10016  -0.000173  0.966841  0.0  0.106009  -0.000101  1.033334  0.0  0.1084  -0.000104  1.032951  0.0  0.103258  0.104047  -0.000144  1.034129  0.0
H  H33  1  0.71235829  0.32087181  0.84200053  1  0.100159  -0.00017  0.966816  0.0  0.106014  -0.000101  1.033313  0.0  0.108396  -0.000104  1.032939  0.0  0.103249  0.104051  -0.000144  1.034107  0.0
H  H34  1  0.56959278  0.03111661  0.29849194  1  0.11842  0.000301  0.962669  0.0  0.126121  0.000271  1.028475  0.0  0.129176  0.000191  1.026546  0.0  0.120056  0.122707  0.000509  1.031922  0.0
H  H35  1  0.96888271  0.43040805  0.20151057  1  0.118406  0.0003  0.962666  0.0  0.126101  0.000271  1.028482  0.0  0.129155  0.000191  1.026553  0.0  0.120055  0.122683  0.000509  1.031928  0.0
H  H36  1  0.43040762  0.96888167  0.70150925  1  0.118402  0.000301  0.962656  0.0  0.126101  0.000271  1.028472  0.0  0.129156  0.000191  1.026543  0.0  0.120044  0.122681  0.000509  1.031915  0.0
H  H37  1  0.03111665  0.56959277  0.79849274  1  0.118428  0.0003  0.962677  0.0  0.126129  0.000271  1.028483  0.0  0.129183  0.000191  1.026554  0.0  0.120062  0.122714  0.000509  1.03193  0.0
C  C38  1  0.79824619  0.21500046  0.37165692  1  0.613807  -0.014994  3.887345  -0.013  0.568216  -0.005422  4.192542  -0.006  0.605351  -0.00489  4.189709  -0.005  0.199127  0.541913  -0.005822  4.194082  -0.007
C  C39  1  0.78500082  0.20174896  0.12834458  1  0.613811  -0.014996  3.887307  -0.013  0.56825  -0.005423  4.192507  -0.006  0.605361  -0.00489  4.189666  -0.005  0.199141  0.541943  -0.005822  4.194052  -0.007
C  C40  1  0.20174919  0.78500159  0.62834525  1  0.613865  -0.014997  3.887239  -0.013  0.568291  -0.005423  4.192449  -0.006  0.605408  -0.00489  4.189608  -0.005  0.199152  0.541986  -0.005822  4.193993  -0.007
C  C41  1  0.21499949  0.79824679  0.87165780  1  0.613828  -0.014992  3.887343  -0.013  0.568249  -0.005423  4.192527  -0.006  0.605381  -0.00489  4.189693  -0.005  0.19914  0.541943  -0.005822  4.194069  -0.007
C  C42  1  0.67033907  0.34476991  0.30246138  1  -0.072536  0.004153  3.735072  0.005  -0.056597  0.003008  3.965827  0.003  -0.061286  0.001999  3.985566  0.002  -0.013161  -0.053702  0.003976  3.953468  0.004
C  C43  1  0.65522994  0.32965748  0.19753706  1  -0.072376  0.004159  3.734926  0.005  -0.056572  0.003007  3.965783  0.003  -0.061146  0.001998  3.985428  0.002  -0.013081  -0.053671  0.003976  3.95342  0.004
C  C44  1  0.32965912  0.65523088  0.69753741  1  -0.072428  0.004172  3.734866  0.005  -0.056613  0.003007  3.965726  0.003  -0.061209  0.001998  3.98539  0.002  -0.013114  -0.053716  0.003976  3.953368  0.004
C  C45  1  0.34476868  0.67033951  0.80246225  1  -0.072511  0.004139  3.735007  0.005  -0.05659  0.003007  3.96578  0.003  -0.061262  0.001999  3.985506  0.002  -0.013148  -0.053692  0.003976  3.953419  0.004
C  C46  1  0.19651722  0.06070097  0.28673515  1  0.140212  -0.011372  3.636022  -0.007  0.084878  -0.004087  3.902991  -0.002  0.099953  -0.004569  3.91617  -0.002  0.13375  0.073668  -0.003981  3.896702  -0.002
C  C47  1  0.93929621  0.80348462  0.21326688  1  0.140148  -0.011377  3.636049  -0.007  0.084855  -0.004086  3.90301  -0.002  0.099931  -0.004568  3.91619  -0.002  0.133769  0.073651  -0.003981  3.896723  -0.002
C  C48  1  0.80348318  0.93929731  0.71326605  1  0.140189  -0.011378  3.636039  -0.007  0.084868  -0.004088  3.902984  -0.002  0.099943  -0.004569  3.916163  -0.002  0.133781  0.073668  -0.003981  3.896695  -0.002
C  C49  1  0.06070031  0.19651743  0.78673433  1  0.140179  -0.011381  3.63599  -0.007  0.08487  -0.004088  3.902947  -0.002  0.099944  -0.00457  3.916125  -0.002  0.133767  0.073665  -0.003981  3.896656  -0.002
C  C50  1  0.38125200  0.12131650  0.12201176  1  0.000497  0.000864  3.624034  0.001  -0.063469  0.000626  3.882363  0.001  -0.059294  0.000415  3.892894  0.001  -0.053169  -0.065804  0.000839  3.874393  0.001
C  C51  1  0.87868232  0.61874775  0.37799108  1  0.000541  0.000863  3.623911  0.001  -0.063379  0.000626  3.882204  0.001  -0.059208  0.000414  3.892739  0.001  -0.053126  -0.065713  0.000839  3.874233  0.001
C  C52  1  0.61874788  0.87868305  0.87799011  1  0.000519  0.000865  3.623905  0.001  -0.063401  0.000626  3.882202  0.001  -0.059227  0.000416  3.892732  0.001  -0.053137  -0.065738  0.000839  3.874235  0.001
C  C53  1  0.12131589  0.38125305  0.62201085  1  0.000523  0.000863  3.62396  0.001  -0.063426  0.000626  3.882265  0.001  -0.05925  0.000415  3.892789  0.001  -0.053156  -0.065765  0.000839  3.874299  0.001
C  C54  1  0.48558037  0.97028770  0.06057149  1  -0.119558  -0.000232  3.668852  0.0  -0.159079  -0.000219  3.927665  0.0  -0.160354  -0.000212  3.940873  0.0  -0.163288  -0.158711  -0.000242  3.919059  0.0
C  C55  1  0.02971277  0.51441902  0.43942982  1  -0.119562  -0.000235  3.668837  0.0  -0.159099  -0.000219  3.927661  0.0  -0.16038  -0.000213  3.940874  0.0  -0.163298  -0.158729  -0.000241  3.919054  0.0
C  C56  1  0.51441960  0.02971439  0.93942919  1  -0.11955  -0.000231  3.668827  0.0  -0.159083  -0.00022  3.92765  0.0  -0.160349  -0.000213  3.940852  0.0  -0.163295  -0.158712  -0.000241  3.919041  0.0
C  C57  1  0.97028596  0.48558052  0.56057222  1  -0.119582  -0.000233  3.668884  0.0  -0.159099  -0.000219  3.927687  0.0  -0.160366  -0.000214  3.940883  0.0  -0.163299  -0.158729  -0.000241  3.919083  0.0
C  C58  1  0.54943423  0.48509950  0.35112483  1  -0.07975  0.00019  3.740722  0.0  -0.103022  0.000541  3.98722  0.001  -0.1042  0.000251  4.006911  0.0  -0.085267  -0.101791  0.001014  3.972337  0.001
C  C59  1  0.51490389  0.45056253  0.14887077  1  -0.079763  0.000182  3.740507  0.0  -0.103003  0.00054  3.987063  0.001  -0.104207  0.000252  4.006727  0.0  -0.08526  -0.101772  0.001014  3.972176  0.001
C  C60  1  0.45056174  0.51490379  0.64887157  1  -0.079787  0.000162  3.74054  0.0  -0.10302  0.000542  3.987082  0.001  -0.104218  0.000253  4.006751  0.0  -0.085266  -0.101788  0.001014  3.972199  0.001
C  C61  1  0.48509940  0.54943701  0.85112430  1  -0.079739  0.000211  3.740689  0.0  -0.10301  0.000541  3.987197  0.001  -0.104193  0.000252  4.006883  0.0  -0.085266  -0.101778  0.001014  3.972309  0.001
C  C62  1  0.35443831  0.99308558  0.41311792  1  -0.020139  -0.003338  3.770133  -0.002  -0.048785  -0.000931  4.039375  0.0  -0.04512  -0.001328  4.060199  -0.001  -0.011719  -0.051058  -0.000703  4.024018  0.0
C  C63  1  0.00691462  0.64556243  0.08688483  1  -0.02023  -0.003348  3.770231  -0.002  -0.048853  -0.000931  4.039483  0.0  -0.045188  -0.001328  4.060309  -0.001  -0.011739  -0.051126  -0.000703  4.024119  0.0
C  C64  1  0.64556156  0.00691397  0.58688316  1  -0.02025  -0.003342  3.77019  -0.002  -0.048882  -0.000932  4.039451  0.0  -0.045216  -0.001328  4.060276  -0.001  -0.011762  -0.051156  -0.000703  4.024091  0.0
C  C65  1  0.99308526  0.35443712  0.91311781  1  -0.020193  -0.003348  3.770187  -0.002  -0.048835  -0.000932  4.039436  0.0  -0.04517  -0.001328  4.060262  -0.001  -0.011732  -0.051108  -0.000703  4.024075  0.0
C  C66  1  0.41262926  0.60610521  0.30082163  1  -0.050618  0.000382  3.737276  0.0  -0.068071  0.00031  3.995064  0.0  -0.069307  0.000108  4.015717  0.0  -0.083854  -0.066575  0.000661  3.97969  0.001
C  C67  1  0.39389760  0.58737200  0.19917111  1  -0.050659  0.00039  3.73733  0.0  -0.06812  0.000312  3.995093  0.0  -0.069363  0.000108  4.015742  0.0  -0.083848  -0.066623  0.000661  3.979718  0.001
C  C68  1  0.58737244  0.39389811  0.69917154  1  -0.050602  0.000405  3.737243  0.0  -0.068047  0.000311  3.994999  0.0  -0.069289  0.000108  4.015648  0.0  -0.083814  -0.066552  0.000661  3.979628  0.001
C  C69  1  0.60610746  0.41262881  0.80082194  1  -0.050601  0.000368  3.737309  0.0  -0.068056  0.000311  3.995087  0.0  -0.069291  0.000108  4.015741  0.0  -0.083837  -0.066558  0.000661  3.979711  0.001
C  C70  1  0.44531338  0.02958887  0.31709675  1  -0.073075  0.003067  3.681207  0.004  -0.11087  0.001329  3.933768  0.002  -0.108604  0.001168  3.951128  0.001  -0.002633  -0.111806  0.001505  3.922225  0.002
C  C71  1  0.97040856  0.55468783  0.18290603  1  -0.07298  0.003073  3.681307  0.004  -0.110761  0.001329  3.933855  0.002  -0.108494  0.001167  3.951215  0.001  -0.002621  -0.111691  0.001505  3.922304  0.002
C  C72  1  0.55468755  0.97040815  0.68290455  1  -0.073004  0.003069  3.681224  0.004  -0.110791  0.00133  3.933766  0.002  -0.108525  0.001167  3.951126  0.001  -0.002634  -0.111714  0.001505  3.922213  0.002
C  C73  1  0.02958965  0.44531298  0.81709668  1  -0.073057  0.003074  3.681266  0.004  -0.110847  0.00133  3.933819  0.002  -0.108581  0.001167  3.95118  0.001  -0.002636  -0.111785  0.001505  3.922276  0.002
N  N74  1  0.34280217  0.07287386  0.23822819  1  -0.05124  0.000321  3.572057  0.001  0.045636  0.000152  3.785  0.001  0.031615  2.7e-05  3.810127  0.001  -0.241108  0.054883  0.000261  3.767902  0.001
N  N75  1  0.92712364  0.65720008  0.26177369  1  -0.051355  0.000322  3.572189  0.001  0.045507  0.000152  3.785132  0.001  0.031486  2.7e-05  3.810258  0.001  -0.241153  0.054744  0.000261  3.768053  0.001
N  N76  1  0.65719938  0.92712443  0.76177205  1  -0.051315  0.000321  3.572151  0.001  0.045551  0.000153  3.785087  0.001  0.03153  2.6e-05  3.810214  0.001  -0.241101  0.054786  0.000261  3.768007  0.001
N  N77  1  0.07287404  0.34280199  0.73822813  1  -0.051294  0.000322  3.572113  0.001  0.045575  0.000153  3.785048  0.001  0.031553  2.8e-05  3.810175  0.001  -0.241114  0.054823  0.000261  3.767949  0.001
N  N78  1  0.19902400  0.01351641  0.39319630  1  -0.351835  0.043183  3.357172  0.068  -0.314063  0.027983  3.670015  0.045  -0.347634  0.02227  3.69057  0.038  -0.364154  -0.291103  0.03202  3.656837  0.049
N  N79  1  0.98648094  0.80097684  0.10680583  1  -0.35171  0.043186  3.357167  0.068  -0.313988  0.027983  3.670027  0.045  -0.347561  0.022271  3.690585  0.038  -0.364136  -0.291026  0.03202  3.656845  0.049
N  N80  1  0.80097640  0.98648187  0.60680489  1  -0.351719  0.043187  3.35716  0.068  -0.314001  0.027984  3.670033  0.045  -0.347572  0.022271  3.690593  0.038  -0.364142  -0.29104  0.032021  3.656854  0.049
N  N81  1  0.01351779  0.19902270  0.89319621  1  -0.351773  0.043187  3.357155  0.068  -0.314037  0.027984  3.670022  0.045  -0.34761  0.022271  3.690579  0.038  -0.364154  -0.291074  0.032021  3.656839  0.049
O  O82  1  0.84863702  0.05711518  0.36773814  1  -0.585292  0.05415  1.991899  0.089  -0.555446  0.035694  2.249265  0.061  -0.596143  0.024729  2.242802  0.046  -0.302383  -0.524327  0.045557  2.254608  0.074
O  O83  1  0.94288604  0.15136039  0.13226296  1  -0.585298  0.054149  1.991875  0.089  -0.55548  0.035694  2.249262  0.061  -0.596179  0.024729  2.242805  0.046  -0.302432  -0.524366  0.045556  2.254615  0.074
O  O84  1  0.15136118  0.94288562  0.63226378  1  -0.585348  0.054148  1.991886  0.089  -0.555504  0.035692  2.249266  0.061  -0.596206  0.024726  2.242805  0.046  -0.302433  -0.524379  0.045555  2.254591  0.074
O  O85  1  0.05711436  0.84863788  0.86773667  1  -0.585317  0.054148  1.991926  0.089  -0.555485  0.035693  2.249301  0.061  -0.596186  0.024728  2.242836  0.046  -0.302404  -0.524365  0.045556  2.254637  0.074
O  O86  1  0.84809497  0.26342540  0.43983117  1  -0.568569  0.056701  1.974063  0.093  -0.543917  0.036812  2.233871  0.064  -0.585423  0.0258  2.230043  0.048  -0.296732  -0.512477  0.047088  2.235365  0.077
O  O87  1  0.73657544  0.15190313  0.06016839  1  -0.568606  0.056704  1.974083  0.093  -0.543925  0.036814  2.23385  0.064  -0.585435  0.025802  2.230035  0.048  -0.296712  -0.512484  0.04709  2.235348  0.077
O  O88  1  0.15190093  0.73657539  0.56017033  1  -0.568597  0.056706  1.974081  0.093  -0.543929  0.036814  2.233856  0.064  -0.58543  0.025802  2.23003  0.048  -0.296703  -0.512488  0.047091  2.235357  0.077
O  O89  1  0.26342558  0.84809641  0.93983096  1  -0.568573  0.056698  1.974074  0.093  -0.543922  0.036812  2.233873  0.064  -0.585426  0.025801  2.230042  0.048  -0.296714  -0.512481  0.047088  2.235366  0.077
