# generated using pymatgen
data_ZnH10C16N4O5
_symmetry_space_group_name_H-M   'P 1'
_cell_length_a   6.82554925
_cell_length_b   7.21319416
_cell_length_c   29.63100000
_cell_angle_alpha   90.01506823
_cell_angle_beta   90.00000000
_cell_angle_gamma   90.00000000
_symmetry_Int_Tables_number   1
_chemical_formula_structural   ZnH10C16N4O5
_chemical_formula_sum   'Zn4 H40 C64 N16 O20'
_cell_volume   1458.85295846
_cell_formula_units_Z   4
loop_
 _symmetry_equiv_pos_site_id
 _symmetry_equiv_pos_as_xyz
  1  'x, y, z'
loop_
 _atom_site_type_symbol
 _atom_site_label
 _atom_site_symmetry_multiplicity
 _atom_site_fract_x
 _atom_site_fract_y
 _atom_site_fract_z
 _atom_site_occupancy
 _atom_site_hle17_bader_spin_density
 _atom_site_hle17_ddec_charge
 _atom_site_hle17_ddec_spin_density
 _atom_site_hle17_ddec_sum_bond_order
 _atom_site_hle17_magmom
 _atom_site_hse06_10hf_bader_spin_density
 _atom_site_hse06_10hf_ddec_charge
 _atom_site_hse06_10hf_ddec_spin_density
 _atom_site_hse06_10hf_ddec_sum_bond_order
 _atom_site_hse06_10hf_magmom
 _atom_site_hse06_bader_spin_density
 _atom_site_hse06_ddec_charge
 _atom_site_hse06_ddec_spin_density
 _atom_site_hse06_ddec_sum_bond_order
 _atom_site_hse06_magmom
 _atom_site_pbe_bader_charge
 _atom_site_pbe_bader_spin_density
 _atom_site_pbe_cm5_charge
 _atom_site_pbe_ddec_charge
 _atom_site_pbe_ddec_spin_density
 _atom_site_pbe_ddec_sum_bond_order
 _atom_site_pbe_magmom
Zn  Zn0  1  0.04164060  0.05282126  0.76943506  1  0  1.201038  0  1.728291  0  0  1.032143  0  2.213942  0  0  1.080802  0  2.14727  0  1.339551  0  0.704846  0.997554  0  2.260425  0
Zn  Zn1  1  0.54163993  0.44717916  0.73056422  1  0  1.20103  0  1.728263  0  0  1.032132  0  2.213913  0  0  1.08079  0  2.147237  0  1.339624  0  0.70485  0.997544  0  2.260398  0
Zn  Zn2  1  0.95836097  0.94717820  0.23056417  1  0  1.201053  0  1.728265  0  0  1.032148  0  2.213914  0  0  1.080802  0  2.147239  0  1.339669  0  0.704855  0.99756  0  2.260397  0
Zn  Zn3  1  0.45835872  0.55282168  0.26943669  1  0  1.201014  0  1.728294  0  0  1.0321  0  2.213937  0  0  1.080759  0  2.147266  0  1.339656  0  0.704827  0.997509  0  2.26042  0
H  H4  1  0.70149080  0.86263451  0.77724736  1  0  0.445727  0  0.851181  0  0  0.411716  0  0.918707  0  0  0.423037  0  0.902317  0  0.675684  0  0.297759  0.403684  0  0.930328  0
H  H5  1  0.20149001  0.63736398  0.72275215  1  0  0.445736  0  0.851156  0  0  0.411739  0  0.918659  0  0  0.423063  0  0.902263  0  0.675687  0  0.297772  0.403709  0  0.930276  0
H  H6  1  0.29850785  0.13736633  0.22275220  1  0  0.44573  0  0.851168  0  0  0.411721  0  0.918693  0  0  0.423043  0  0.902301  0  0.6757  0  0.297762  0.403688  0  0.930314  0
H  H7  1  0.79851010  0.36263547  0.27724808  1  0  0.445722  0  0.851169  0  0  0.41173  0  0.918667  0  0  0.423048  0  0.902281  0  0.67569  0  0.297763  0.403698  0  0.930288  0
H  H8  1  0.86243609  0.75243367  0.74455426  1  0  0.436022  0  0.865521  0  0  0.400896  0  0.935136  0  0  0.412559  0  0.918244  0  0.664944  0  0.294421  0.392649  0  0.947069  0
H  H9  1  0.36243530  0.74756621  0.75544491  1  0  0.435934  0  0.8656  0  0  0.400821  0  0.935209  0  0  0.412478  0  0.918325  0  0.66495  0  0.294395  0.392572  0  0.947147  0
H  H10  1  0.13756402  0.24756717  0.25544564  1  0  0.43594  0  0.865607  0  0  0.400817  0  0.935225  0  0  0.412473  0  0.918343  0  0.664937  0  0.29439  0.392568  0  0.947162  0
H  H11  1  0.63756481  0.25243464  0.24455499  1  0  0.435948  0  0.865587  0  0  0.400835  0  0.935197  0  0  0.412494  0  0.91831  0  0.664951  0  0.294407  0.392585  0  0.947136  0
H  H12  1  0.23006647  0.12730006  0.89880468  1  0  0.103242  0  0.980605  0  0  0.10732  0  1.053998  0  0  0.111081  0  1.050816  0  0.128101  0  0.106668  0.104594  0  1.056305  0
H  H13  1  0.73006432  0.37269759  0.60119493  1  0  0.103213  0  0.980628  0  0  0.10729  0  1.054023  0  0  0.111048  0  1.05085  0  0.128068  0  0.106647  0.104563  0  1.056332  0
H  H14  1  0.76993511  0.87270079  0.10119488  1  0  0.103243  0  0.980599  0  0  0.10732  0  1.053998  0  0  0.111081  0  1.050815  0  0.12809  0  0.106657  0.104592  0  1.056307  0
H  H15  1  0.26993432  0.62730464  0.39880531  1  0  0.103218  0  0.980601  0  0  0.107293  0  1.054009  0  0  0.111052  0  1.050833  0  0.128102  0  0.106651  0.104565  0  1.056319  0
H  H16  1  0.76282945  0.17185730  0.97624198  1  0  0.101265  0  0.976955  0  0  0.097504  0  1.064666  0  0  0.101737  0  1.060204  0  0.130837  0  0.102787  0.094496  0  1.067726  0
H  H17  1  0.26282720  0.32814451  0.52375696  1  0  0.101216  0  0.97698  0  0  0.09746  0  1.064711  0  0  0.10169  0  1.060259  0  0.130822  0  0.102766  0.094464  0  1.067741  0
H  H18  1  0.23717066  0.82813939  0.02375792  1  0  0.101149  0  0.977085  0  0  0.09739  0  1.064828  0  0  0.101618  0  1.060378  0  0.130828  0  0.102735  0.094398  0  1.067841  0
H  H19  1  0.73716998  0.67186188  0.47624226  1  0  0.101228  0  0.976996  0  0  0.097497  0  1.064724  0  0  0.101728  0  1.060271  0  0.1308  0  0.102773  0.094502  0  1.067746  0
H  H20  1  0.94599420  0.02739840  0.91333610  1  0  0.095581  0  0.961897  0  0  0.103418  0  1.027246  0  0  0.106601  0  1.025496  0  0.102606  0  0.101646  0.101081  0  1.028683  0
H  H21  1  0.44599048  0.47260063  0.58666351  1  0  0.0956  0  0.961917  0  0  0.103428  0  1.027273  0  0  0.106612  0  1.025523  0  0.102639  0  0.101661  0.101091  0  1.028713  0
H  H22  1  0.05400738  0.97259689  0.08666380  1  0  0.095579  0  0.961903  0  0  0.103434  0  1.027236  0  0  0.106619  0  1.025483  0  0.102629  0  0.101648  0.101096  0  1.028675  0
H  H23  1  0.55400523  0.52740437  0.41333639  1  0  0.095559  0  0.961905  0  0  0.103401  0  1.027258  0  0  0.106585  0  1.025505  0  0.102602  0  0.10164  0.101062  0  1.028698  0
H  H24  1  0.77337219  0.92327062  0.84434854  1  0  0.09774  0  0.970253  0  0  0.110473  0  1.031626  0  0  0.11358  0  1.029464  0  0.099315  0  0.105841  0.108212  0  1.033262  0
H  H25  1  0.27337141  0.57672510  0.65565165  1  0  0.097714  0  0.97024  0  0  0.110458  0  1.031599  0  0  0.113561  0  1.029442  0  0.099464  0  0.105859  0.108197  0  1.033232  0
H  H26  1  0.22662645  0.07672745  0.15565170  1  0  0.097738  0  0.970233  0  0  0.110444  0  1.031638  0  0  0.11355  0  1.029476  0  0.099328  0  0.105856  0.108183  0  1.033273  0
H  H27  1  0.72662577  0.42327574  0.34434892  1  0  0.097727  0  0.970259  0  0  0.110436  0  1.031654  0  0  0.113542  0  1.029493  0  0.099463  0  0.105855  0.108177  0  1.033287  0
H  H28  1  0.77252538  0.34618368  0.06157594  1  0  0.10049  0  0.976316  0  0  0.096528  0  1.063637  0  0  0.100602  0  1.059514  0  0.136798  0  0.102848  0.093647  0  1.066449  0
H  H29  1  0.27252459  0.15381536  0.43842401  1  0  0.100415  0  0.97631  0  0  0.096493  0  1.063584  0  0  0.100567  0  1.059459  0  0.136807  0  0.102808  0.09361  0  1.066399  0
H  H30  1  0.22747620  0.65381717  0.93842396  1  0  0.100504  0  0.976304  0  0  0.096526  0  1.063647  0  0  0.1006  0  1.059527  0  0.136794  0  0.102836  0.093644  0  1.066461  0
H  H31  1  0.72747699  0.84618410  0.56157623  1  0  0.100481  0  0.976294  0  0  0.096551  0  1.063554  0  0  0.100628  0  1.059422  0  0.136806  0  0.102845  0.093668  0  1.066372  0
H  H32  1  0.59825955  0.44752575  0.13065165  1  0  0.094842  0  0.971681  0  0  0.101491  0  1.039377  0  0  0.104656  0  1.037765  0  0.080212  0  0.100713  0.099136  0  1.040788  0
H  H33  1  0.09825729  0.05247190  0.36934830  1  0  0.094874  0  0.971623  0  0  0.101501  0  1.039331  0  0  0.104702  0  1.03768  0  0.080182  0  0.100723  0.099145  0  1.040741  0
H  H34  1  0.40174203  0.55247510  0.86934825  1  0  0.094863  0  0.971618  0  0  0.101475  0  1.039339  0  0  0.104692  0  1.037671  0  0.080195  0  0.100727  0.099119  0  1.040749  0
H  H35  1  0.90174282  0.94752756  0.63065193  1  0  0.094874  0  0.971646  0  0  0.101503  0  1.039349  0  0  0.104704  0  1.037698  0  0.080181  0  0.100728  0.099146  0  1.04076  0
H  H36  1  0.78168361  0.58132362  0.19525608  1  0  0.096501  0  0.961005  0  0  0.104019  0  1.029212  0  0  0.10773  0  1.025897  0  0.097231  0  0.103843  0.101301  0  1.031707  0
H  H37  1  0.28168136  0.91867210  0.30474377  1  0  0.096483  0  0.961079  0  0  0.10401  0  1.029281  0  0  0.107721  0  1.025965  0  0.097177  0  0.10385  0.101292  0  1.031775  0
H  H38  1  0.21831796  0.41867445  0.80474416  1  0  0.096515  0  0.960992  0  0  0.104041  0  1.029189  0  0  0.107752  0  1.025874  0  0.097218  0  0.103862  0.101323  0  1.031684  0
H  H39  1  0.71831875  0.08132736  0.69525613  1  0  0.096484  0  0.961055  0  0  0.104009  0  1.029259  0  0  0.107721  0  1.025943  0  0.097213  0  0.103854  0.101291  0  1.031754  0
H  H40  1  0.32175433  0.49471982  0.12339808  1  0  0.098189  0  0.984216  0  0  0.102462  0  1.058815  0  0  0.106072  0  1.055649  0  0.072379  0  0.106141  0.09986  0  1.061083  0
H  H41  1  0.82175365  0.00527506  0.37660153  1  0  0.098202  0  0.984191  0  0  0.102476  0  1.058783  0  0  0.106081  0  1.055627  0  0.072408  0  0.106148  0.099876  0  1.061048  0
H  H42  1  0.67824578  0.50527548  0.87660216  1  0  0.098173  0  0.984218  0  0  0.102448  0  1.058808  0  0  0.106053  0  1.055655  0  0.072392  0  0.106133  0.099848  0  1.061072  0
H  H43  1  0.17824793  0.99472440  0.62339837  1  0  0.098211  0  0.984184  0  0  0.102469  0  1.058787  0  0  0.106075  0  1.055631  0  0.072422  0  0.106155  0.09987  0  1.061051  0
C  C44  1  0.38044411  0.97256917  0.82434899  1  0  0.682961  0  3.859629  0  0  0.62648  0  4.152232  0  0  0.661986  0  4.144619  0  1.557437  0  0.225953  0.602372  0  4.156594  0
C  C45  1  0.88044197  0.52742794  0.67565052  1  0  0.682832  0  3.85987  0  0  0.626329  0  4.15251  0  0  0.661848  0  4.144883  0  1.557096  0  0.225845  0.602227  0  4.156866  0
C  C46  1  0.61955600  0.02743029  0.17565091  1  0  0.682964  0  3.859684  0  0  0.626497  0  4.152267  0  0  0.662003  0  4.144652  0  1.557425  0  0.225945  0.602389  0  4.156629  0
C  C47  1  0.11955668  0.47257152  0.32434972  1  0  0.683087  0  3.859568  0  0  0.626545  0  4.152271  0  0  0.662035  0  4.144679  0  1.557099  0  0.225985  0.602436  0  4.156632  0
C  C48  1  0.48923242  0.02184885  0.86661508  1  0  -0.076059  0  3.74298  0  0  -0.046865  0  3.972715  0  0  -0.057015  0  3.997423  0  -0.022419  0  -0.017776  -0.040331  0  3.956076  0
C  C49  1  0.98923175  0.47814603  0.63338487  1  0  -0.07602  0  3.742977  0  0  -0.046858  0  3.972756  0  0  -0.056981  0  3.997424  0  -0.022258  0  -0.017776  -0.040324  0  3.956115  0
C  C50  1  0.51076622  0.97815061  0.13338482  1  0  -0.076083  0  3.74298  0  0  -0.046903  0  3.972725  0  0  -0.057043  0  3.997421  0  -0.022493  0  -0.017803  -0.040368  0  3.956086  0
C  C51  1  0.01076543  0.52185482  0.36661571  1  0  -0.076165  0  3.743011  0  0  -0.046944  0  3.97275  0  0  -0.057091  0  3.997463  0  -0.022223  0  -0.017807  -0.04041  0  3.956114  0
C  C52  1  0.38613889  0.10234440  0.90236354  1  0  -0.068102  0  3.677865  0  0  -0.102125  0  3.920804  0  0  -0.101262  0  3.941433  0  -0.018293  0  -0.070112  -0.10236  0  3.906799  0
C  C53  1  0.88613675  0.39765325  0.59763607  1  0  -0.068098  0  3.677877  0  0  -0.102116  0  3.920828  0  0  -0.10126  0  3.941446  0  -0.018096  0  -0.07008  -0.102352  0  3.906823  0
C  C54  1  0.61386122  0.89765506  0.09763636  1  0  -0.068112  0  3.677867  0  0  -0.102149  0  3.920823  0  0  -0.101287  0  3.941451  0  -0.018184  0  -0.070082  -0.102385  0  3.906819  0
C  C55  1  0.11386043  0.60234898  0.40236451  1  0  -0.067972  0  3.677844  0  0  -0.102004  0  3.920778  0  0  -0.101141  0  3.941405  0  -0.018082  0  -0.070031  -0.10224  0  3.906773  0
C  C56  1  0.48211505  0.15264112  0.94231344  1  0  -0.015139  0  3.780135  0  0  0.003201  0  4.014633  0  0  -0.001818  0  4.040208  0  -0.054416  0  -0.007897  0.006504  0  3.997294  0
C  C57  1  0.98211437  0.34735653  0.55768583  1  0  -0.015209  0  3.780143  0  0  0.003142  0  4.014608  0  0  -0.001877  0  4.040184  0  -0.05444  0  -0.007964  0.006446  0  3.997271  0
C  C58  1  0.51788506  0.84735695  0.05768612  1  0  -0.015202  0  3.780188  0  0  0.003152  0  4.01465  0  0  -0.001871  0  4.040231  0  -0.054427  0  -0.007992  0.006454  0  3.997313  0
C  C59  1  0.01788428  0.65264570  0.44231440  1  0  -0.015274  0  3.780198  0  0  0.003083  0  4.014672  0  0  -0.001942  0  4.040259  0  -0.054452  0  -0.007995  0.006387  0  3.997336  0
C  C60  1  0.68593747  0.12780885  0.94584160  1  0  -0.061359  0  3.676897  0  0  -0.092054  0  3.936429  0  0  -0.092508  0  3.957983  0  -0.02455  0  -0.077971  -0.091274  0  3.921473  0
C  C61  1  0.18593522  0.37218880  0.55415801  1  0  -0.061297  0  3.676871  0  0  -0.091992  0  3.936352  0  0  -0.092449  0  3.957907  0  -0.024544  0  -0.077953  -0.091202  0  3.92138  0
C  C62  1  0.31406264  0.87218645  0.05415864  1  0  -0.061248  0  3.677017  0  0  -0.091947  0  3.936477  0  0  -0.092401  0  3.958029  0  -0.024562  0  -0.07786  -0.091156  0  3.921513  0
C  C63  1  0.81406196  0.62781481  0.44584222  1  0  -0.061364  0  3.677038  0  0  -0.092117  0  3.936532  0  0  -0.092572  0  3.958084  0  -0.024524  0  -0.077966  -0.091318  0  3.921548  0
C  C64  1  0.78852555  0.04732716  0.91024501  1  0  -0.070252  0  3.751105  0  0  -0.081776  0  4.008193  0  0  -0.087147  0  4.032338  0  -0.007667  0  -0.090157  -0.078202  0  3.991706  0
C  C65  1  0.28852477  0.45267187  0.58975494  1  0  -0.070288  0  3.751148  0  0  -0.081818  0  4.008243  0  0  -0.087189  0  4.032388  0  -0.007661  0  -0.09015  -0.078246  0  3.991763  0
C  C66  1  0.21147456  0.95266952  0.08975523  1  0  -0.07025  0  3.751149  0  0  -0.081802  0  4.00823  0  0  -0.087173  0  4.032376  0  -0.007664  0  -0.090164  -0.078227  0  3.991747  0
C  C67  1  0.71147388  0.54733452  0.41024529  1  0  -0.070151  0  3.751178  0  0  -0.081681  0  4.008254  0  0  -0.087052  0  4.032399  0  -0.007581  0  -0.090067  -0.078106  0  3.991773  0
C  C68  1  0.69136707  0.99143737  0.87109786  1  0  -0.045276  0  3.68626  0  0  -0.075235  0  3.93324  0  0  -0.073916  0  3.954029  0  -0.061461  0  -0.076157  -0.075791  0  3.919041  0
C  C69  1  0.19136628  0.50855974  0.62890199  1  0  -0.045227  0  3.686227  0  0  -0.075177  0  3.933199  0  0  -0.073863  0  3.953983  0  -0.061558  0  -0.076173  -0.075731  0  3.918999  0
C  C70  1  0.30863157  0.00856070  0.12890204  1  0  -0.045208  0  3.6862  0  0  -0.075145  0  3.933189  0  0  -0.073828  0  3.953974  0  -0.061467  0  -0.076149  -0.075702  0  3.918991  0
C  C71  1  0.80862943  0.49144111  0.37109758  1  0  -0.045257  0  3.686276  0  0  -0.075197  0  3.933254  0  0  -0.073875  0  3.95404  0  -0.061689  0  -0.076205  -0.075755  0  3.919057  0
C  C72  1  0.36928603  0.23066620  0.97994795  1  0  0.263175  0  3.73945  0  0  0.249115  0  4.003876  0  0  0.256018  0  4.020818  0  1.028428  0  0.244552  0.244106  0  3.992811  0
C  C73  1  0.86928535  0.26933423  0.52005167  1  0  0.26329  0  3.739277  0  0  0.249224  0  4.003695  0  0  0.256125  0  4.020636  0  1.027887  0  0.244585  0.244214  0  3.992633  0
C  C74  1  0.63071408  0.76933465  0.02005195  1  0  0.263232  0  3.739329  0  0  0.249177  0  4.003728  0  0  0.256075  0  4.020672  0  1.027636  0  0.244571  0.244168  0  3.992663  0
C  C75  1  0.13071329  0.73066523  0.47994891  1  0  0.263215  0  3.739475  0  0  0.24916  0  4.003874  0  0  0.25606  0  4.020819  0  1.027646  0  0.244525  0.24415  0  3.992812  0
C  C76  1  0.16973726  0.35639413  0.04780419  1  0  0.26335  0  3.75045  0  0  0.249912  0  4.014417  0  0  0.257365  0  4.031111  0  0.951666  0  0.247089  0.244527  0  4.003564  0
C  C77  1  0.66973511  0.14360213  0.45219575  1  0  0.263407  0  3.750379  0  0  0.250016  0  4.014326  0  0  0.257469  0  4.03102  0  0.951674  0  0.247144  0.244631  0  4.003474  0
C  C78  1  0.83026432  0.64360394  0.95219604  1  0  0.263391  0  3.750339  0  0  0.249984  0  4.014317  0  0  0.257433  0  4.03101  0  0.951635  0  0.247131  0.2446  0  4.003459  0
C  C79  1  0.33026500  0.85639733  0.54780448  1  0  0.263467  0  3.750338  0  0  0.25008  0  4.014281  0  0  0.257534  0  4.030973  0  0.951619  0  0.24718  0.244696  0  4.003425  0
C  C80  1  0.05974904  0.41804228  0.08758945  1  0  -0.01701  0  3.782846  0  0  0.00331  0  4.011372  0  0  -0.002061  0  4.037326  0  -0.036754  0  -0.005914  0.006898  0  3.99371  0
C  C81  1  0.55974836  0.08195537  0.41241016  1  0  -0.016969  0  3.782749  0  0  0.003255  0  4.011409  0  0  -0.002115  0  4.037362  0  -0.036785  0  -0.005896  0.006845  0  3.993746  0
C  C82  1  0.94025254  0.58195302  0.91241078  1  0  -0.01696  0  3.782748  0  0  0.003266  0  4.011403  0  0  -0.002105  0  4.037356  0  -0.036724  0  -0.005923  0.006854  0  3.993738  0
C  C83  1  0.44025321  0.91804686  0.58758974  1  0  -0.016988  0  3.78274  0  0  0.003231  0  4.011397  0  0  -0.002139  0  4.037351  0  -0.036734  0  -0.005906  0.00682  0  3.993735  0
C  C84  1  0.85443820  0.40341491  0.08990838  1  0  -0.052928  0  3.66438  0  0  -0.081285  0  3.91864  0  0  -0.081168  0  3.939177  0  -0.113979  0  -0.072312  -0.080981  0  3.904483  0
C  C85  1  0.35443595  0.09658135  0.41009123  1  0  -0.052867  0  3.664285  0  0  -0.081229  0  3.918564  0  0  -0.081113  0  3.939111  0  -0.113988  0  -0.072305  -0.080928  0  3.904407  0
C  C86  1  0.14556338  0.59658316  0.91009152  1  0  -0.05297  0  3.6643  0  0  -0.081286  0  3.918574  0  0  -0.081173  0  3.939127  0  -0.113995  0  -0.072323  -0.080983  0  3.904418  0
C  C87  1  0.64556270  0.90341811  0.58990867  1  0  -0.052974  0  3.664348  0  0  -0.081324  0  3.918634  0  0  -0.081207  0  3.939182  0  -0.113991  0  -0.072341  -0.081022  0  3.904477  0
C  C88  1  0.75667171  0.46184950  0.12866748  1  0  -0.060346  0  3.726838  0  0  -0.071468  0  3.980571  0  0  -0.076593  0  4.003637  0  0.055064  0  -0.084993  -0.068079  0  3.964908  0
C  C89  1  0.25666945  0.03814815  0.37133247  1  0  -0.060456  0  3.726715  0  0  -0.071546  0  3.98045  0  0  -0.076701  0  4.003501  0  0.055088  0  -0.085043  -0.068161  0  3.964799  0
C  C90  1  0.24332987  0.53814996  0.87133242  1  0  -0.060402  0  3.726762  0  0  -0.071476  0  3.980482  0  0  -0.076644  0  4.003529  0  0.055078  0  -0.08504  -0.068091  0  3.964827  0
C  C91  1  0.74333066  0.96185131  0.62866777  1  0  -0.060406  0  3.726704  0  0  -0.071492  0  3.980429  0  0  -0.076648  0  4.003483  0  0.055085  0  -0.08503  -0.068108  0  3.964778  0
C  C92  1  0.85952936  0.53649882  0.16510201  1  0  -0.034986  0  3.678315  0  0  -0.061207  0  3.922214  0  0  -0.058903  0  3.941163  0  -0.044438  0  -0.071731  -0.062459  0  3.909308  0
C  C93  1  0.35952711  0.96349829  0.33489716  1  0  -0.034948  0  3.678331  0  0  -0.06118  0  3.922236  0  0  -0.058878  0  3.941196  0  -0.044452  0  -0.071696  -0.062433  0  3.909328  0
C  C94  1  0.14047221  0.46349787  0.83489822  1  0  -0.034997  0  3.678317  0  0  -0.061227  0  3.922215  0  0  -0.058927  0  3.94118  0  -0.044454  0  -0.071708  -0.062481  0  3.909307  0
C  C95  1  0.64047300  0.03650394  0.66510206  1  0  -0.034979  0  3.678305  0  0  -0.061214  0  3.922206  0  0  -0.058914  0  3.941165  0  -0.044487  0  -0.071712  -0.062467  0  3.909297  0
C  C96  1  0.06442851  0.54682711  0.16326608  1  0  -0.081335  0  3.77772  0  0  -0.052734  0  4.006553  0  0  -0.063085  0  4.030827  0  -0.079626  0  -0.017984  -0.046006  0  3.990161  0
C  C97  1  0.56442491  0.95317138  0.33673309  1  0  -0.081345  0  3.777764  0  0  -0.052745  0  4.006613  0  0  -0.063095  0  4.030885  0  -0.079613  0  -0.018003  -0.046016  0  3.990222  0
C  C98  1  0.93557306  0.45316957  0.83673381  1  0  -0.081322  0  3.777731  0  0  -0.0527  0  4.006562  0  0  -0.06305  0  4.030836  0  -0.0796  0  -0.017973  -0.045971  0  3.99017  0
C  C99  1  0.43557520  0.04683085  0.66326647  1  0  -0.081319  0  3.777808  0  0  -0.052693  0  4.00663  0  0  -0.063042  0  4.030904  0  -0.079632  0  -0.018001  -0.045965  0  3.990239  0
C  C100  1  0.16308724  0.48725018  0.12471244  1  0  -0.066207  0  3.690792  0  0  -0.102002  0  3.935824  0  0  -0.100883  0  3.956342  0  0.087736  0  -0.069985  -0.102435  0  3.921837  0
C  C101  1  0.66308363  0.01274609  0.37528751  1  0  -0.066178  0  3.690778  0  0  -0.101937  0  3.935834  0  0  -0.100814  0  3.956347  0  0.087765  0  -0.069951  -0.102372  0  3.921847  0
C  C102  1  0.83691433  0.51274512  0.87528780  1  0  -0.066193  0  3.690753  0  0  -0.101962  0  3.935822  0  0  -0.100837  0  3.956331  0  0.087751  0  -0.069961  -0.102394  0  3.921833  0
C  C103  1  0.33691648  0.98725614  0.62471273  1  0  -0.066156  0  3.690718  0  0  -0.101903  0  3.935775  0  0  -0.100779  0  3.956284  0  0.087752  0  -0.069945  -0.102336  0  3.921786  0
C  C104  1  0.18224028  0.60498859  0.20298261  1  0  0.684424  0  3.862449  0  0  0.630913  0  4.149575  0  0  0.667172  0  4.141223  0  1.572739  0  0.226473  0.606191  0  4.154504  0
C  C105  1  0.68223960  0.89501129  0.29701724  1  0  0.684462  0  3.862348  0  0  0.630926  0  4.149507  0  0  0.667183  0  4.141155  0  1.572739  0  0.226462  0.606203  0  4.154436  0
C  C106  1  0.81775983  0.39500948  0.79701763  1  0  0.684551  0  3.862505  0  0  0.631005  0  4.149669  0  0  0.667263  0  4.141315  0  1.572701  0  0.226516  0.606282  0  4.154599  0
C  C107  1  0.31776197  0.10499094  0.70298232  1  0  0.684402  0  3.86247  0  0  0.630838  0  4.149662  0  0  0.667096  0  4.141311  0  1.57296  0  0.226452  0.606116  0  4.154591  0
N  N108  1  0.17141624  0.23010057  0.97697231  1  0  -0.159226  0  2.950397  0  0  -0.134541  0  3.223927  0  0  -0.137395  0  3.235084  0  -0.627476  0  -0.145507  -0.13257  0  3.216617  0
N  N109  1  0.67141556  0.26989986  0.52302697  1  0  -0.159227  0  2.950341  0  0  -0.134522  0  3.22386  0  0  -0.137372  0  3.235017  0  -0.627409  0  -0.14547  -0.132554  0  3.216553  0
N  N110  1  0.82858387  0.76990166  0.02302759  1  0  -0.159228  0  2.950329  0  0  -0.134529  0  3.22384  0  0  -0.13738  0  3.234996  0  -0.627479  0  -0.145485  -0.132559  0  3.21653  0
N  N111  1  0.32858455  0.73010099  0.47697293  1  0  -0.159197  0  2.950301  0  0  -0.134497  0  3.223816  0  0  -0.137347  0  3.234972  0  -0.627417  0  -0.145451  -0.132529  0  3.216511  0
N  N112  1  0.06994309  0.29464479  0.01132493  1  0  -0.16016  0  2.957013  0  0  -0.139509  0  3.236777  0  0  -0.14284  0  3.246716  0  -0.561122  0  -0.146569  -0.13717  0  3.230375  0
N  N113  1  0.56994241  0.20535563  0.48867435  1  0  -0.160188  0  2.957052  0  0  -0.139566  0  3.236833  0  0  -0.142899  0  3.246771  0  -0.561048  0  -0.146612  -0.13723  0  3.230432  0
N  N114  1  0.93005849  0.70535605  0.98867497  1  0  -0.16019  0  2.957009  0  0  -0.139544  0  3.236778  0  0  -0.142873  0  3.246714  0  -0.561048  0  -0.146602  -0.137208  0  3.230375  0
N  N115  1  0.43005770  0.79464521  0.51132589  1  0  -0.160203  0  2.957055  0  0  -0.139575  0  3.236834  0  0  -0.142906  0  3.246772  0  -0.561157  0  -0.146614  -0.137239  0  3.230433  0
N  N116  1  0.36797771  0.36610689  0.04970722  1  0  -0.160249  0  2.97159  0  0  -0.13835  0  3.250534  0  0  -0.141371  0  3.262069  0  -0.535993  0  -0.144694  -0.136254  0  3.242983  0
N  N117  1  0.86797704  0.13389353  0.45029206  1  0  -0.160328  0  2.971444  0  0  -0.138428  0  3.250385  0  0  -0.141447  0  3.261921  0  -0.535996  0  -0.144728  -0.136332  0  3.242836  0
N  N118  1  0.63202240  0.63389257  0.95029268  1  0  -0.160304  0  2.971543  0  0  -0.138407  0  3.250488  0  0  -0.141427  0  3.262024  0  -0.535988  0  -0.144719  -0.13631  0  3.242934  0
N  N119  1  0.13202307  0.86611009  0.54970784  1  0  -0.160382  0  2.971564  0  0  -0.138501  0  3.250528  0  0  -0.141523  0  3.262065  0  -0.536028  0  -0.144798  -0.136405  0  3.242978  0
N  N120  1  0.46902453  0.30280761  0.01537054  1  0  -0.160579  0  2.979273  0  0  -0.140199  0  3.262057  0  0  -0.143018  0  3.272694  0  -0.571007  0  -0.147187  -0.138255  0  3.255134  0
N  N121  1  0.96902385  0.19719420  0.48462907  1  0  -0.160635  0  2.979129  0  0  -0.140264  0  3.261935  0  0  -0.143084  0  3.272571  0  -0.570492  0  -0.147246  -0.138324  0  3.255015  0
N  N122  1  0.53097558  0.69719324  0.98462902  1  0  -0.160587  0  2.979249  0  0  -0.140205  0  3.26204  0  0  -0.143022  0  3.272675  0  -0.570205  0  -0.147197  -0.138265  0  3.255116  0
N  N123  1  0.03097626  0.80280942  0.51537116  1  0  -0.160578  0  2.979332  0  0  -0.140196  0  3.262122  0  0  -0.143014  0  3.272758  0  -0.570217  0  -0.147167  -0.138256  0  3.255199  0
O  O124  1  0.84147953  0.85242683  0.76755010  1  0  -0.873307  0  1.934061  0  0  -0.803772  0  2.17151  0  0  -0.827016  0  2.131119  0  -1.309051  0  -0.582501  -0.787372  0  2.199733  0
O  O125  1  0.34147875  0.64757444  0.73244840  1  0  -0.873229  0  1.934122  0  0  -0.803699  0  2.171488  0  0  -0.82694  0  2.131102  0  -1.309073  0  -0.582487  -0.787298  0  2.199711  0
O  O126  1  0.15851911  0.14757540  0.23244912  1  0  -0.873241  0  1.934109  0  0  -0.803678  0  2.171484  0  0  -0.826921  0  2.131102  0  -1.309111  0  -0.582474  -0.787278  0  2.199711  0
O  O127  1  0.65851990  0.35242502  0.26755184  1  0  -0.873248  0  1.934125  0  0  -0.803706  0  2.171464  0  0  -0.82695  0  2.131085  0  -1.309114  0  -0.582495  -0.787306  0  2.199691  0
O  O128  1  0.46655733  0.88891829  0.79239095  1  0  -0.634569  0  2.043245  0  0  -0.563329  0  2.260269  0  0  -0.59007  0  2.250081  0  -1.193833  0  -0.296162  -0.544742  0  2.266852  0
O  O129  1  0.96655665  0.61107882  0.70760890  1  0  -0.634551  0  2.043233  0  0  -0.563284  0  2.260252  0  0  -0.590054  0  2.25007  0  -1.193786  0  -0.296128  -0.544714  0  2.266839  0
O  O130  1  0.53344278  0.11108255  0.20760895  1  0  -0.634562  0  2.043247  0  0  -0.563326  0  2.260259  0  0  -0.590074  0  2.250075  0  -1.193804  0  -0.29615  -0.544741  0  2.266843  0
O  O131  1  0.03344493  0.38892064  0.29239201  1  0  -0.634664  0  2.043152  0  0  -0.563441  0  2.260223  0  0  -0.590162  0  2.250035  0  -1.19377  0  -0.296237  -0.544854  0  2.266805  0
O  O132  1  0.19898472  0.02099209  0.82346562  1  0  -0.66575  0  2.080921  0  0  -0.590928  0  2.366481  0  0  -0.62132  0  2.35016  0  -1.172316  0  -0.319978  -0.569598  0  2.377052  0
O  O133  1  0.69898404  0.47900418  0.67653399  1  0  -0.665638  0  2.081047  0  0  -0.590811  0  2.366619  0  0  -0.621205  0  2.350294  0  -1.172363  0  -0.319886  -0.56948  0  2.377185  0
O  O134  1  0.80101539  0.97900737  0.17653394  1  0  -0.665762  0  2.080986  0  0  -0.590935  0  2.366527  0  0  -0.621325  0  2.350202  0  -1.172341  0  -0.319967  -0.569606  0  2.377099  0
O  O135  1  0.30101607  0.52099806  0.32346692  1  0  -0.665697  0  2.080917  0  0  -0.590825  0  2.366474  0  0  -0.621214  0  2.350165  0  -1.172387  0  -0.319896  -0.569494  0  2.377043  0
O  O136  1  0.12195649  0.72456668  0.23151613  1  0  -0.674741  0  2.112706  0  0  -0.604511  0  2.406803  0  0  -0.633061  0  2.386298  0  -1.191796  0  -0.319239  -0.58453  0  2.420435  0
O  O137  1  0.62195874  0.77543181  0.26848338  1  0  -0.674752  0  2.112602  0  0  -0.6045  0  2.406692  0  0  -0.633051  0  2.386189  0  -1.191803  0  -0.319222  -0.58452  0  2.420325  0
O  O138  1  0.87804216  0.27543277  0.76848377  1  0  -0.674773  0  2.112682  0  0  -0.604534  0  2.406808  0  0  -0.633085  0  2.386303  0  -1.191769  0  -0.319222  -0.584552  0  2.420439  0
O  O139  1  0.37804137  0.22456626  0.73151652  1  0  -0.674724  0  2.112652  0  0  -0.604468  0  2.406756  0  0  -0.633018  0  2.386252  0  -1.192047  0  -0.319213  -0.584488  0  2.420389  0
O  O140  1  0.34621976  0.52230261  0.20856167  1  0  -0.626962  0  2.04037  0  0  -0.549025  0  2.30266  0  0  -0.578556  0  2.287858  0  -1.154629  0  -0.306759  -0.528418  0  2.312274  0
O  O141  1  0.84621908  0.97769588  0.29143852  1  0  -0.626945  0  2.040354  0  0  -0.548994  0  2.302638  0  0  -0.578524  0  2.287836  0  -1.15463  0  -0.306736  -0.528388  0  2.312252  0
O  O142  1  0.65378182  0.47769685  0.79143890  1  0  -0.627026  0  2.040436  0  0  -0.549081  0  2.302732  0  0  -0.57861  0  2.287927  0  -1.15463  0  -0.306814  -0.528475  0  2.312347  0
O  O143  1  0.15378103  0.02230357  0.70856071  1  0  -0.626968  0  2.040331  0  0  -0.549014  0  2.302632  0  0  -0.578546  0  2.287831  0  -1.154552  0  -0.306778  -0.528408  0  2.312246  0
