# generated using pymatgen
data_CoH52C40(NO2)2
_symmetry_space_group_name_H-M   'P 1'
_cell_length_a   8.29567243
_cell_length_b   11.22204237
_cell_length_c   11.75310267
_cell_angle_alpha   104.01136064
_cell_angle_beta   95.32895780
_cell_angle_gamma   97.39155513
_symmetry_Int_Tables_number   1
_chemical_formula_structural   CoH52C40(NO2)2
_chemical_formula_sum   'Co1 H52 C40 N2 O4'
_cell_volume   1043.99072309
_cell_formula_units_Z   1
loop_
 _symmetry_equiv_pos_site_id
 _symmetry_equiv_pos_as_xyz
  1  'x, y, z'
loop_
 _atom_site_type_symbol
 _atom_site_label
 _atom_site_symmetry_multiplicity
 _atom_site_fract_x
 _atom_site_fract_y
 _atom_site_fract_z
 _atom_site_occupancy
 _atom_site_hle17_ddec_charge
 _atom_site_hle17_ddec_spin_density
 _atom_site_hle17_ddec_sum_bond_order
 _atom_site_hle17_magmom
 _atom_site_hse06_10hf_ddec_charge
 _atom_site_hse06_10hf_ddec_spin_density
 _atom_site_hse06_10hf_ddec_sum_bond_order
 _atom_site_hse06_10hf_magmom
 _atom_site_hse06_ddec_charge
 _atom_site_hse06_ddec_spin_density
 _atom_site_hse06_ddec_sum_bond_order
 _atom_site_hse06_magmom
 _atom_site_pbe_cm5_charge
 _atom_site_pbe_ddec_charge
 _atom_site_pbe_ddec_spin_density
 _atom_site_pbe_ddec_sum_bond_order
 _atom_site_pbe_magmom
Co  Co0  1  0.50000115  0.50000017  0.99999916  1  0.770314  0.239855  2.921369  0.117  0.835883  0.196822  3.310911  0.092  0.903409  0.091589  3.269666  0.035  0.795602  0.798686  0.266961  3.339657  0.135
H  H1  1  0.51847060  0.22221709  0.49449080  1  0.079937  -0.001876  0.997915  -0.002  0.0928  -0.000262  1.06192  0.0  0.095391  -0.000407  1.060084  -0.001  0.092581  0.091067  -0.000184  1.06314  0.0
H  H2  1  0.48152611  0.77777942  0.50550824  1  0.079959  -0.001876  0.997876  -0.002  0.092814  -0.000262  1.061882  0.0  0.095398  -0.000406  1.060055  -0.001  0.092579  0.091085  -0.000181  1.063102  0.0
H  H3  1  0.18942225  0.46084360  0.65574495  1  0.109003  -0.000553  0.964629  0.0  0.121468  -0.000864  1.024517  0.0  0.125304  -0.000986  1.022399  0.0  0.099797  0.118898  -0.000778  1.025949  0.0
H  H4  1  0.81057648  0.53915663  0.34425342  1  0.108958  -0.000556  0.964651  0.0  0.121418  -0.000863  1.024553  0.0  0.12525  -0.000986  1.022441  0.0  0.099778  0.11885  -0.000775  1.025972  0.0
H  H5  1  0.84570477  0.55647910  0.00551446  1  0.098741  0.000318  0.934015  0.0  0.106432  0.00045  0.995199  0.0  0.109701  0.000291  0.990966  0.0  0.130729  0.103953  0.000561  0.998349  0.0
H  H6  1  0.15430072  0.44351836  0.99447778  1  0.098772  0.000318  0.934019  0.0  0.106474  0.00045  0.995183  0.0  0.109742  0.000291  0.990951  0.0  0.130731  0.103995  0.000561  0.998333  0.0
H  H7  1  0.63371199  0.92354590  0.93203099  1  0.10642  -5e-05  0.938539  0.0  0.122117  -4.1e-05  0.987826  0.0  0.124612  -3.9e-05  0.988456  0.0  0.110437  0.120144  -5.2e-05  0.987923  0.0
H  H8  1  0.36629120  0.07645891  0.06797899  1  0.106421  -5.8e-05  0.938579  0.0  0.1221  -4.1e-05  0.987881  0.0  0.124612  -3.9e-05  0.9885  0.0  0.11043  0.12013  -5.2e-05  0.987976  0.0
H  H9  1  0.04497312  0.73178348  0.97791315  1  0.11662  -7.8e-05  0.932097  0.0  0.130873  -8.9e-05  0.983112  0.0  0.13398  -9e-05  0.982721  0.0  0.114916  0.128551  -0.000101  0.983735  0.0
H  H10  1  0.95503433  0.26821768  0.02208266  1  0.11671  -8.4e-05  0.932073  0.0  0.130963  -8.9e-05  0.983079  0.0  0.134066  -9e-05  0.982688  0.0  0.114959  0.128642  -0.0001  0.983702  0.0
H  H11  1  0.45182112  0.73675510  0.95805264  1  0.097169  0.000253  0.926122  0.0  0.104206  0.000379  0.987494  0.0  0.107642  0.000208  0.983044  0.0  0.12844  0.101485  0.000498  0.991066  0.0
H  H12  1  0.54818418  0.26324787  0.04195195  1  0.09721  0.00025  0.926119  0.0  0.104192  0.000379  0.987552  0.0  0.107625  0.000208  0.983107  0.0  0.12844  0.101471  0.000499  0.991123  0.0
H  H13  1  0.70128199  0.20261220  0.86298686  1  0.10152  -2.2e-05  0.980785  0.0  0.117097  4.8e-05  1.050987  0.0  0.120095  -3.3e-05  1.049296  0.0  0.081828  0.115032  8.8e-05  1.052062  0.0
H  H14  1  0.29871787  0.79739359  0.13701630  1  0.101515  -2.2e-05  0.980718  0.0  0.117057  4.7e-05  1.050966  0.0  0.120055  -3.3e-05  1.049275  0.0  0.081794  0.114984  9.1e-05  1.052043  0.0
H  H15  1  0.61722163  0.07476526  0.74018954  1  0.091801  -4.9e-05  0.951167  0.0  0.11239  -5.6e-05  1.013202  0.0  0.113419  -7.5e-05  1.01351  0.0  0.080703  0.111556  -4.7e-05  1.01317  0.0
H  H16  1  0.38277883  0.92523773  0.25981470  1  0.091805  -5e-05  0.951235  0.0  0.112424  -5.6e-05  1.01323  0.0  0.113452  -7.5e-05  1.013537  0.0  0.080701  0.111573  -4.7e-05  1.013208  0.0
H  H17  1  0.83348797  0.11057393  0.78133937  1  0.085322  -6.4e-05  0.977341  0.0  0.107399  -4.1e-05  1.039882  0.0  0.108271  -5.5e-05  1.040641  0.0  0.079336  0.106685  -3.5e-05  1.039467  0.0
H  H18  1  0.16651391  0.88942999  0.21866435  1  0.08533  -6.1e-05  0.977376  0.0  0.107406  -4.1e-05  1.039925  0.0  0.108261  -5.5e-05  1.040701  0.0  0.079337  0.106693  -3.7e-05  1.039505  0.0
H  H19  1  0.89044704  0.40712142  0.68316676  1  0.095188  -5.4e-05  0.966829  0.0  0.116385  -6.2e-05  1.031767  0.0  0.116967  -8.2e-05  1.032759  0.0  0.083812  0.115768  -4.8e-05  1.031402  0.0
H  H20  1  0.10955190  0.59287976  0.31683099  1  0.095208  -6.2e-05  0.966833  0.0  0.116413  -6.2e-05  1.03177  0.0  0.116993  -8.2e-05  1.032763  0.0  0.083821  0.115788  -4.7e-05  1.031411  0.0
H  H21  1  0.87014180  0.39531692  0.82913142  1  0.102377  4.3e-05  0.975205  0.0  0.119202  0.000108  1.042397  0.0  0.121916  6e-06  1.041122  0.0  0.082267  0.117307  0.000188  1.04321  0.0
H  H22  1  0.12985854  0.60468518  0.17086750  1  0.102382  4.2e-05  0.97522  0.0  0.119206  0.000108  1.042404  0.0  0.121919  6e-06  1.04113  0.0  0.082262  0.117304  0.000191  1.043216  0.0
H  H23  1  0.99792245  0.30392392  0.74245895  1  0.09603  -0.000173  0.95775  0.0  0.116063  -9.3e-05  1.021008  0.0  0.117027  -0.000166  1.022011  0.0  0.081366  0.115371  -4.7e-05  1.020286  0.0
H  H24  1  0.00207667  0.69607817  0.25754073  1  0.096079  -0.000174  0.957823  0.0  0.116109  -9.3e-05  1.021071  0.0  0.117073  -0.000166  1.022076  0.0  0.081378  0.115408  -4.5e-05  1.020349  0.0
H  H25  1  0.41315675  0.45420218  0.38845176  1  0.104034  0.000662  0.975626  0.0  0.122487  0.000962  1.041341  0.0  0.12262  0.001066  1.044219  0.0  0.084328  0.122274  0.000886  1.039482  0.0
H  H26  1  0.58684115  0.54579432  0.61154907  1  0.104084  0.000664  0.975625  0.0  0.122559  0.000962  1.041295  0.0  0.122691  0.001067  1.044179  0.0  0.084356  0.122355  0.000882  1.039427  0.0
H  H27  1  0.46560895  0.30303967  0.34343313  1  0.089259  -0.000176  0.953515  0.0  0.109589  -0.000105  1.01561  0.0  0.111207  -0.000161  1.015019  0.0  0.078603  0.1084  -6.7e-05  1.016107  0.0
H  H28  1  0.53439016  0.69695682  0.65656779  1  0.089303  -0.000193  0.953569  0.0  0.109596  -0.000105  1.015692  0.0  0.111214  -0.00016  1.015102  0.0  0.078588  0.108412  -6.7e-05  1.016188  0.0
H  H29  1  0.29473180  0.34267386  0.26592622  1  0.088463  0.000722  0.977677  0.001  0.10645  0.001003  1.045275  0.001  0.10729  0.001145  1.047633  0.001  0.076801  0.105881  0.000922  1.043658  0.001
H  H30  1  0.70526771  0.65732449  0.73407431  1  0.088468  0.000724  0.977702  0.001  0.106455  0.001003  1.045294  0.001  0.107292  0.001145  1.047656  0.001  0.076804  0.105892  0.00092  1.043673  0.001
H  H31  1  0.28313382  0.11650846  0.38195800  1  0.091556  -5.1e-05  0.970818  0.0  0.11172  6e-05  1.035692  0.0  0.112881  5.4e-05  1.036091  0.0  0.081617  0.110769  7.6e-05  1.035676  0.0
H  H32  1  0.71686450  0.88348991  0.61804159  1  0.091496  -5.3e-05  0.970824  0.0  0.111649  5.9e-05  1.035721  0.0  0.112812  5.4e-05  1.036115  0.0  0.081589  0.110698  8e-05  1.035705  0.0
H  H33  1  0.10197084  0.13901177  0.44837121  1  0.098238  -6.5e-05  0.952825  0.0  0.119322  9e-06  1.013864  0.0  0.120763  -1.4e-05  1.013868  0.0  0.084589  0.118272  2.9e-05  1.013856  0.0
H  H34  1  0.89802830  0.86098474  0.55162716  1  0.098179  -6e-05  0.952834  0.0  0.119265  9e-06  1.01388  0.0  0.120705  -1.5e-05  1.013884  0.0  0.084573  0.118214  3e-05  1.013869  0.0
H  H35  1  0.11223530  0.15289961  0.30145803  1  0.087716  0.000386  0.973564  0.0  0.108699  0.000573  1.037738  0.001  0.11002  0.000628  1.038099  0.001  0.079056  0.107834  0.000545  1.037376  0.001
H  H36  1  0.88776123  0.84709598  0.69853993  1  0.08766  0.000381  0.973602  0.0  0.108663  0.000573  1.037768  0.001  0.109985  0.000627  1.038125  0.001  0.078995  0.1078  0.000547  1.037405  0.001
H  H37  1  0.01263177  0.35509195  0.49337041  1  0.091834  -4.1e-05  0.975716  0.0  0.112641  -6.7e-05  1.041065  0.0  0.113532  -8.2e-05  1.041767  0.0  0.08455  0.111872  -5.6e-05  1.040784  0.0
H  H38  1  0.98736415  0.64490644  0.50662732  1  0.091836  -4.4e-05  0.975741  0.0  0.112628  -6.7e-05  1.041108  0.0  0.113519  -8.2e-05  1.041809  0.0  0.084553  0.111861  -5.7e-05  1.040822  0.0
H  H39  1  0.14168087  0.48323897  0.46842758  1  0.097894  -6e-05  0.962249  0.0  0.120253  -5.8e-05  1.023096  0.0  0.121337  -8.4e-05  1.023511  0.0  0.087519  0.119296  -4e-05  1.023181  0.0
H  H40  1  0.85831588  0.51675756  0.53156892  1  0.097876  -5.2e-05  0.962236  0.0  0.120243  -5.8e-05  1.023068  0.0  0.121326  -8.4e-05  1.02348  0.0  0.087522  0.119285  -3.9e-05  1.023149  0.0
H  H41  1  0.03713774  0.36328425  0.34666473  1  0.095119  -0.000112  0.945943  0.0  0.11687  -8.4e-05  1.005554  0.0  0.1189  -8.9e-05  1.004681  0.0  0.08384  0.115434  -8.2e-05  1.006163  0.0
H  H42  1  0.96285899  0.63671227  0.65333262  1  0.095174  -0.000115  0.945954  0.0  0.116902  -8.4e-05  1.005568  0.0  0.11892  -8.9e-05  1.004707  0.0  0.083851  0.115465  -8.2e-05  1.006177  0.0
H  H43  1  0.07644954  0.92137620  0.89916387  1  0.083212  4e-06  0.915454  0.0  0.102946  2e-06  0.969202  0.0  0.104358  -3e-06  0.968689  0.0  0.099718  0.101832  7e-06  0.96972  0.0
H  H44  1  0.92355619  0.07862865  0.10083864  1  0.0833  1e-06  0.915364  0.0  0.10297  2e-06  0.969168  0.0  0.104384  -3e-06  0.968653  0.0  0.099758  0.101848  6e-06  0.969696  0.0
H  H45  1  0.90744658  0.99958888  0.88059511  1  0.079193  1e-06  0.959566  0.0  0.097291  -7e-06  1.02114  0.0  0.098415  -2.2e-05  1.021095  0.0  0.097185  0.096386  1.5e-05  1.02128  0.0
H  H46  1  0.09255795  0.00041598  0.11940646  1  0.079214  -2e-06  0.959531  0.0  0.09731  -7e-06  1.02109  0.0  0.098437  -2.2e-05  1.021037  0.0  0.097187  0.096409  1.3e-05  1.021227  0.0
H  H47  1  0.66836967  0.08197595  0.53157251  1  0.094434  -6e-06  0.950944  0.0  0.115182  9e-06  1.012409  0.0  0.116369  -2.2e-05  1.012542  0.0  0.083846  0.114313  5.5e-05  1.012327  0.0
H  H48  1  0.33162700  0.91802054  0.46842908  1  0.094438  -1e-06  0.950909  0.0  0.115189  9e-06  1.012372  0.0  0.116375  -2.2e-05  1.012508  0.0  0.08386  0.114317  5.5e-05  1.012294  0.0
H  H49  1  0.78234170  0.21733023  0.50701820  1  0.095332  1e-05  0.956314  0.0  0.116451  2.4e-05  1.017386  0.0  0.117744  1e-05  1.017328  0.0  0.084772  0.1154  2.1e-05  1.01764  0.0
H  H50  1  0.21765742  0.78266627  0.49298187  1  0.095362  1e-06  0.956397  0.0  0.116498  2.4e-05  1.017445  0.0  0.117792  1e-05  1.017388  0.0  0.084799  0.115443  2.1e-05  1.017707  0.0
H  H51  1  0.88141543  0.12205384  0.58220988  1  0.097375  -1.7e-05  0.951192  0.0  0.120904  -3.6e-05  1.008184  0.0  0.122408  -2.9e-05  1.008153  0.0  0.087043  0.119819  -3.3e-05  1.008234  0.0
H  H52  1  0.11858404  0.87794450  0.41779320  1  0.09732  -2.5e-05  0.951267  0.0  0.120874  -3.6e-05  1.008229  0.0  0.122376  -2.8e-05  1.008202  0.0  0.08704  0.119788  -3.5e-05  1.008279  0.0
C  C53  1  0.52838806  0.37164163  0.78263681  1  0.170845  0.075691  3.802583  0.046  0.158766  0.065169  4.07131  0.035  0.174018  0.082698  4.082406  0.043  0.064333  0.148724  0.055013  4.063199  0.031
C  C54  1  0.47161309  0.62835861  0.21736173  1  0.170743  0.075649  3.802879  0.046  0.158661  0.065131  4.071581  0.035  0.173919  0.082648  4.082682  0.043  0.064346  0.148637  0.055061  4.06354  0.031
C  C55  1  0.48220113  0.27993177  0.57359236  1  -0.1745  0.052511  3.768109  0.035  -0.208251  0.046318  4.024636  0.027  -0.209234  0.055061  4.043848  0.031  -0.1108  -0.207321  0.040919  4.011248  0.025
C  C56  1  0.51779659  0.72006380  0.42640739  1  -0.174541  0.052492  3.768187  0.035  -0.208256  0.046292  4.024669  0.027  -0.209238  0.05503  4.043894  0.031  -0.110797  -0.20731  0.040956  4.011294  0.025
C  C57  1  0.57897308  0.29574628  0.68130053  1  -0.056292  -0.012142  3.686468  -0.011  -0.039705  0.002253  3.917337  -0.001  -0.043883  -0.004505  3.940275  -0.006  -0.02477  -0.037059  0.005732  3.901812  0.002
C  C58  1  0.42102789  0.70425302  0.31869693  1  -0.056253  -0.012179  3.686601  -0.011  -0.039695  0.002247  3.917502  -0.001  -0.043874  -0.004514  3.940445  -0.006  -0.024767  -0.037032  0.005737  3.901999  0.002
C  C59  1  0.38818651  0.43161710  0.77092302  1  0.229738  0.063726  3.871762  0.038  0.222135  0.055033  4.147556  0.029  0.239766  0.068331  4.157198  0.035  0.061115  0.210585  0.047183  4.140364  0.026
C  C60  1  0.61181018  0.56838499  0.22907734  1  0.22969  0.063675  3.871676  0.038  0.222178  0.055003  4.147361  0.029  0.239812  0.068283  4.157006  0.035  0.061123  0.210638  0.047226  4.140244  0.026
C  C61  1  0.29529852  0.41330420  0.66017335  1  -0.239996  -0.017598  3.747062  -0.013  -0.266738  -0.003526  3.997589  -0.004  -0.274951  -0.011714  4.014675  -0.009  -0.118026  -0.261425  0.001105  3.985874  -0.001
C  C62  1  0.70469901  0.58669604  0.33982493  1  -0.239919  -0.017576  3.747035  -0.013  -0.266679  -0.003533  3.997516  -0.004  -0.274895  -0.011704  4.014621  -0.009  -0.11804  -0.261347  0.001107  3.985792  -0.001
C  C63  1  0.34106551  0.33629346  0.56042289  1  0.055405  0.047056  3.70739  0.032  0.070915  0.040919  3.94289  0.026  0.074718  0.049018  3.964613  0.029  -0.015869  0.068558  0.035938  3.927852  0.024
C  C64  1  0.65893180  0.66370584  0.43957685  1  0.055249  0.046989  3.707511  0.032  0.070835  0.040898  3.942965  0.026  0.074625  0.048978  3.964683  0.029  -0.015844  0.06852  0.035971  3.927971  0.024
C  C65  1  0.80612730  0.63981968  0.98832628  1  0.143241  -0.001066  3.664852  -0.001  0.110517  -0.001024  3.922946  -0.001  0.12245  -0.001219  3.935927  -0.001  0.062336  0.102862  1.9e-05  3.914503  0.0
C  C66  1  0.19387634  0.36018057  0.01166819  1  0.143216  -0.001035  3.664759  -0.001  0.110506  -0.001023  3.922855  -0.001  0.122443  -0.001218  3.935831  -0.001  0.06239  0.102851  1.9e-05  3.914414  0.0
C  C67  1  0.68656365  0.84447929  0.94917408  1  -0.179708  -0.000281  3.723495  0.0  -0.195007  -0.000247  3.964567  0.0  -0.205353  -2.4e-05  3.986632  0.0  -0.082708  -0.18841  -0.000539  3.950049  0.0
C  C68  1  0.31343561  0.15552371  0.05082923  1  -0.179694  -0.000277  3.723605  0.0  -0.194968  -0.000248  3.964658  0.0  -0.205335  -2.3e-05  3.986727  0.0  -0.08267  -0.188374  -0.00054  3.950144  0.0
C  C69  1  0.91465016  0.73823381  0.97369349  1  -0.173797  -0.000284  3.701248  0.0  -0.189524  -0.000262  3.944069  0.0  -0.19958  -4.2e-05  3.964839  0.0  -0.07904  -0.18325  -0.000601  3.930533  0.0
C  C70  1  0.08535339  0.26176641  0.02630692  1  -0.17396  -0.000298  3.701074  0.0  -0.189691  -0.000263  3.943922  0.0  -0.199742  -4.2e-05  3.964683  0.0  -0.079112  -0.183416  -0.0006  3.930383  0.0
C  C71  1  0.24707951  0.31188429  0.43668695  1  0.200577  -0.001731  3.599446  -0.002  0.240763  0.000534  3.812601  0.0  0.240477  0.000437  3.832788  0.0  -0.014258  0.240831  0.00055  3.798967  0.0
C  C72  1  0.75291842  0.68811222  0.56331134  1  0.200806  -0.001723  3.599131  -0.002  0.240876  0.000533  3.812424  0.0  0.240636  0.000437  3.832551  0.0  -0.014237  0.240847  0.000549  3.798971  0.0
C  C73  1  0.85568322  0.84357854  0.95327828  1  0.151744  -0.000817  3.739234  0.0  0.168168  -0.001223  3.979033  -0.001  0.174918  -0.001224  4.001344  -0.001  0.013113  0.163602  -0.0001  3.963899  0.0
C  C74  1  0.14431947  0.15642352  0.04672506  1  0.151739  -0.000804  3.73926  0.0  0.168139  -0.001223  3.979065  -0.001  0.174888  -0.001224  4.001381  -0.001  0.01305  0.163577  -9.9e-05  3.963933  0.0
C  C75  1  0.58432118  0.74234891  0.96327854  1  0.136085  -0.001335  3.675373  -0.001  0.104542  -0.001232  3.933423  -0.001  0.115977  -0.001306  3.947184  -0.001  0.059212  0.097256  -0.000318  3.92428  -0.001
C  C76  1  0.41568173  0.25765409  0.03672333  1  0.136055  -0.001321  3.675342  -0.001  0.104572  -0.001232  3.933407  -0.001  0.11601  -0.001306  3.947169  -0.001  0.059241  0.097287  -0.000319  3.924267  -0.001
C  C77  1  0.73485580  0.23762054  0.69081637  1  0.225341  -0.00057  3.580152  0.0  0.265304  -0.000686  3.792571  0.0  0.26653  -0.000792  3.812644  0.0  -0.010937  0.264223  -0.000607  3.779372  0.0
C  C78  1  0.26514411  0.76237968  0.30918463  1  0.22526  -0.00057  3.58005  0.0  0.265231  -0.000686  3.792481  0.0  0.266454  -0.000792  3.812563  0.0  -0.010987  0.264154  -0.000605  3.779273  0.0
C  C79  1  0.72035965  0.15119512  0.77450336  1  -0.343793  -0.000272  3.676572  0.0  -0.424599  0.0002  3.915023  0.0  -0.427996  -0.000123  3.925112  0.0  -0.249087  -0.421868  0.000353  3.90794  0.0
C  C80  1  0.27964245  0.84880974  0.22549889  1  -0.343764  -0.000275  3.676491  0.0  -0.424575  0.000198  3.914955  0.0  -0.427959  -0.000122  3.925056  0.0  -0.249049  -0.42184  0.000358  3.907871  0.0
C  C81  1  0.88254925  0.34221383  0.73976837  1  -0.337996  -0.000134  3.645309  0.0  -0.417079  0.000356  3.878923  0.0  -0.420299  -7.3e-05  3.889069  0.0  -0.247414  -0.414502  0.00053  3.871847  0.0
C  C82  1  0.11744848  0.65778734  0.26023014  1  -0.33807  -0.000121  3.645377  0.0  -0.417167  0.000356  3.879006  0.0  -0.420385  -7.4e-05  3.889152  0.0  -0.247452  -0.414589  0.000538  3.871927  0.0
C  C83  1  0.36235762  0.35529448  0.35402424  1  -0.331837  0.003035  3.652567  0.002  -0.409258  0.003779  3.886923  0.002  -0.412647  0.004343  3.898703  0.003  -0.247464  -0.406632  0.003423  3.878716  0.002
C  C84  1  0.63764050  0.64470296  0.64597512  1  -0.332004  0.003045  3.65265  0.002  -0.409384  0.003777  3.88701  0.002  -0.412788  0.004342  3.898779  0.003  -0.247477  -0.406737  0.003421  3.878828  0.002
C  C85  1  0.18278675  0.17171230  0.38951075  1  -0.334462  0.002827  3.668847  0.002  -0.412745  0.00304  3.901921  0.002  -0.415865  0.003512  3.912929  0.002  -0.244529  -0.410207  0.002744  3.894179  0.002
C  C86  1  0.81721398  0.82828606  0.61048902  1  -0.334336  0.002828  3.668734  0.002  -0.412606  0.003038  3.901812  0.002  -0.415733  0.00351  3.912802  0.002  -0.244458  -0.410046  0.002752  3.894093  0.002
C  C87  1  0.10121360  0.38249899  0.43692968  1  -0.3406  -0.000407  3.691754  0.0  -0.422214  -0.000511  3.92896  0.0  -0.424848  -0.000606  3.939176  0.0  -0.245657  -0.420025  -0.000442  3.921835  0.0
C  C88  1  0.89878314  0.61749753  0.56306767  1  -0.340698  -0.000411  3.691759  0.0  -0.422251  -0.00051  3.928975  0.0  -0.424888  -0.000605  3.939178  0.0  -0.245655  -0.420037  -0.00044  3.921873  0.0
C  C89  1  0.96985848  0.95283887  0.93972602  1  -0.153953  -3.6e-05  3.699098  0.0  -0.201042  -7.8e-05  3.956271  0.0  -0.202659  -0.000124  3.967103  0.0  -0.152151  -0.199664  0.000104  3.94866  0.0
C  C90  1  0.03014179  0.04716319  0.06027799  1  -0.15401  -3.2e-05  3.698966  0.0  -0.201007  -7.8e-05  3.956106  0.0  -0.202624  -0.000124  3.966939  0.0  -0.152206  -0.199631  0.000103  3.948501  0.0
C  C91  1  0.76739985  0.16047015  0.57058607  1  -0.339859  -0.000379  3.686428  0.0  -0.418062  -0.000189  3.919707  0.0  -0.421266  -0.000282  3.930789  0.0  -0.242962  -0.415507  -0.000201  3.911958  0.0
C  C92  1  0.23259823  0.83952727  0.42941584  1  -0.339798  -0.000358  3.686508  0.0  -0.41805  -0.000188  3.919805  0.0  -0.421242  -0.000283  3.93086  0.0  -0.242983  -0.415478  -0.000201  3.912014  0.0
N  N93  1  0.64390939  0.64196806  0.98237562  1  -0.220391  -0.002088  3.369069  -0.002  -0.180931  0.001296  3.64015  0.001  -0.203245  0.00152  3.659169  0.001  -0.326794  -0.168362  0.001592  3.628011  0.001
N  N94  1  0.35609437  0.35803309  0.01762417  1  -0.220343  -0.00211  3.369179  -0.002  -0.180914  0.001295  3.640264  0.001  -0.203231  0.00152  3.659281  0.001  -0.326822  -0.168344  0.001591  3.628125  0.001
O  O95  1  0.60606393  0.39411174  0.89229121  1  -0.468719  0.090868  2.126964  0.092  -0.454348  0.098084  2.39845  0.097  -0.489607  0.109538  2.401285  0.104  -0.297102  -0.431352  0.088226  2.396087  0.09
O  O96  1  0.39393641  0.60589036  0.10770771  1  -0.468758  0.09081  2.127047  0.092  -0.45435  0.098042  2.398501  0.097  -0.489602  0.109478  2.401336  0.104  -0.297046  -0.431268  0.088284  2.396119  0.09
O  O97  1  0.35316999  0.50587283  0.86969079  1  -0.475864  0.084694  2.058266  0.086  -0.4667  0.091927  2.322736  0.091  -0.501211  0.10095  2.322197  0.096  -0.308029  -0.444042  0.083415  2.322351  0.085
O  O98  1  0.64683195  0.49413112  0.13030868  1  -0.475979  0.084632  2.058143  0.086  -0.466808  0.091894  2.322578  0.091  -0.501311  0.100901  2.322039  0.096  -0.308029  -0.444072  0.083479  2.322179  0.085
