# generated using pymatgen
data_UH6C5O6
_symmetry_space_group_name_H-M   'P 1'
_cell_length_a   5.95773211
_cell_length_b   9.46037316
_cell_length_c   13.94318656
_cell_angle_alpha   90.00103062
_cell_angle_beta   88.74884673
_cell_angle_gamma   90.00095061
_symmetry_Int_Tables_number   1
_chemical_formula_structural   UH6C5O6
_chemical_formula_sum   'U4 H24 C20 O24'
_cell_volume   785.68366412
_cell_formula_units_Z   4
loop_
 _symmetry_equiv_pos_site_id
 _symmetry_equiv_pos_as_xyz
  1  'x, y, z'
loop_
 _atom_site_type_symbol
 _atom_site_label
 _atom_site_symmetry_multiplicity
 _atom_site_fract_x
 _atom_site_fract_y
 _atom_site_fract_z
 _atom_site_occupancy
 _atom_site_hle17_bader_spin_density
 _atom_site_hle17_ddec_charge
 _atom_site_hle17_ddec_spin_density
 _atom_site_hle17_ddec_sum_bond_order
 _atom_site_hle17_magmom
 _atom_site_hse06_10hf_bader_spin_density
 _atom_site_hse06_10hf_ddec_charge
 _atom_site_hse06_10hf_ddec_spin_density
 _atom_site_hse06_10hf_ddec_sum_bond_order
 _atom_site_hse06_10hf_magmom
 _atom_site_hse06_bader_spin_density
 _atom_site_hse06_ddec_charge
 _atom_site_hse06_ddec_spin_density
 _atom_site_hse06_ddec_sum_bond_order
 _atom_site_hse06_magmom
 _atom_site_pbe_bader_spin_density
 _atom_site_pbe_cm5_charge
 _atom_site_pbe_ddec_charge
 _atom_site_pbe_ddec_spin_density
 _atom_site_pbe_ddec_sum_bond_order
 _atom_site_pbe_magmom
U  U0  1  0.93217390  0.21651697  0.49140285  1  0  2.487676  0  4.160858  0  0  2.549528  0  4.821559  0  0  2.660657  0  4.781945  0  0  2.225973  2.468634  0  4.852936  0
U  U1  1  0.06778478  0.71651248  0.00860339  1  0  2.488107  0  4.160406  0  0  2.549841  0  4.821256  0  0  2.660846  0  4.781858  0  0  2.226086  2.468863  0  4.852763  0
U  U2  1  0.06779308  0.78349087  0.50858953  1  0  2.487934  0  4.160276  0  0  2.549716  0  4.821084  0  0  2.660919  0  4.781324  0  0  2.225986  2.468876  0  4.852352  0
U  U3  1  0.93220360  0.28350699  0.99141038  1  0  2.487948  0  4.160679  0  0  2.549763  0  4.821508  0  0  2.660955  0  4.781778  0  0  2.225968  2.468965  0  4.852691  0
H  H4  1  0.59174771  0.83328062  0.31324688  1  0  0.139862  0  0.921053  0  0  0.159382  0  0.969883  0  0  0.161724  0  0.969008  0  0  0.120881  0.157704  0  0.970689  0
H  H5  1  0.40824159  0.33328084  0.18674719  1  0  0.139994  0  0.921136  0  0  0.159407  0  0.970111  0  0  0.161752  0  0.969233  0  0  0.120878  0.157728  0  0.970914  0
H  H6  1  0.40824280  0.16670713  0.68674392  1  0  0.139895  0  0.921095  0  0  0.15933  0  0.97002  0  0  0.161674  0  0.969149  0  0  0.120848  0.157654  0  0.970825  0
H  H7  1  0.59177074  0.66671960  0.81324349  1  0  0.139943  0  0.921026  0  0  0.159359  0  0.970012  0  0  0.161704  0  0.969139  0  0  0.120877  0.157682  0  0.970822  0
H  H8  1  0.84281719  0.85875744  0.24898366  1  0  0.120251  0  0.926462  0  0  0.132443  0  0.990398  0  0  0.134983  0  0.988955  0  0  0.118016  0.130638  0  0.991671  0
H  H9  1  0.15719023  0.35877770  0.25101111  1  0  0.120226  0  0.926688  0  0  0.132493  0  0.990511  0  0  0.135033  0  0.989065  0  0  0.118018  0.130672  0  0.9918  0
H  H10  1  0.15717836  0.14123982  0.75100641  1  0  0.120228  0  0.926455  0  0  0.132452  0  0.990321  0  0  0.134993  0  0.988881  0  0  0.118002  0.130645  0  0.991598  0
H  H11  1  0.84281355  0.64124388  0.74898751  1  0  0.120155  0  0.926611  0  0  0.132396  0  0.99049  0  0  0.134969  0  0.989008  0  0  0.117962  0.130572  0  0.991786  0
H  H12  1  0.57435220  0.90141782  0.13290293  1  0  0.092901  0  0.948984  0  0  0.111048  0  1.006202  0  0  0.113045  0  1.00493  0  0  0.106962  0.10966  0  1.007235  0
H  H13  1  0.42562602  0.40142051  0.36709761  1  0  0.092903  0  0.948872  0  0  0.111072  0  1.006128  0  0  0.113048  0  1.004899  0  0  0.107  0.109698  0  1.007139  0
H  H14  1  0.42561821  0.09856359  0.86708513  1  0  0.092805  0  0.949066  0  0  0.111015  0  1.006285  0  0  0.113027  0  1.005022  0  0  0.107008  0.109635  0  1.007299  0
H  H15  1  0.57437437  0.59857465  0.63290318  1  0  0.092878  0  0.948979  0  0  0.111055  0  1.006208  0  0  0.113031  0  1.004972  0  0  0.106994  0.109673  0  1.007233  0
H  H16  1  0.64467995  0.07558215  0.16724299  1  0  0.073594  0  0.949943  0  0  0.088786  0  1.015414  0  0  0.090095  0  1.014938  0  0  0.099422  0.087853  0  1.015889  0
H  H17  1  0.35536154  0.57559161  0.33274162  1  0  0.073406  0  0.94987  0  0  0.088699  0  1.015341  0  0  0.090021  0  1.014849  0  0  0.09938  0.087762  0  1.015819  0
H  H18  1  0.35534772  0.92442886  0.83273541  1  0  0.073372  0  0.950026  0  0  0.088708  0  1.015428  0  0  0.090033  0  1.014954  0  0  0.099362  0.087775  0  1.015905  0
H  H19  1  0.64466071  0.42443314  0.66725689  1  0  0.073409  0  0.949976  0  0  0.088684  0  1.015432  0  0  0.09  0  1.014943  0  0  0.09937  0.087749  0  1.015911  0
H  H20  1  0.24426771  0.90996323  0.25077166  1  0  0.118416  0  0.925826  0  0  0.131418  0  0.988006  0  0  0.133182  0  0.987627  0  0  0.11581  0.130395  0  0.988202  0
H  H21  1  0.75576376  0.40991672  0.24924748  1  0  0.118541  0  0.925802  0  0  0.13136  0  0.988153  0  0  0.133121  0  0.987777  0  0  0.115817  0.130344  0  0.988342  0
H  H22  1  0.75572911  0.09006998  0.74923991  1  0  0.118492  0  0.925758  0  0  0.131349  0  0.988071  0  0  0.133107  0  0.987696  0  0  0.115782  0.130336  0  0.988267  0
H  H23  1  0.24427514  0.59005519  0.75075811  1  0  0.118479  0  0.9259  0  0  0.131395  0  0.988149  0  0  0.133152  0  0.987777  0  0  0.115765  0.130378  0  0.988344  0
H  H24  1  0.29188214  0.09463259  0.26563262  1  0  0.125126  0  0.934111  0  0  0.13891  0  0.990498  0  0  0.140849  0  0.990309  0  0  0.110191  0.137641  0  0.990741  0
H  H25  1  0.70819893  0.59457984  0.23437585  1  0  0.12505  0  0.934333  0  0  0.138732  0  0.990758  0  0  0.140679  0  0.990547  0  0  0.110159  0.137466  0  0.991012  0
H  H26  1  0.70815352  0.90540802  0.73436653  1  0  0.125071  0  0.934354  0  0  0.138739  0  0.990818  0  0  0.140679  0  0.99062  0  0  0.110187  0.137479  0  0.991069  0
H  H27  1  0.29186180  0.40540052  0.76562961  1  0  0.125028  0  0.934432  0  0  0.13877  0  0.990846  0  0  0.140705  0  0.990657  0  0  0.110183  0.137507  0  0.991089  0
C  C28  1  0.76648033  0.01674638  0.34986399  1  0  0.750031  0  3.738999  0  0  0.71674  0  4.036773  0  0  0.755357  0  4.025372  0  0  0.24317  0.690098  0  4.042993  0
C  C29  1  0.23350470  0.51675020  0.15012840  1  0  0.750091  0  3.738788  0  0  0.716613  0  4.036835  0  0  0.755207  0  4.025448  0  0  0.243058  0.689977  0  4.043032  0
C  C30  1  0.23349156  0.98325406  0.65013481  1  0  0.750031  0  3.73926  0  0  0.716559  0  4.037282  0  0  0.755178  0  4.025889  0  0  0.24308  0.689917  0  4.043509  0
C  C31  1  0.76652956  0.48325552  0.84985642  1  0  0.750055  0  3.738572  0  0  0.716588  0  4.036694  0  0  0.755181  0  4.025326  0  0  0.243197  0.689947  0  4.042914  0
C  C32  1  0.69162162  0.91465821  0.27538904  1  0  -0.274226  0  3.652033  0  0  -0.306996  0  3.887251  0  0  -0.313576  0  3.894232  0  0  -0.148519  -0.302497  0  3.882383  0
C  C33  1  0.30838343  0.41464843  0.22460418  1  0  -0.274332  0  3.652007  0  0  -0.307034  0  3.887323  0  0  -0.313607  0  3.894334  0  0  -0.148525  -0.302525  0  3.882457  0
C  C34  1  0.30838050  0.08534012  0.72460888  1  0  -0.274415  0  3.652102  0  0  -0.307046  0  3.887378  0  0  -0.313613  0  3.894383  0  0  -0.148583  -0.302543  0  3.882512  0
C  C35  1  0.69162892  0.58535413  0.77538507  1  0  -0.274193  0  3.651834  0  0  -0.306912  0  3.887222  0  0  -0.313518  0  3.894238  0  0  -0.148534  -0.302395  0  3.882358  0
C  C36  1  0.56414316  0.97740596  0.19208148  1  0  -0.055761  0  3.647641  0  0  -0.098491  0  3.901053  0  0  -0.097489  0  3.913008  0  0  -0.155427  -0.098844  0  3.892455  0
C  C37  1  0.43587123  0.47739361  0.30790761  1  0  -0.05561  0  3.647209  0  0  -0.098524  0  3.900698  0  0  -0.097516  0  3.912654  0  0  -0.155462  -0.09889  0  3.892123  0
C  C38  1  0.43587932  0.02260082  0.80790484  1  0  -0.055445  0  3.647644  0  0  -0.098461  0  3.901194  0  0  -0.097513  0  3.913209  0  0  -0.155439  -0.098796  0  3.892589  0
C  C39  1  0.56412749  0.52260894  0.69209247  1  0  -0.055584  0  3.647907  0  0  -0.098439  0  3.901428  0  0  -0.097415  0  3.913372  0  0  -0.155436  -0.098789  0  3.892833  0
C  C40  1  0.31508104  0.00533521  0.21637762  1  0  -0.283088  0  3.626221  0  0  -0.322317  0  3.866572  0  0  -0.330219  0  3.875648  0  0  -0.152323  -0.316999  0  3.860269  0
C  C41  1  0.68495099  0.50529441  0.28362228  1  0  -0.283116  0  3.625932  0  0  -0.322064  0  3.866313  0  0  -0.329942  0  3.875379  0  0  -0.152424  -0.316776  0  3.860041  0
C  C42  1  0.68493799  0.99468848  0.78361374  1  0  -0.2831  0  3.625837  0  0  -0.322112  0  3.86617  0  0  -0.329986  0  3.875258  0  0  -0.152432  -0.316832  0  3.859918  0
C  C43  1  0.31508616  0.49468595  0.71638690  1  0  -0.282884  0  3.626093  0  0  -0.322152  0  3.866459  0  0  -0.330023  0  3.875487  0  0  -0.152375  -0.316858  0  3.860198  0
C  C44  1  0.18782367  0.03000670  0.12586819  1  0  0.788056  0  3.714035  0  0  0.766584  0  3.997556  0  0  0.807213  0  3.984039  0  0  0.273157  0.73825  0  4.006027  0
C  C45  1  0.81217065  0.52997933  0.37415572  1  0  0.788228  0  3.713635  0  0  0.766655  0  3.997189  0  0  0.807272  0  3.983695  0  0  0.273198  0.738336  0  4.005646  0
C  C46  1  0.81219482  0.97000960  0.87415115  1  0  0.788257  0  3.71426  0  0  0.766876  0  3.997576  0  0  0.807502  0  3.98405  0  0  0.27333  0.738557  0  4.00605  0
C  C47  1  0.18782632  0.47000736  0.62584796  1  0  0.787747  0  3.714456  0  0  0.766609  0  3.997491  0  0  0.807234  0  3.98397  0  0  0.273227  0.738287  0  4.00596  0
O  O48  1  0.18187347  0.22948214  0.41659551  1  0  -0.686565  0  1.582516  0  0  -0.699077  0  1.870958  0  0  -0.720522  0  1.857434  0  0  -0.74519  -0.685878  0  1.881382  0
O  O49  1  0.81809006  0.72947124  0.08341145  1  0  -0.68653  0  1.582543  0  0  -0.698944  0  1.87089  0  0  -0.720403  0  1.857502  0  0  -0.745093  -0.685728  0  1.881336  0
O  O50  1  0.81811175  0.77050562  0.58340824  1  0  -0.686424  0  1.582423  0  0  -0.698854  0  1.870804  0  0  -0.720353  0  1.857368  0  0  -0.745022  -0.685672  0  1.88123  0
O  O51  1  0.18186509  0.27049960  0.91658459  1  0  -0.686462  0  1.582522  0  0  -0.698924  0  1.870924  0  0  -0.720405  0  1.857456  0  0  -0.745063  -0.685754  0  1.881327  0
O  O52  1  0.68209145  0.19728286  0.56595730  1  0  -0.693469  0  1.533066  0  0  -0.70408  0  1.810652  0  0  -0.725374  0  1.795871  0  0  -0.74803  -0.691287  0  1.822295  0
O  O53  1  0.31788926  0.69730425  0.93405807  1  0  -0.693736  0  1.532746  0  0  -0.704387  0  1.810406  0  0  -0.725644  0  1.79564  0  0  -0.748246  -0.691575  0  1.822071  0
O  O54  1  0.31790716  0.80272604  0.43404852  1  0  -0.693695  0  1.532759  0  0  -0.704343  0  1.810405  0  0  -0.725647  0  1.7956  0  0  -0.748162  -0.69155  0  1.822035  0
O  O55  1  0.68209079  0.30273002  0.06595288  1  0  -0.69366  0  1.532881  0  0  -0.704331  0  1.810558  0  0  -0.725627  0  1.795748  0  0  -0.748123  -0.691549  0  1.822176  0
O  O56  1  0.88179901  0.97038871  0.42190883  1  0  -0.776988  0  2.125051  0  0  -0.770483  0  2.422234  0  0  -0.809811  0  2.417963  0  0  -0.405468  -0.740703  0  2.423355  0
O  O57  1  0.11818024  0.47040190  0.07807940  1  0  -0.77703  0  2.125403  0  0  -0.770429  0  2.422647  0  0  -0.80976  0  2.418466  0  0  -0.405447  -0.740648  0  2.42376  0
O  O58  1  0.11817113  0.02958002  0.57809357  1  0  -0.776824  0  2.125255  0  0  -0.770309  0  2.422562  0  0  -0.809629  0  2.418281  0  0  -0.405391  -0.740521  0  2.423686  0
O  O59  1  0.88183050  0.52959431  0.92190699  1  0  -0.777052  0  2.125227  0  0  -0.770452  0  2.422435  0  0  -0.809777  0  2.418258  0  0  -0.405501  -0.740663  0  2.423567  0
O  O60  1  0.72754247  0.14807127  0.34659055  1  0  -0.593753  0  1.921274  0  0  -0.570201  0  2.158573  0  0  -0.60152  0  2.153348  0  0  -0.317018  -0.54739  0  2.160889  0
O  O61  1  0.27247424  0.64807140  0.15341185  1  0  -0.593857  0  1.921157  0  0  -0.57019  0  2.158496  0  0  -0.601475  0  2.153283  0  0  -0.316981  -0.547379  0  2.160813  0
O  O62  1  0.27244969  0.85192599  0.65340097  1  0  -0.593836  0  1.921202  0  0  -0.570196  0  2.158566  0  0  -0.601527  0  2.15334  0  0  -0.316976  -0.547384  0  2.160879  0
O  O63  1  0.72753604  0.35193538  0.84659821  1  0  -0.593828  0  1.921237  0  0  -0.570171  0  2.158608  0  0  -0.601484  0  2.153394  0  0  -0.316996  -0.547368  0  2.160921  0
O  O64  1  0.18203352  0.92990142  0.06426928  1  0  -0.677811  0  2.074091  0  0  -0.675148  0  2.356725  0  0  -0.713963  0  2.349213  0  0  -0.379876  -0.646739  0  2.360849  0
O  O65  1  0.81788861  0.42988709  0.43574799  1  0  -0.677859  0  2.074195  0  0  -0.675148  0  2.35686  0  0  -0.713981  0  2.349335  0  0  -0.37983  -0.646771  0  2.361001  0
O  O66  1  0.81786781  0.07008844  0.93573209  1  0  -0.677764  0  2.074371  0  0  -0.675185  0  2.357037  0  0  -0.714015  0  2.349487  0  0  -0.379779  -0.646823  0  2.361178  0
O  O67  1  0.18209805  0.57007952  0.56426794  1  0  -0.677641  0  2.074683  0  0  -0.675113  0  2.357215  0  0  -0.71395  0  2.349669  0  0  -0.379779  -0.646714  0  2.361309  0
O  O68  1  0.09231310  0.14829661  0.11181661  1  0  -0.654438  0  2.025778  0  0  -0.648136  0  2.296168  0  0  -0.684706  0  2.288355  0  0  -0.361736  -0.620637  0  2.300286  0
O  O69  1  0.90770528  0.64826466  0.38818648  1  0  -0.654418  0  2.025743  0  0  -0.648083  0  2.296229  0  0  -0.684658  0  2.288422  0  0  -0.361698  -0.620578  0  2.300341  0
O  O70  1  0.90765859  0.85171863  0.88819224  1  0  -0.654479  0  2.025755  0  0  -0.648218  0  2.296147  0  0  -0.684773  0  2.288356  0  0  -0.361715  -0.620692  0  2.300275  0
O  O71  1  0.09233034  0.35171147  0.61181554  1  0  -0.654312  0  2.025823  0  0  -0.648121  0  2.29606  0  0  -0.684705  0  2.28826  0  0  -0.361705  -0.620606  0  2.30018  0
