# generated using pymatgen
data_Cu2H14C22N4O9
_symmetry_space_group_name_H-M   'P 1'
_cell_length_a   14.55530917
_cell_length_b   15.60815377
_cell_length_c   15.60835290
_cell_angle_alpha   112.73430465
_cell_angle_beta   95.96329216
_cell_angle_gamma   95.96315140
_symmetry_Int_Tables_number   1
_chemical_formula_structural   Cu2H14C22N4O9
_chemical_formula_sum   'Cu4 H28 C44 N8 O18'
_cell_volume   3212.38762568
_cell_formula_units_Z   2
loop_
 _symmetry_equiv_pos_site_id
 _symmetry_equiv_pos_as_xyz
  1  'x, y, z'
loop_
 _atom_site_type_symbol
 _atom_site_label
 _atom_site_symmetry_multiplicity
 _atom_site_fract_x
 _atom_site_fract_y
 _atom_site_fract_z
 _atom_site_occupancy
 _atom_site_pbe_bader_charge
 _atom_site_pbe_bader_spin_density
 _atom_site_pbe_cm5_charge
 _atom_site_pbe_ddec_charge
 _atom_site_pbe_ddec_spin_density
 _atom_site_pbe_ddec_sum_bond_order
 _atom_site_pbe_magmom
Cu  Cu0  1  0.48765918  0.92545547  0.92545770  1  1.090404  -0.54439  0.68126  0.864083  -0.735254  2.285975  -0.541
Cu  Cu1  1  0.51233066  0.07444615  0.07444414  1  1.089193  0.547351  0.682152  0.865865  0.701133  2.285491  0.544
Cu  Cu2  1  0.00000186  0.99999572  0.50000477  1  1.06447  0.56565  0.747041  0.779674  0.735925  2.209482  0.566
Cu  Cu3  1  0.00000470  0.50000555  0.99999746  1  1.064484  0.565654  0.747104  0.779784  0.735933  2.20953  0.566
H  H4  1  0.52084719  0.76078743  0.76078102  1  0.616385  0.000247  0.333567  0.408964  0.000132  0.871433  0.0
H  H5  1  0.47915070  0.23916615  0.23919812  1  0.617597  -0.000245  0.333628  0.40941  -0.000138  0.870803  0.0
H  H6  1  0.41217701  0.75475877  0.75475707  1  0.646621  0.000206  0.338529  0.416494  0.000113  0.860315  0.0
H  H7  1  0.58781891  0.24520887  0.24523181  1  0.645996  -0.000206  0.338527  0.416618  -0.000119  0.860197  0.0
H  H8  1  0.21330987  0.10617309  0.53324589  1  0.141299  0.000537  0.127039  0.12612  0.000203  0.987803  0.001
H  H9  1  0.78666917  0.46675960  0.89382408  1  0.141546  0.000536  0.127007  0.126069  0.000203  0.987711  0.001
H  H10  1  0.78667567  0.89382125  0.46675746  1  0.141509  0.000537  0.127004  0.126066  0.000203  0.987698  0.001
H  H11  1  0.21331437  0.53323967  0.10616947  1  0.14152  0.000537  0.126993  0.126021  0.000203  0.98781  0.001
H  H12  1  0.32123058  0.04169706  0.39017576  1  0.138673  0.001062  0.130654  0.12991  0.000537  0.995522  0.001
H  H13  1  0.67876400  0.60983541  0.95831442  1  0.138634  0.00106  0.130644  0.129879  0.000548  0.995521  0.001
H  H14  1  0.67876594  0.95830573  0.60983130  1  0.138854  0.001059  0.130649  0.129931  0.000548  0.995457  0.001
H  H15  1  0.32123055  0.39016809  0.04168632  1  0.138711  0.001063  0.130675  0.129926  0.000537  0.995428  0.001
H  H16  1  0.04502496  0.89044325  0.29810607  1  0.189806  0.000204  0.139029  0.10877  -8e-06  1.01561  0.0
H  H17  1  0.95497908  0.70188554  0.10954999  1  0.190111  0.000199  0.138993  0.108721  -1.2e-05  1.015615  0.0
H  H18  1  0.95497971  0.10954974  0.70188195  1  0.19017  0.000199  0.139  0.108732  -1.2e-05  1.015676  0.0
H  H19  1  0.04502381  0.29810041  0.89043833  1  0.190204  0.000203  0.13901  0.108739  -8e-06  1.015527  0.0
H  H20  1  0.31734330  0.00630822  0.22710735  1  0.105436  0.000379  0.111344  0.125493  0.000328  1.005265  0.0
H  H21  1  0.68266599  0.77292969  0.99371341  1  0.105486  -0.000307  0.111428  0.125518  -0.000302  1.005477  0.0
H  H22  1  0.68266831  0.99370724  0.77292016  1  0.105381  -0.000307  0.111422  0.125552  -0.000301  1.005394  0.0
H  H23  1  0.31734310  0.22709633  0.00630066  1  0.105151  0.000379  0.11133  0.125502  0.000328  1.005385  0.0
H  H24  1  0.26567362  0.74907294  0.97742192  1  0.146729  -0.000271  0.114693  0.132376  -0.000283  0.986805  0.0
H  H25  1  0.73434015  0.02260262  0.25096186  1  0.146815  0.000351  0.114646  0.132348  0.000283  0.987013  0.0
H  H26  1  0.73433835  0.25095378  0.02259911  1  0.146992  0.00035  0.114657  0.132355  0.000283  0.986943  0.0
H  H27  1  0.26567455  0.97741496  0.74906293  1  0.147162  -0.000271  0.114655  0.132326  -0.000283  0.986833  0.0
H  H28  1  0.11920078  0.77014381  0.20785649  1  0.092855  0.000609  0.110458  0.122813  0.000501  1.010769  0.0
H  H29  1  0.88079527  0.79214404  0.22986855  1  0.093686  0.000616  0.110462  0.122857  0.000506  1.010824  0.0
H  H30  1  0.88079996  0.22986393  0.79214520  1  0.093096  0.000616  0.110442  0.122773  0.000506  1.010877  0.0
H  H31  1  0.11920559  0.20785103  0.77013465  1  0.09322  0.000609  0.110464  0.122813  0.000501  1.01082  0.0
C  C32  1  0.19489201  0.05212083  0.46256466  1  0.452246  0.001394  0.008438  -0.010725  0.001579  3.986214  0.002
C  C33  1  0.80509765  0.53743668  0.94787604  1  0.452417  0.001435  0.008544  -0.010389  0.001608  3.98607  0.002
C  C34  1  0.80510124  0.94787423  0.53743716  1  0.452503  0.001434  0.008461  -0.010505  0.001607  3.986267  0.002
C  C35  1  0.19489302  0.46256402  0.05211619  1  0.452152  0.001394  0.008494  -0.010441  0.001579  3.986044  0.002
C  C36  1  0.24849100  0.02131139  0.39262234  1  0.248358  0.003362  0.001409  -0.111312  0.002221  3.921757  0.002
C  C37  1  0.75150369  0.60738464  0.97869628  1  0.247949  0.003356  0.00137  -0.11141  0.002232  3.921869  0.002
C  C38  1  0.75150483  0.97869140  0.60738272  1  0.247679  0.003357  0.001435  -0.111396  0.002233  3.921732  0.002
C  C39  1  0.24848949  0.39261886  0.02130240  1  0.248444  0.003362  0.001349  -0.11139  0.002221  3.921921  0.002
C  C40  1  0.10543728  0.93963557  0.34299928  1  0.951398  -0.002019  0.150771  0.114352  -0.000992  3.876091  -0.001
C  C41  1  0.89455904  0.65699964  0.06036145  1  0.951373  -0.001939  0.150724  0.114485  -0.000925  3.875886  -0.001
C  C42  1  0.89456288  0.06035951  0.65699616  1  0.951302  -0.00194  0.150719  0.114458  -0.000926  3.875791  -0.001
C  C43  1  0.10543825  0.34299474  0.93962960  1  0.950883  -0.002019  0.150779  0.114521  -0.000991  3.87605  -0.001
C  C44  1  0.21427229  0.89524158  0.22742124  1  0.326409  0.000364  0.09204  0.164067  0.000228  4.042837  0.0
C  C45  1  0.78573051  0.77258534  0.10476915  1  0.326661  0.00147  0.092129  0.164374  0.00103  4.042892  0.001
C  C46  1  0.78573016  0.10476826  0.77258592  1  0.32628  0.001469  0.092072  0.164239  0.00103  4.043029  0.001
C  C47  1  0.21427026  0.22741816  0.89523731  1  0.326521  0.000364  0.092163  0.164263  0.000228  4.042631  0.0
C  C48  1  0.28100681  0.93444905  0.18964791  1  -0.040504  -0.00084  -0.080393  -0.174157  -0.000529  3.928705  -0.001
C  C49  1  0.71900663  0.81037541  0.06556805  1  -0.040663  0.000673  -0.080353  -0.174179  0.00038  3.928826  0.001
C  C50  1  0.71900746  0.06556572  0.81036998  1  -0.040416  0.000673  -0.080329  -0.174188  0.000381  3.928816  0.001
C  C51  1  0.28100694  0.18963937  0.93444338  1  -0.040858  -0.00084  -0.080334  -0.174188  -0.000529  3.928927  -0.001
C  C52  1  0.30096049  0.88084033  0.10027713  1  -0.009402  0.000917  -0.010945  -0.004598  0.000535  3.963645  0.001
C  C53  1  0.69905236  0.89975260  0.11918411  1  -0.009057  0.001048  -0.011242  -0.004752  0.000641  3.963799  0.001
C  C54  1  0.69905039  0.11917935  0.89974682  1  -0.009074  0.001047  -0.011262  -0.00476  0.00064  3.963663  0.001
C  C55  1  0.30095906  0.10027061  0.88083101  1  -0.008892  0.000918  -0.011088  -0.004594  0.000536  3.963872  0.001
C  C56  1  0.25229188  0.78993203  0.04800578  1  0.014413  0.002  -0.068692  -0.101192  0.001282  3.888417  0.002
C  C57  1  0.74770807  0.95201416  0.21008960  1  0.013865  0.000148  -0.068515  -0.101155  8e-05  3.888418  0.0
C  C58  1  0.74770714  0.21008694  0.95201099  1  0.013769  0.000149  -0.068458  -0.101075  8e-05  3.888265  0.0
C  C59  1  0.25229306  0.04800059  0.78992574  1  0.014345  0.001999  -0.068596  -0.101123  0.001281  3.888514  0.002
C  C60  1  0.18564908  0.75097611  0.08662418  1  -0.009078  0.010623  -0.01196  0.000981  0.007368  3.962779  0.008
C  C61  1  0.81434587  0.91337647  0.24903772  1  -0.008472  0.009217  -0.011904  0.001149  0.006353  3.962472  0.007
C  C62  1  0.81434642  0.24903795  0.91337753  1  -0.009492  0.009215  -0.011909  0.001086  0.006351  3.962272  0.007
C  C63  1  0.18564989  0.08662139  0.75097440  1  -0.009043  0.010625  -0.011989  0.001011  0.007369  3.962838  0.008
C  C64  1  0.16821272  0.80306632  0.17724127  1  -0.043606  0.00036  -0.083324  -0.184776  0.000365  3.946333  0.0
C  C65  1  0.83178581  0.82276001  0.19694802  1  -0.044588  0.000313  -0.083208  -0.184813  0.000319  3.946662  0.0
C  C66  1  0.83178671  0.19694633  0.82276092  1  -0.043921  0.000313  -0.083232  -0.184676  0.00032  3.946477  0.0
C  C67  1  0.16821181  0.17723646  0.80305925  1  -0.043998  0.000361  -0.083296  -0.184743  0.000366  3.946446  0.0
C  C68  1  0.37424910  0.92359135  0.06152445  1  1.554023  0.000512  0.214968  0.578211  0.000238  4.166132  0.001
C  C69  1  0.62575655  0.93847336  0.07640181  1  1.554097  -0.00015  0.215008  0.578276  -0.000271  4.166085  0.0
C  C70  1  0.62575587  0.07639460  0.93846791  1  1.554266  -0.000153  0.215113  0.578336  -0.000271  4.166122  0.0
C  C71  1  0.37424848  0.06151752  0.92358479  1  1.553255  0.000511  0.215074  0.578158  0.000239  4.166066  0.001
C  C72  1  0.13131313  0.65347419  0.02995809  1  1.569411  -0.001159  0.189355  0.545821  0.00017  4.250903  -0.003
C  C73  1  0.86868762  0.97005587  0.34654012  1  1.569976  -0.00147  0.18929  0.545867  -6.6e-05  4.251753  -0.003
C  C74  1  0.86868514  0.34653985  0.97005990  1  1.569826  -0.001472  0.189164  0.545718  -6.6e-05  4.251373  -0.003
C  C75  1  0.13131224  0.02995958  0.65347281  1  1.569196  -0.001158  0.18933  0.545752  0.00017  4.250988  -0.003
N  N76  1  0.10598435  0.00074821  0.43042735  1  -1.197347  0.075588  -0.368465  -0.273861  0.051308  3.63644  0.066
N  N77  1  0.89401189  0.56956839  0.99924095  1  -1.197556  0.075638  -0.368374  -0.274035  0.051336  3.636145  0.066
N  N78  1  0.89401207  0.99924053  0.56956912  1  -1.197733  0.075638  -0.368357  -0.273934  0.051337  3.636377  0.066
N  N79  1  0.10598434  0.43042810  0.00074569  1  -1.19727  0.075593  -0.368468  -0.274037  0.051312  3.636374  0.066
N  N80  1  0.19100940  0.94934722  0.31703245  1  -1.250434  0.002421  -0.220838  0.017669  0.001498  3.792324  0.002
N  N81  1  0.80899165  0.68296981  0.05065966  1  -1.250096  0.002726  -0.220892  0.017448  0.001699  3.792585  0.002
N  N82  1  0.80899079  0.05065700  0.68296911  1  -1.249938  0.002728  -0.220895  0.017449  0.0017  3.792177  0.002
N  N83  1  0.19100534  0.31703159  0.94934050  1  -1.250533  0.00242  -0.220879  0.017415  0.001497  3.792831  0.002
O  O84  1  0.41381834  0.00734714  0.11427103  1  -1.105657  0.085125  -0.318728  -0.533526  0.055196  2.348401  0.077
O  O85  1  0.58618992  0.88570675  0.99266331  1  -1.105792  -0.084223  -0.318731  -0.533453  -0.057669  2.348666  -0.076
O  O86  1  0.58618552  0.99265853  0.88570261  1  -1.105886  -0.084221  -0.318813  -0.533571  -0.057668  2.348825  -0.076
O  O87  1  0.41382080  0.11426723  0.00733651  1  -1.105491  0.085124  -0.318777  -0.533463  0.055195  2.348426  0.077
O  O88  1  0.39106291  0.87304030  0.98023491  1  -1.097039  -0.087517  -0.310892  -0.515548  -0.059878  2.323795  -0.079
O  O89  1  0.60893264  0.01977401  0.12693465  1  -1.097345  0.088421  -0.310723  -0.51549  0.057287  2.323622  0.08
O  O90  1  0.60893764  0.12692591  0.01977053  1  -1.097293  0.088424  -0.310711  -0.515373  0.057287  2.323478  0.08
O  O91  1  0.39105977  0.98022460  0.87303644  1  -1.096782  -0.087524  -0.310935  -0.51557  -0.059882  2.323721  -0.079
O  O92  1  0.13511943  0.61236815  0.94496741  1  -1.157623  0.000882  -0.338472  -0.547604  0.000242  2.054529  0.001
O  O93  1  0.86486483  0.05504297  0.38762792  1  -1.158092  0.000743  -0.338346  -0.547505  0.000129  2.05494  0.001
O  O94  1  0.86486248  0.38763391  0.05504628  1  -1.157268  0.000741  -0.33814  -0.547377  0.000127  2.054772  0.001
O  O95  1  0.13511503  0.94496826  0.61236670  1  -1.157554  0.000884  -0.338439  -0.547603  0.000244  2.054606  0.001
O  O96  1  0.08161998  0.62064967  0.07900749  1  -1.116512  0.119543  -0.344111  -0.567631  0.077016  2.324835  0.108
O  O97  1  0.91838630  0.92101203  0.37935550  1  -1.116308  0.118924  -0.344028  -0.56759  0.076638  2.325238  0.108
O  O98  1  0.91838757  0.37935734  0.92101764  1  -1.116061  0.118929  -0.344164  -0.567651  0.076641  2.32503  0.108
O  O99  1  0.08162200  0.07901330  0.62065246  1  -1.116415  0.119549  -0.344109  -0.567582  0.077019  2.324713  0.108
O  O100  1  0.47147858  0.79149719  0.79150061  1  -1.225812  0.001511  -0.568105  -0.753895  0.000864  2.00862  0.0
O  O101  1  0.52852208  0.20849232  0.20844980  1  -1.226315  -0.001507  -0.568284  -0.754774  -0.000906  2.007361  0.0
