# generated using pymatgen
data_Zn4H36C58O13
_symmetry_space_group_name_H-M   'P 1'
_cell_length_a   21.63714775
_cell_length_b   21.63713459
_cell_length_c   34.59261206
_cell_angle_alpha   90.00015668
_cell_angle_beta   89.99991345
_cell_angle_gamma   90.00006778
_symmetry_Int_Tables_number   1
_chemical_formula_structural   Zn4H36C58O13
_chemical_formula_sum   'Zn8 H72 C116 O26'
_cell_volume   16195.08059808
_cell_formula_units_Z   2
loop_
 _symmetry_equiv_pos_site_id
 _symmetry_equiv_pos_as_xyz
  1  'x, y, z'
loop_
 _atom_site_type_symbol
 _atom_site_label
 _atom_site_symmetry_multiplicity
 _atom_site_fract_x
 _atom_site_fract_y
 _atom_site_fract_z
 _atom_site_occupancy
 _atom_site_pbe_bader_charge
 _atom_site_pbe_bader_spin_density
 _atom_site_pbe_cm5_charge
 _atom_site_pbe_ddec_charge
 _atom_site_pbe_ddec_spin_density
 _atom_site_pbe_ddec_sum_bond_order
 _atom_site_pbe_magmom
Zn  Zn0  1  0.55222880  0.55217194  0.03297315  1  1.307335  0  0.668207  0.96174  0  2.383275  0
Zn  Zn1  1  0.44776936  0.55217208  0.96702900  1  1.307317  0  0.668136  0.961762  0  2.383472  0
Zn  Zn2  1  0.44777181  0.44782904  0.03297282  1  1.307211  0  0.66814  0.961738  0  2.383607  0
Zn  Zn3  1  0.55222715  0.44782700  0.96702828  1  1.307344  0  0.668176  0.961731  0  2.383312  0
Zn  Zn4  1  0.44782860  0.44777223  0.46702793  1  1.307254  0  0.668089  0.961689  0  2.383613  0
Zn  Zn5  1  0.44782904  0.55222659  0.53297331  1  1.307462  0  0.668227  0.961774  0  2.383122  0
Zn  Zn6  1  0.55217236  0.55222789  0.46702826  1  1.307205  0  0.668119  0.961667  0  2.383346  0
Zn  Zn7  1  0.55217129  0.44777012  0.53297259  1  1.30723  0  0.668208  0.961774  0  2.383428  0
H  H8  1  0.25692131  0.43059978  0.04434469  1  0.103829  0  0.107475  0.11273  0  0.992994  0
H  H9  1  0.14172313  0.43020641  0.04441817  1  0.065136  0  0.101935  0.101591  0  1.000843  0
H  H10  1  0.25691890  0.56940066  0.95565586  1  0.103863  0  0.107509  0.112805  0  0.993092  0
H  H11  1  0.14172165  0.56979205  0.95558220  1  0.064951  0  0.101929  0.101586  0  1.000814  0
H  H12  1  0.05714764  0.50006692  0.93775294  1  0.061534  0  0.102392  0.101825  0  0.999877  0
H  H13  1  0.05714823  0.49993189  0.06224635  1  0.06159  0  0.102392  0.101812  0  0.999829  0
H  H14  1  0.74307882  0.56939987  0.04434515  1  0.103786  0  0.107496  0.112793  0  0.993049  0
H  H15  1  0.85827653  0.56979232  0.04441852  1  0.064886  0  0.101946  0.101641  0  1.000922  0
H  H16  1  0.74307763  0.43059791  0.95565552  1  0.103815  0  0.107454  0.112741  0  0.99302  0
H  H17  1  0.85827627  0.43020560  0.95558290  1  0.065168  0  0.101926  0.101594  0  1.000899  0
H  H18  1  0.94285046  0.50006737  0.06224622  1  0.061585  0  0.102424  0.101854  0  0.999861  0
H  H19  1  0.94284987  0.49993203  0.93775310  1  0.061563  0  0.102395  0.101811  0  0.999874  0
H  H20  1  0.42020103  0.44099243  0.15203784  1  0.066074  0  0.10408  0.113912  0  1.004948  0
H  H21  1  0.57979792  0.55900492  0.15203787  1  0.066086  0  0.104045  0.113845  0  1.005005  0
H  H22  1  0.55900567  0.57979829  0.34796326  1  0.066031  0  0.104111  0.113952  0  1.00511  0
H  H23  1  0.44099326  0.42020177  0.34796433  1  0.066027  0  0.104085  0.113883  0  1.005031  0
H  H24  1  0.36841684  0.46592381  0.23965515  1  0.0477  0  0.096672  0.096306  0  0.964243  0
H  H25  1  0.38372846  0.39711058  0.21370446  1  0.050803  0  0.097132  0.097509  0  0.973479  0
H  H26  1  0.63158142  0.53407485  0.23965480  1  0.047694  0  0.09669  0.09631  0  0.964294  0
H  H27  1  0.61627033  0.60288750  0.21370395  1  0.050849  0  0.097112  0.097473  0  0.973476  0
H  H28  1  0.53407507  0.63158174  0.26034634  1  0.047719  0  0.096691  0.096361  0  0.964238  0
H  H29  1  0.60288817  0.61627066  0.28629692  1  0.050895  0  0.097144  0.097522  0  0.973379  0
H  H30  1  0.46592407  0.36841747  0.26034615  1  0.047705  0  0.096705  0.096404  0  0.964236  0
H  H31  1  0.39711091  0.38372820  0.28629711  1  0.050778  0  0.097196  0.097593  0  0.973506  0
H  H32  1  0.57979700  0.44099221  0.84796382  1  0.065665  0  0.10409  0.113944  0  1.005023  0
H  H33  1  0.42020072  0.55900497  0.84796429  1  0.065983  0  0.10405  0.11387  0  1.005004  0
H  H34  1  0.44099298  0.57979750  0.65203807  1  0.066073  0  0.104136  0.113956  0  1.005035  0
H  H35  1  0.55900567  0.42020066  0.65203787  1  0.066084  0  0.104072  0.113901  0  1.004921  0
H  H36  1  0.63158122  0.46592418  0.76034627  1  0.047744  0  0.096693  0.096344  0  0.964217  0
H  H37  1  0.61626998  0.39711151  0.78629684  1  0.050879  0  0.097167  0.097529  0  0.973505  0
H  H38  1  0.36841718  0.53407538  0.76034645  1  0.047699  0  0.096724  0.096424  0  0.964202  0
H  H39  1  0.38372789  0.60288862  0.78629742  1  0.050766  0  0.097193  0.097595  0  0.973523  0
H  H40  1  0.46592364  0.63158229  0.73965536  1  0.047698  0  0.096693  0.096339  0  0.964246  0
H  H41  1  0.39711053  0.61627102  0.71370446  1  0.050825  0  0.097087  0.097423  0  0.973374  0
H  H42  1  0.53407480  0.36841764  0.73965511  1  0.047671  0  0.096698  0.096338  0  0.964236  0
H  H43  1  0.60288844  0.38372787  0.71370417  1  0.050827  0  0.097103  0.097461  0  0.973387  0
H  H44  1  0.42896976  0.25691514  0.04334309  1  0.089287  0  0.107263  0.112082  0  0.993464  0
H  H45  1  0.42874138  0.14173122  0.04349244  1  0.061072  0  0.101835  0.101133  0  1.001926  0
H  H46  1  0.57102897  0.25691354  0.95665827  1  0.089051  0  0.107291  0.112099  0  0.993471  0
H  H47  1  0.57125768  0.14172962  0.95650842  1  0.061043  0  0.10186  0.101203  0  1.001827  0
H  H48  1  0.59954226  0.05716862  0.99996444  1  0.066006  0  0.102362  0.10188  0  0.998925  0
H  H49  1  0.40045577  0.05716908  0.00003599  1  0.066343  0  0.102336  0.101866  0  0.998936  0
H  H50  1  0.42896987  0.74308457  0.95665846  1  0.089325  0  0.107268  0.11208  0  0.993457  0
H  H51  1  0.42874163  0.85826849  0.95650852  1  0.061047  0  0.10186  0.101167  0  1.001941  0
H  H52  1  0.57102852  0.74308496  0.04334343  1  0.088926  0  0.107269  0.112072  0  0.993523  0
H  H53  1  0.57125828  0.85826981  0.04349270  1  0.061005  0  0.101836  0.101141  0  1.001847  0
H  H54  1  0.40045601  0.94282968  0.99996413  1  0.066201  0  0.102368  0.101897  0  0.998883  0
H  H55  1  0.59954215  0.94282991  0.00003608  1  0.065973  0  0.10237  0.101918  0  0.998949  0
H  H56  1  0.56940211  0.74308032  0.45565373  1  0.103761  0  0.107479  0.112755  0  0.993039  0
H  H57  1  0.56979317  0.85827857  0.45558155  1  0.065103  0  0.10197  0.10167  0  1.000868  0
H  H58  1  0.43060229  0.74307627  0.54434354  1  0.103865  0  0.10747  0.112737  0  0.992997  0
H  H59  1  0.43020674  0.85827360  0.54441822  1  0.065187  0  0.101938  0.101611  0  1.000845  0
H  H60  1  0.49993176  0.94285050  0.56224634  1  0.061581  0  0.1024  0.101823  0  0.99988  0
H  H61  1  0.50006686  0.94285069  0.43775300  1  0.061548  0  0.102377  0.101805  0  0.999872  0
H  H62  1  0.43059887  0.25692206  0.45565627  1  0.103883  0  0.10749  0.112769  0  0.992977  0
H  H63  1  0.43020596  0.14172427  0.45558274  1  0.065179  0  0.101953  0.101631  0  1.000863  0
H  H64  1  0.56939987  0.25691956  0.54434595  1  0.103792  0  0.107485  0.112767  0  0.993029  0
H  H65  1  0.56979172  0.14172224  0.54441841  1  0.064932  0  0.10194  0.101636  0  1.000866  0
H  H66  1  0.49993277  0.05714884  0.43775369  1  0.06155  0  0.102408  0.101855  0  0.999861  0
H  H67  1  0.50006665  0.05714819  0.56224646  1  0.061566  0  0.102419  0.101858  0  0.999839  0
H  H68  1  0.74308525  0.57102761  0.45665834  1  0.089039  0  0.107293  0.112119  0  0.993468  0
H  H69  1  0.85826910  0.57125737  0.45650883  1  0.061061  0  0.101854  0.101172  0  1.001898  0
H  H70  1  0.74308368  0.42897017  0.54334349  1  0.089206  0  0.107253  0.112058  0  0.993483  0
H  H71  1  0.85826891  0.42874100  0.54349318  1  0.061058  0  0.101822  0.101112  0  1.001909  0
H  H72  1  0.94283000  0.40045625  0.50003643  1  0.066311  0  0.102369  0.101892  0  0.998971  0
H  H73  1  0.94282966  0.59954269  0.49996491  1  0.065967  0  0.10239  0.101936  0  0.998882  0
H  H74  1  0.25691478  0.57102843  0.54334326  1  0.088916  0  0.107266  0.11204  0  0.99353  0
H  H75  1  0.14173047  0.57125806  0.54349306  1  0.061001  0  0.10183  0.101134  0  1.00186  0
H  H76  1  0.25691480  0.42896923  0.45665787  1  0.089107  0  0.107285  0.112101  0  0.99342  0
H  H77  1  0.14173095  0.42874131  0.45650905  1  0.061042  0  0.101868  0.101174  0  1.001882  0
H  H78  1  0.05716856  0.59954216  0.50003615  1  0.066114  0  0.102379  0.101964  0  0.99893  0
H  H79  1  0.05716890  0.40045619  0.49996458  1  0.066333  0  0.102399  0.101946  0  0.99894  0
C  C80  1  0.50000206  0.66717644  0.00000264  1  1.575026  0  0.225882  0.605361  0  4.170135  0
C  C81  1  0.33277336  0.50000309  0.00000143  1  1.572388  0  0.225972  0.60447  0  4.171572  0
C  C82  1  0.50000184  0.50000158  0.10494023  1  1.557922  0  0.225277  0.603067  0  4.163812  0
C  C83  1  0.50000482  0.33282059  0.99999710  1  1.575033  0  0.225756  0.605142  0  4.170272  0
C  C84  1  0.66722410  0.50000191  0.00000011  1  1.572313  0  0.225954  0.604435  0  4.171432  0
C  C85  1  0.50000042  0.49999592  0.89506096  1  1.557941  0  0.225344  0.603247  0  4.163718  0
C  C86  1  0.33282175  0.50000419  0.50000443  1  1.575204  0  0.225739  0.605095  0  4.170377  0
C  C87  1  0.50000238  0.66722468  0.50000045  1  1.572701  0  0.226059  0.60464  0  4.171274  0
C  C88  1  0.50000056  0.50000083  0.39506085  1  1.557982  0  0.225275  0.603106  0  4.163847  0
C  C89  1  0.66717728  0.50000069  0.50000167  1  1.57511  0  0.22583  0.605248  0  4.170475  0
C  C90  1  0.50000403  0.33277466  0.50000103  1  1.572263  0  0.225907  0.604358  0  4.171482  0
C  C91  1  0.49999707  0.50000129  0.60494063  1  1.557955  0  0.225411  0.603314  0  4.163559  0
C  C92  1  0.26384099  0.50000074  0.00000204  1  0.04217  0  -0.022392  -0.048274  0  3.986083  0
C  C93  1  0.23113838  0.46111624  0.02516548  1  -0.07475  0  -0.082479  -0.08281  0  3.986087  0
C  C94  1  0.16688453  0.46134544  0.02524790  1  -0.081716  0  -0.092398  -0.140265  0  3.990743  0
C  C95  1  0.23113774  0.53888694  0.97483538  1  -0.074534  0  -0.082514  -0.083023  0  3.986034  0
C  C96  1  0.16688343  0.53865351  0.97475389  1  -0.081553  0  -0.092342  -0.140134  0  3.990849  0
C  C97  1  0.13366550  0.50000009  0.99999944  1  0.074913  0  -0.001376  0.080864  0  4.00257  0
C  C98  1  0.06547722  0.49999912  0.99999976  1  -0.079962  0  -0.009351  0.062216  0  4.015583  0
C  C99  1  0.03214985  0.50035628  0.96514320  1  -0.121247  0  -0.091741  -0.128221  0  4.001815  0
C  C100  1  0.03214913  0.49964296  0.03485525  1  -0.122404  0  -0.091734  -0.128199  0  4.001898  0
C  C101  1  0.73615804  0.50000183  0.99999944  1  0.042005  0  -0.022407  -0.048324  0  3.985997  0
C  C102  1  0.76885856  0.53888656  0.02516472  1  -0.074565  0  -0.082497  -0.082875  0  3.985883  0
C  C103  1  0.83311610  0.53865505  0.02524765  1  -0.081426  0  -0.092397  -0.140363  0  3.990728  0
C  C104  1  0.76885968  0.46111402  0.97483477  1  -0.074555  0  -0.082455  -0.082857  0  3.985895  0
C  C105  1  0.83311583  0.46134468  0.97475264  1  -0.081739  0  -0.092415  -0.140332  0  3.990757  0
C  C106  1  0.86633306  0.49999971  0.00000002  1  0.074961  0  -0.00127  0.081087  0  4.002271  0
C  C107  1  0.93452198  0.49999964  0.99999993  1  -0.080085  0  -0.009268  0.062259  0  4.015292  0
C  C108  1  0.96784825  0.50035664  0.03485568  1  0.056269  0  -0.091762  -0.128188  0  4.001815  0
C  C109  1  0.96784758  0.49964325  0.96514478  1  0.0563  0  -0.091762  -0.128186  0  4.001842  0
C  C110  1  0.40535747  0.43309322  0.23156870  1  -0.045409  0  -0.154065  -0.185084  0  3.980495  0
C  C111  1  0.59464220  0.56690495  0.23156843  1  -0.045754  0  -0.15401  -0.185047  0  3.980566  0
C  C112  1  0.56690469  0.59464205  0.26843241  1  -0.01989  0  -0.154064  -0.185218  0  3.980482  0
C  C113  1  0.43309443  0.40535720  0.26843231  1  -0.020153  0  -0.154153  -0.185376  0  3.980694  0
C  C114  1  0.45484930  0.46668951  0.16833844  1  0.015436  0  -0.088586  -0.162182  0  3.971958  0
C  C115  1  0.45410563  0.46673674  0.20856264  1  -0.051415  0  -0.006983  0.080373  0  3.962035  0
C  C116  1  0.54515145  0.53330929  0.16833759  1  0.015526  0  -0.088607  -0.162244  0  3.971754  0
C  C117  1  0.54589225  0.53325993  0.20856265  1  -0.051373  0  -0.007073  0.080347  0  3.962424  0
C  C118  1  0.53330959  0.54515132  0.33166381  1  0.015515  0  -0.088716  -0.162401  0  3.972061  0
C  C119  1  0.53326064  0.54589255  0.29143816  1  -0.051598  0  -0.007088  0.08043  0  3.962379  0
C  C120  1  0.46668892  0.45484959  0.33166318  1  0.015436  0  -0.088654  -0.162154  0  3.972026  0
C  C121  1  0.46673750  0.45410587  0.29143870  1  -0.051586  0  -0.006953  0.080446  0  3.962096  0
C  C122  1  0.49999809  0.49999705  0.14803382  1  -0.022073  0  -0.024913  -0.033012  0  4.019113  0
C  C123  1  0.49999984  0.49999907  0.22884038  1  -0.108936  0  -0.005507  -0.019022  0  3.945873  0
C  C124  1  0.49999830  0.49999888  0.35196725  1  -0.022096  0  -0.024763  -0.03283  0  4.019  0
C  C125  1  0.49999933  0.49999917  0.27116127  1  0.033195  0  -0.005615  -0.019449  0  3.945993  0
C  C126  1  0.59464194  0.43309358  0.76843238  1  -0.045167  0  -0.154093  -0.185175  0  3.980537  0
C  C127  1  0.40535644  0.56690509  0.76843287  1  -0.020166  0  -0.154164  -0.185414  0  3.980712  0
C  C128  1  0.43309352  0.59464299  0.73156952  1  -0.045399  0  -0.154015  -0.185002  0  3.980307  0
C  C129  1  0.56690541  0.40535691  0.73156900  1  -0.020446  0  -0.154038  -0.185101  0  3.980406  0
C  C130  1  0.54514922  0.46668779  0.83166356  1  0.015861  0  -0.088692  -0.162337  0  3.972047  0
C  C131  1  0.54589151  0.46673761  0.79143850  1  -0.05138  0  -0.007146  0.080321  0  3.962378  0
C  C132  1  0.45484900  0.53330931  0.83166337  1  0.015505  0  -0.088655  -0.162237  0  3.972128  0
C  C133  1  0.45410542  0.53326069  0.79143946  1  -0.051348  0  -0.006909  0.080579  0  3.962086  0
C  C134  1  0.46668903  0.54515156  0.66833775  1  0.015474  0  -0.088651  -0.16223  0  3.971812  0
C  C135  1  0.46673843  0.54589297  0.70856310  1  -0.051417  0  -0.007004  0.08039  0  3.962204  0
C  C136  1  0.53330912  0.45484898  0.66833793  1  0.015519  0  -0.08862  -0.162303  0  3.971763  0
C  C137  1  0.53326055  0.45410682  0.70856299  1  -0.051414  0  -0.007006  0.080451  0  3.96223  0
C  C138  1  0.49999770  0.49999813  0.85196823  1  -0.022123  0  -0.024674  -0.03284  0  4.019167  0
C  C139  1  0.49999918  0.49999888  0.77116167  1  0.032793  0  -0.005635  -0.019413  0  3.945962  0
C  C140  1  0.49999887  0.49999953  0.64803394  1  -0.022077  0  -0.024921  -0.033061  0  4.019078  0
C  C141  1  0.49999924  0.50000017  0.72884050  1  -0.108889  0  -0.005508  -0.019127  0  3.946151  0
C  C142  1  0.49999859  0.26387766  0.00000172  1  0.012942  0  -0.022377  -0.049022  0  3.986285  0
C  C143  1  0.45969194  0.23116679  0.02427655  1  -0.045701  0  -0.08183  -0.081257  0  3.985804  0
C  C144  1  0.45951674  0.16691106  0.02409929  1  -0.072304  0  -0.091953  -0.139496  0  3.990388  0
C  C145  1  0.54030954  0.23116570  0.97572389  1  -0.045341  0  -0.081861  -0.081327  0  3.985371  0
C  C146  1  0.54048189  0.16690950  0.97590277  1  -0.072341  0  -0.092064  -0.139646  0  3.990716  0
C  C147  1  0.50000100  0.13367038  0.99999924  1  0.067122  0  -0.001763  0.080243  0  4.0  0
C  C148  1  0.49999940  0.06547847  0.00000069  1  -0.095936  0  -0.009146  0.062642  0  4.013458  0
C  C149  1  0.55574627  0.03214033  0.99978347  1  -0.118645  0  -0.091665  -0.128294  0  4.00017  0
C  C150  1  0.44425173  0.03213945  0.00021749  1  -0.117871  0  -0.091645  -0.128355  0  4.000264  0
C  C151  1  0.49999933  0.73612226  0.00000039  1  0.013049  0  -0.02241  -0.049025  0  3.985939  0
C  C152  1  0.45969064  0.76883342  0.97572410  1  -0.045703  0  -0.081808  -0.081235  0  3.985518  0
C  C153  1  0.45951737  0.83308870  0.97590222  1  -0.072276  0  -0.091962  -0.139511  0  3.990579  0
C  C154  1  0.54031009  0.76883462  0.02427755  1  -0.045355  0  -0.081846  -0.081363  0  3.985539  0
C  C155  1  0.54048205  0.83308850  0.02409866  1  -0.072281  0  -0.091908  -0.139362  0  3.990492  0
C  C156  1  0.49999959  0.86632839  0.99999986  1  0.06711  0  -0.001903  0.080035  0  3.999933  0
C  C157  1  0.49999853  0.93452053  0.00000056  1  -0.095944  0  -0.009088  0.062733  0  4.013224  0
C  C158  1  0.44425200  0.96785843  0.99978317  1  0.059904  0  -0.091716  -0.128345  0  4.000199  0
C  C159  1  0.55574665  0.96785862  0.00021766  1  0.060233  0  -0.091717  -0.128455  0  4.000172  0
C  C160  1  0.50000335  0.73615756  0.49999993  1  0.042202  0  -0.02236  -0.048336  0  3.985927  0
C  C161  1  0.53888838  0.76886149  0.47483416  1  -0.0745  0  -0.082442  -0.08276  0  3.985785  0
C  C162  1  0.53865456  0.83311722  0.47475212  1  -0.081773  0  -0.092476  -0.140486  0  3.990875  0
C  C163  1  0.46111697  0.76885924  0.52516488  1  -0.074815  0  -0.082497  -0.082868  0  3.986021  0
C  C164  1  0.46134625  0.83311359  0.52524704  1  -0.081768  0  -0.092383  -0.140269  0  3.990773  0
C  C165  1  0.49999973  0.86633284  0.49999888  1  0.075046  0  -0.0013  0.08105  0  4.00236  0
C  C166  1  0.49999838  0.93452162  0.50000010  1  -0.080002  0  -0.009329  0.06216  0  4.015438  0
C  C167  1  0.49964157  0.96784866  0.53485583  1  0.056285  0  -0.091744  -0.128157  0  4.001879  0
C  C168  1  0.50035570  0.96784851  0.46514355  1  0.056318  0  -0.091768  -0.128207  0  4.001777  0
C  C169  1  0.49999937  0.26384132  0.49999953  1  0.04194  0  -0.022447  -0.048291  0  3.985861  0
C  C170  1  0.46111487  0.23113867  0.47483547  1  -0.074579  0  -0.082469  -0.082866  0  3.986006  0
C  C171  1  0.46134545  0.16688524  0.47475303  1  -0.081738  0  -0.092399  -0.140286  0  3.990763  0
C  C172  1  0.53888615  0.23113882  0.52516584  1  -0.074454  0  -0.082429  -0.082848  0  3.985757  0
C  C173  1  0.53865410  0.16688309  0.52524672  1  -0.081526  0  -0.092427  -0.140366  0  3.990846  0
C  C174  1  0.49999976  0.13366604  0.50000028  1  0.07492  0  -0.00133  0.080986  0  4.002458  0
C  C175  1  0.49999879  0.06547772  0.49999993  1  -0.079992  0  -0.009275  0.062209  0  4.015594  0
C  C176  1  0.49964295  0.03215068  0.46514391  1  -0.121287  0  -0.091752  -0.128199  0  4.001821  0
C  C177  1  0.50035506  0.03214990  0.53485561  1  -0.122383  0  -0.091775  -0.128219  0  4.001877  0
C  C178  1  0.73612213  0.50000120  0.50000222  1  0.012986  0  -0.022367  -0.049039  0  3.9861  0
C  C179  1  0.76883444  0.54030918  0.47572480  1  -0.045321  0  -0.081835  -0.081322  0  3.985533  0
C  C180  1  0.83308968  0.54048161  0.47590255  1  -0.072306  0  -0.09204  -0.139565  0  3.990682  0
C  C181  1  0.76883341  0.45969140  0.52427816  1  -0.045704  0  -0.081871  -0.08134  0  3.98562  0
C  C182  1  0.83308772  0.45951720  0.52409948  1  -0.072333  0  -0.091923  -0.139418  0  3.990456  0
C  C183  1  0.86632829  0.49999989  0.50000042  1  0.067098  0  -0.001846  0.080146  0  3.999981  0
C  C184  1  0.93451982  0.49999993  0.50000126  1  -0.095923  0  -0.009061  0.062777  0  4.013171  0
C  C185  1  0.96785874  0.44425088  0.50021800  1  0.059808  0  -0.091752  -0.128416  0  4.000192  0
C  C186  1  0.96785881  0.55574624  0.49978361  1  0.060235  0  -0.091706  -0.128407  0  4.00028  0
C  C187  1  0.26387828  0.49999999  0.49999955  1  0.012969  0  -0.022416  -0.04903  0  3.985903  0
C  C188  1  0.23116648  0.54031035  0.52427704  1  -0.045345  0  -0.081835  -0.081291  0  3.985463  0
C  C189  1  0.16691124  0.54048178  0.52409871  1  -0.072251  0  -0.091912  -0.139395  0  3.990409  0
C  C190  1  0.23116649  0.45969144  0.47572440  1  -0.045459  0  -0.081827  -0.081272  0  3.985511  0
C  C191  1  0.16691125  0.45951670  0.47590251  1  -0.07227  0  -0.092014  -0.139547  0  3.990628  0
C  C192  1  0.13367119  0.49999899  0.50000019  1  0.067112  0  -0.001835  0.080126  0  3.999913  0
C  C193  1  0.06547875  0.49999849  0.50000080  1  -0.095893  0  -0.009062  0.062788  0  4.013253  0
C  C194  1  0.03213982  0.55574707  0.50021767  1  -0.118753  0  -0.091758  -0.128549  0  4.000307  0
C  C195  1  0.03214022  0.44425125  0.49978367  1  -0.11791  0  -0.091734  -0.128442  0  4.000277  0
O  O196  1  0.49999983  0.49999938  0.99999984  1  -1.212026  0  -0.571523  -1.025694  0  2.535009  0
O  O197  1  0.53705173  0.64041465  0.02341049  1  -1.184728  0  -0.317792  -0.551205  0  2.339702  0
O  O198  1  0.35952203  0.53655954  0.97629054  1  -1.182769  0  -0.318209  -0.551056  0  2.339615  0
O  O199  1  0.46236518  0.46316669  0.08815542  1  -1.176811  0  -0.318815  -0.549353  0  2.337324  0
O  O200  1  0.46294330  0.64041208  0.97659122  1  -1.184486  0  -0.317937  -0.551405  0  2.338968  0
O  O201  1  0.53762837  0.53682714  0.08815602  1  -1.176752  0  -0.318638  -0.54913  0  2.33819  0
O  O202  1  0.35952314  0.46344749  0.02371165  1  -1.182728  0  -0.318258  -0.551036  0  2.339552  0
O  O203  1  0.46294383  0.35958860  0.02341000  1  -1.184469  0  -0.317917  -0.55138  0  2.338755  0
O  O204  1  0.64047445  0.46344374  0.97629064  1  -1.182742  0  -0.318241  -0.55105  0  2.339459  0
O  O205  1  0.53705411  0.35958288  0.97659210  1  -1.184705  0  -0.317672  -0.550961  0  2.339685  0
O  O206  1  0.64047611  0.53655761  0.02370984  1  -1.182832  0  -0.318175  -0.550972  0  2.339739  0
O  O207  1  0.46236746  0.53682937  0.91184725  1  -1.176841  0  -0.31884  -0.549414  0  2.337514  0
O  O208  1  0.53762965  0.46316670  0.91184542  1  -1.176885  0  -0.318738  -0.549321  0  2.337877  0
O  O209  1  0.50000044  0.49999875  0.50000059  1  -1.212048  0  -0.571509  -1.025677  0  2.534994  0
O  O210  1  0.35958730  0.46294333  0.47659245  1  -1.184616  0  -0.317888  -0.551338  0  2.338805  0
O  O211  1  0.46345224  0.64047579  0.52370550  1  -1.183079  0  -0.318129  -0.550938  0  2.339728  0
O  O212  1  0.53683074  0.53763017  0.41184624  1  -1.176807  0  -0.318666  -0.549181  0  2.337949  0
O  O213  1  0.35958312  0.53705168  0.52340858  1  -1.184765  0  -0.3177  -0.551002  0  2.339829  0
O  O214  1  0.46316711  0.46236785  0.41184650  1  -1.176838  0  -0.318812  -0.549402  0  2.337605  0
O  O215  1  0.53656313  0.64047665  0.47628667  1  -1.182827  0  -0.318434  -0.551291  0  2.339273  0
O  O216  1  0.64041779  0.53705590  0.47659065  1  -1.184674  0  -0.317849  -0.551257  0  2.33928  0
O  O217  1  0.53655967  0.35952366  0.52370985  1  -1.182781  0  -0.318129  -0.550928  0  2.339853  0
O  O218  1  0.64041307  0.46294915  0.52340838  1  -1.184597  0  -0.317798  -0.551139  0  2.339575  0
O  O219  1  0.46344427  0.35952674  0.47628907  1  -1.182663  0  -0.318264  -0.551059  0  2.339377  0
O  O220  1  0.46316786  0.53763237  0.58815559  1  -1.176939  0  -0.318802  -0.549352  0  2.337761  0
O  O221  1  0.53682956  0.46236829  0.58815434  1  -1.176691  0  -0.318775  -0.549355  0  2.337509  0
