# generated using pymatgen
data_CdH10C10(SO4)2
_symmetry_space_group_name_H-M   'P 1'
_cell_length_a   5.85846985
_cell_length_b   10.16454633
_cell_length_c   12.11801915
_cell_angle_alpha   109.61780019
_cell_angle_beta   103.98464577
_cell_angle_gamma   90.00853931
_symmetry_Int_Tables_number   1
_chemical_formula_structural   CdH10C10(SO4)2
_chemical_formula_sum   'Cd2 H20 C20 S4 O16'
_cell_volume   656.96480770
_cell_formula_units_Z   2
loop_
 _symmetry_equiv_pos_site_id
 _symmetry_equiv_pos_as_xyz
  1  'x, y, z'
loop_
 _atom_site_type_symbol
 _atom_site_label
 _atom_site_symmetry_multiplicity
 _atom_site_fract_x
 _atom_site_fract_y
 _atom_site_fract_z
 _atom_site_occupancy
 _atom_site_hle17_bader_spin_density
 _atom_site_hle17_ddec_charge
 _atom_site_hle17_ddec_spin_density
 _atom_site_hle17_ddec_sum_bond_order
 _atom_site_hle17_magmom
 _atom_site_hse06_10hf_bader_spin_density
 _atom_site_hse06_10hf_ddec_charge
 _atom_site_hse06_10hf_ddec_spin_density
 _atom_site_hse06_10hf_ddec_sum_bond_order
 _atom_site_hse06_10hf_magmom
 _atom_site_hse06_bader_spin_density
 _atom_site_hse06_ddec_charge
 _atom_site_hse06_ddec_spin_density
 _atom_site_hse06_ddec_sum_bond_order
 _atom_site_hse06_magmom
 _atom_site_pbe_bader_spin_density
 _atom_site_pbe_cm5_charge
 _atom_site_pbe_ddec_charge
 _atom_site_pbe_ddec_spin_density
 _atom_site_pbe_ddec_sum_bond_order
 _atom_site_pbe_magmom
Cd  Cd0  1  0.00000640  0.50000034  0.99999922  1  0  1.39936  0  1.556271  0  0  1.245316  0  2.009959  0  0  1.292719  0  1.949393  0  0  0.830227  1.210949  0  2.05267  0
Cd  Cd1  1  0.99999727  0.99999923  0.99999944  1  0  1.39946  0  1.554726  0  0  1.245119  0  2.008332  0  0  1.292596  0  1.947617  0  0  0.830322  1.210645  0  2.050826  0
H  H2  1  0.00893035  0.24498215  0.31029190  1  0  0.125473  0  0.94227  0  0  0.133318  0  1.003527  0  0  0.13689  0  1.001142  0  0  0.110235  0.130602  0  1.005502  0
H  H3  1  0.69877592  0.25500320  0.68976792  1  0  0.125539  0  0.941857  0  0  0.134049  0  1.002382  0  0  0.137711  0  0.999851  0  0  0.110462  0.131256  0  1.004431  0
H  H4  1  0.99105022  0.75502224  0.68970114  1  0  0.125368  0  0.94234  0  0  0.133284  0  1.003525  0  0  0.136854  0  1.001139  0  0  0.110213  0.130564  0  1.0055  0
H  H5  1  0.30124285  0.74499923  0.31023832  1  0  0.125546  0  0.941777  0  0  0.134025  0  1.002351  0  0  0.137676  0  0.99983  0  0  0.110444  0.131231  0  1.004399  0
H  H6  1  0.68096998  0.52246293  0.31308412  1  0  0.108797  0  0.952546  0  0  0.119582  0  1.009922  0  0  0.123172  0  1.007448  0  0  0.107309  0.11699  0  1.011698  0
H  H7  1  0.36796769  0.97768682  0.68685967  1  0  0.108907  0  0.952439  0  0  0.119708  0  1.00977  0  0  0.123297  0  1.007261  0  0  0.107181  0.117131  0  1.011546  0
H  H8  1  0.31898736  0.47752675  0.68690039  1  0  0.108785  0  0.95271  0  0  0.119528  0  1.01014  0  0  0.123109  0  1.00768  0  0  0.107344  0.116945  0  1.011909  0
H  H9  1  0.63206468  0.02232287  0.31314032  1  0  0.108891  0  0.952456  0  0  0.119706  0  1.009768  0  0  0.123293  0  1.007268  0  0  0.107164  0.117126  0  1.011543  0
H  H10  1  0.01103657  0.30850636  0.52769336  1  0  0.087969  0  0.987493  0  0  0.098027  0  1.049495  0  0  0.09922  0  1.052047  0  0  0.09804  0.096882  0  1.048432  0
H  H11  1  0.48320702  0.19122639  0.47231304  1  0  0.087402  0  0.987987  0  0  0.097696  0  1.04978  0  0  0.098967  0  1.052272  0  0  0.097741  0.096481  0  1.048773  0
H  H12  1  0.98892385  0.69149167  0.47228970  1  0  0.088042  0  0.987278  0  0  0.098085  0  1.049301  0  0  0.09928  0  1.051847  0  0  0.098032  0.096936  0  1.04824  0
H  H13  1  0.51681884  0.80878753  0.52769145  1  0  0.087352  0  0.988134  0  0  0.097657  0  1.049893  0  0  0.098926  0  1.052389  0  0  0.097739  0.096442  0  1.048887  0
H  H14  1  0.67175043  0.37172268  0.09406940  1  0  0.441451  0  0.84719  0  0  0.411914  0  0.908508  0  0  0.421731  0  0.89418  0  0  0.304165  0.404973  0  0.918622  0
H  H15  1  0.57782415  0.12833179  0.90588101  1  0  0.440604  0  0.848579  0  0  0.411348  0  0.909318  0  0  0.421145  0  0.895032  0  0  0.3041  0.404378  0  0.919475  0
H  H16  1  0.32828449  0.62826924  0.90593180  1  0  0.441412  0  0.84714  0  0  0.411877  0  0.908539  0  0  0.421691  0  0.894214  0  0  0.304161  0.404934  0  0.918657  0
H  H17  1  0.42217250  0.87166436  0.09412493  1  0  0.440673  0  0.848504  0  0  0.411299  0  0.909398  0  0  0.421096  0  0.895111  0  0  0.304098  0.404328  0  0.919555  0
H  H18  1  0.55188166  0.37868179  0.96557241  1  0  0.441561  0  0.836412  0  0  0.411685  0  0.906714  0  0  0.421215  0  0.892664  0  0  0.305658  0.40487  0  0.916786  0
H  H19  1  0.58619845  0.12117661  0.03429193  1  0  0.440925  0  0.837288  0  0  0.4112  0  0.907217  0  0  0.420715  0  0.893198  0  0  0.305599  0.40441  0  0.917237  0
H  H20  1  0.44812243  0.62131754  0.03443778  1  0  0.441507  0  0.836417  0  0  0.411639  0  0.906748  0  0  0.421167  0  0.892702  0  0  0.305648  0.404825  0  0.916818  0
H  H21  1  0.41380228  0.87881115  0.96571054  1  0  0.440901  0  0.837396  0  0  0.411178  0  0.907267  0  0  0.420693  0  0.89325  0  0  0.305585  0.404387  0  0.917291  0
C  C22  1  0.31928520  0.38143657  0.34850409  1  0  -0.163633  0  3.69718  0  0  -0.142027  0  3.945014  0  0  -0.150178  0  3.966858  0  0  -0.015975  -0.136813  0  3.930452  0
C  C23  1  0.97080941  0.11857314  0.65149834  1  0  -0.162872  0  3.697411  0  0  -0.140102  0  3.942993  0  0  -0.14839  0  3.965009  0  0  -0.015418  -0.134861  0  3.928398  0
C  C24  1  0.68070095  0.61857105  0.65149795  1  0  -0.163666  0  3.697078  0  0  -0.141996  0  3.944702  0  0  -0.150118  0  3.966498  0  0  -0.016016  -0.136784  0  3.930139  0
C  C25  1  0.02919203  0.88143027  0.34850110  1  0  -0.162704  0  3.697122  0  0  -0.139888  0  3.942756  0  0  -0.148173  0  3.964766  0  0  -0.015365  -0.134647  0  3.928156  0
C  C26  1  0.14614165  0.32044872  0.38017404  1  0  -0.053324  0  3.72591  0  0  -0.081532  0  3.979093  0  0  -0.078991  0  3.996121  0  0  -0.07946  -0.082842  0  3.9676  0
C  C27  1  0.76586716  0.17945337  0.61984909  1  0  -0.053761  0  3.726633  0  0  -0.082893  0  3.979458  0  0  -0.080368  0  3.996531  0  0  -0.079585  -0.084178  0  3.967997  0
C  C28  1  0.85381950  0.67956719  0.61981981  1  0  -0.053144  0  3.725757  0  0  -0.081442  0  3.978949  0  0  -0.078906  0  3.995968  0  0  -0.07941  -0.082747  0  3.967452  0
C  C29  1  0.23414786  0.82056065  0.38016731  1  0  -0.054145  0  3.726248  0  0  -0.08328  0  3.97912  0  0  -0.080744  0  3.996206  0  0  -0.079797  -0.084564  0  3.967655  0
C  C30  1  0.50054688  0.48232438  0.43725981  1  0  0.057955  0  3.741202  0  0  0.066475  0  3.971189  0  0  0.066721  0  3.996195  0  0  0.00204  0.066385  0  3.954729  0
C  C31  1  0.06330948  0.01770811  0.56271004  1  0  0.057345  0  3.744734  0  0  0.066131  0  3.97312  0  0  0.066444  0  3.998034  0  0  0.001976  0.065974  0  3.956812  0
C  C32  1  0.49944244  0.51766631  0.56272145  1  0  0.057618  0  3.740979  0  0  0.066402  0  3.970659  0  0  0.066643  0  3.995655  0  0  0.00197  0.066312  0  3.954202  0
C  C33  1  0.93671654  0.98229535  0.43729489  1  0  0.057429  0  3.744856  0  0  0.066009  0  3.973428  0  0  0.066321  0  3.998345  0  0  0.001993  0.065852  0  3.957117  0
C  C34  1  0.67918581  0.54820192  0.40747720  1  0  -0.087466  0  3.694662  0  0  -0.112385  0  3.948715  0  0  -0.112695  0  3.966126  0  0  -0.080634  -0.112114  0  3.936929  0
C  C35  1  0.27188211  0.95198428  0.59246907  1  0  -0.087944  0  3.694368  0  0  -0.112948  0  3.948043  0  0  -0.11327  0  3.965447  0  0  -0.080756  -0.112681  0  3.936308  0
C  C36  1  0.32076966  0.45178557  0.59249740  1  0  -0.087522  0  3.694833  0  0  -0.112504  0  3.948883  0  0  -0.112812  0  3.96629  0  0  -0.080692  -0.112238  0  3.9371  0
C  C37  1  0.72815786  0.04802963  0.40753549  1  0  -0.087874  0  3.694236  0  0  -0.112821  0  3.947935  0  0  -0.113148  0  3.965344  0  0  -0.080737  -0.112549  0  3.936195  0
C  C38  1  0.14851290  0.35641213  0.50339637  1  0  -0.054825  0  3.758373  0  0  -0.06819  0  4.0141  0  0  -0.071161  0  4.035418  0  0  -0.086897  -0.066278  0  4.000052  0
C  C39  1  0.64493453  0.14334984  0.49663287  1  0  -0.054152  0  3.759285  0  0  -0.068057  0  4.015286  0  0  -0.071108  0  4.036621  0  0  -0.086938  -0.066107  0  4.001279  0
C  C40  1  0.85142966  0.64358488  0.49658918  1  0  -0.054886  0  3.758117  0  0  -0.068272  0  4.013916  0  0  -0.071247  0  4.035246  0  0  -0.086793  -0.066357  0  3.999862  0
C  C41  1  0.35510223  0.85666729  0.50337961  1  0  -0.053861  0  3.759308  0  0  -0.067732  0  4.015248  0  0  -0.070776  0  4.036563  0  0  -0.086752  -0.06578  0  4.001236  0
S  S42  1  0.30324683  0.33396103  0.19114473  1  0  1.333643  0  5.599808  0  0  1.231763  0  6.117925  0  0  1.280084  0  6.095507  0  0  0.524176  1.198405  0  6.1321  0
S  S43  1  0.11241063  0.16614254  0.80885607  1  0  1.333363  0  5.599071  0  0  1.231284  0  6.11686  0  0  1.279635  0  6.094497  0  0  0.524005  1.197872  0  6.131044  0
S  S44  1  0.69674133  0.66603609  0.80885302  1  0  1.333652  0  5.600229  0  0  1.231779  0  6.118318  0  0  1.280077  0  6.095901  0  0  0.524227  1.198424  0  6.132495  0
S  S45  1  0.88760070  0.83385671  0.19114591  1  0  1.333182  0  5.599156  0  0  1.231057  0  6.116985  0  0  1.279412  0  6.094613  0  0  0.523874  1.197648  0  6.131166  0
O  O46  1  0.26298160  0.46502199  0.16434275  1  0  -0.70081  0  2.006558  0  0  -0.637616  0  2.278835  0  0  -0.662116  0  2.262373  0  0  -0.345774  -0.620114  0  2.289697  0
O  O47  1  0.09919041  0.03510705  0.83572916  1  0  -0.701271  0  2.006427  0  0  -0.638089  0  2.278685  0  0  -0.662619  0  2.262194  0  0  -0.345657  -0.620586  0  2.289555  0
O  O48  1  0.73702517  0.53498029  0.83564713  1  0  -0.700794  0  2.006831  0  0  -0.63765  0  2.279121  0  0  -0.662149  0  2.262665  0  0  -0.345755  -0.620155  0  2.289993  0
O  O49  1  0.90081226  0.96489436  0.16427978  1  0  -0.701157  0  2.006428  0  0  -0.637999  0  2.278722  0  0  -0.662531  0  2.262237  0  0  -0.34565  -0.620497  0  2.289585  0
O  O50  1  0.52870949  0.27964567  0.17062915  1  0  -0.67419  0  1.957067  0  0  -0.615016  0  2.194474  0  0  -0.636344  0  2.179248  0  0  -0.329325  -0.599934  0  2.204442  0
O  O51  1  0.35834792  0.22055640  0.82927347  1  0  -0.672021  0  1.955816  0  0  -0.613029  0  2.193357  0  0  -0.634333  0  2.178081  0  0  -0.328075  -0.597991  0  2.203471  0
O  O52  1  0.47129326  0.72034421  0.82937663  1  0  -0.67409  0  1.957166  0  0  -0.614954  0  2.194579  0  0  -0.63627  0  2.179382  0  0  -0.32938  -0.599876  0  2.20455  0
O  O53  1  0.64166126  0.77944190  0.17073872  1  0  -0.672059  0  1.955861  0  0  -0.612931  0  2.193317  0  0  -0.634236  0  2.178039  0  0  -0.327992  -0.597897  0  2.203431  0
O  O54  1  0.09942118  0.22902022  0.12871446  1  0  -0.709493  0  2.098191  0  0  -0.648451  0  2.384704  0  0  -0.671773  0  2.366568  0  0  -0.344056  -0.631851  0  2.396725  0
O  O55  1  0.97091722  0.27097994  0.87131319  1  0  -0.710385  0  2.098395  0  0  -0.649615  0  2.385008  0  0  -0.672969  0  2.366874  0  0  -0.345067  -0.633093  0  2.397187  0
O  O56  1  0.90057509  0.77097052  0.87127178  1  0  -0.70952  0  2.098076  0  0  -0.648477  0  2.384528  0  0  -0.671793  0  2.366399  0  0  -0.344096  -0.631874  0  2.396545  0
O  O57  1  0.02909677  0.72901412  0.12869181  1  0  -0.710316  0  2.098327  0  0  -0.649563  0  2.384979  0  0  -0.672918  0  2.366844  0  0  -0.34501  -0.633043  0  2.397154  0
O  O58  1  0.67729238  0.42496053  0.03991850  1  0  -0.853014  0  1.905763  0  0  -0.790608  0  2.115982  0  0  -0.812523  0  2.082574  0  0  -0.584902  -0.77478  0  2.13912  0
O  O59  1  0.63746574  0.07504727  0.95998561  1  0  -0.851135  0  1.907799  0  0  -0.788813  0  2.117302  0  0  -0.810738  0  2.083926  0  0  -0.584443  -0.773156  0  2.14053  0
O  O60  1  0.32272059  0.57503877  0.96008864  1  0  -0.852914  0  1.905699  0  0  -0.790519  0  2.116036  0  0  -0.812432  0  2.082638  0  0  -0.584893  -0.774693  0  2.139168  0
O  O61  1  0.36253352  0.92494258  0.04001810  1  0  -0.851168  0  1.907787  0  0  -0.788742  0  2.117358  0  0  -0.81067  0  2.083985  0  0  -0.584427  -0.773076  0  2.140561  0
