# generated using pymatgen
data_ZnH20C20BrN9O4
_symmetry_space_group_name_H-M   'P 1'
_cell_length_a   11.03023721
_cell_length_b   16.61444156
_cell_length_c   17.67555066
_cell_angle_alpha   95.19580865
_cell_angle_beta   90.81765959
_cell_angle_gamma   92.04748759
_symmetry_Int_Tables_number   1
_chemical_formula_structural   ZnH20C20BrN9O4
_chemical_formula_sum   'Zn2 H40 C40 Br2 N18 O8'
_cell_volume   3223.37489945
_cell_formula_units_Z   2
loop_
 _symmetry_equiv_pos_site_id
 _symmetry_equiv_pos_as_xyz
  1  'x, y, z'
loop_
 _atom_site_type_symbol
 _atom_site_label
 _atom_site_symmetry_multiplicity
 _atom_site_fract_x
 _atom_site_fract_y
 _atom_site_fract_z
 _atom_site_occupancy
 _atom_site_pbe_bader_charge
 _atom_site_pbe_bader_spin_density
 _atom_site_pbe_cm5_charge
 _atom_site_pbe_ddec_charge
 _atom_site_pbe_ddec_spin_density
 _atom_site_pbe_ddec_sum_bond_order
 _atom_site_pbe_magmom
Zn  Zn0  1  0.49553541  0.41815979  0.49685901  1  1.292178  0  0.682852  0.855922  0  2.352255  0
Zn  Zn1  1  0.50366037  0.59996998  0.50619827  1  1.289512  0  0.680778  0.860978  0  2.315889  0
H  H2  1  0.53452193  0.00887408  0.59308717  1  0.123228  0  0.103984  0.107513  0  1.014058  0
H  H3  1  0.45722665  0.00861754  0.42534248  1  0.079758  0  0.097894  0.090547  0  1.038229  0
H  H4  1  0.41091790  0.42627912  0.00398386  1  0.087538  0  0.100935  0.10454  0  1.01253  0
H  H5  1  0.59958038  0.56622689  0.00220196  1  0.048768  0  0.097844  0.091241  0  1.026252  0
H  H6  1  0.77172899  0.52239336  0.36366255  1  0.071609  0  0.105016  0.116799  0  1.00744  0
H  H7  1  0.88292441  0.52477741  0.24398410  1  0.06644  0  0.105352  0.10463  0  0.98728  0
H  H8  1  0.22298159  0.50713334  0.36322591  1  0.05465  0  0.102423  0.113739  0  1.012457  0
H  H9  1  0.10915126  0.51518781  0.24366009  1  0.075357  0  0.104725  0.103463  0  0.98827  0
H  H10  1  0.69574230  0.67314750  0.57224354  1  0.513291  0  0.29747  0.318528  0  1.000985  0
H  H11  1  0.75362035  0.76610676  0.60771449  1  0.429463  0  0.302794  0.281235  0  0.973286  0
H  H12  1  0.69844821  0.87424856  0.66093252  1  0.407615  0  0.297458  0.284757  0  0.959833  0
H  H13  1  0.75253271  0.92132058  0.58824002  1  0.407351  0  0.293536  0.277914  0  0.964778  0
H  H14  1  0.31222031  0.66236180  0.44823283  1  0.510833  0  0.296645  0.315233  0  1.002203  0
H  H15  1  0.25991969  0.74962117  0.41750099  1  0.429662  0  0.300212  0.277481  0  0.98495  0
H  H16  1  0.32130909  0.86252700  0.37874567  1  0.382323  0  0.292164  0.273975  0  0.962071  0
H  H17  1  0.24633278  0.88740158  0.45752051  1  0.406926  0  0.290929  0.272034  0  0.961318  0
H  H18  1  0.67621502  0.07809764  0.56503974  1  0.413089  0  0.282588  0.266648  0  1.011995  0
H  H19  1  0.75218728  0.16784807  0.56854196  1  0.419207  0  0.294748  0.28109  0  0.959473  0
H  H20  1  0.68741382  0.27683220  0.62711688  1  0.442725  0  0.302126  0.295956  0  0.949719  0
H  H21  1  0.65402827  0.36151184  0.58669120  1  0.474501  0  0.29321  0.300786  0  0.994328  0
H  H22  1  0.29843090  0.06121576  0.41574685  1  0.404972  0  0.286822  0.277202  0  0.995606  0
H  H23  1  0.29133825  0.13504542  0.35750685  1  0.433107  0  0.297008  0.283335  0  0.953524  0
H  H24  1  0.29952928  0.34502970  0.43631580  1  0.493251  0  0.295754  0.307137  0  0.987339  0
H  H25  1  0.23568205  0.25241426  0.40989505  1  0.443814  0  0.301567  0.292844  0  0.957603  0
H  H26  1  0.49431983  0.35303444  0.31792720  1  0.49692  0  0.283855  0.296258  0  1.012252  0
H  H27  1  0.57234393  0.31244552  0.24279836  1  0.410489  0  0.287838  0.268627  0  0.971095  0
H  H28  1  0.53998229  0.32887909  0.06359421  1  0.410578  0  0.289942  0.274763  0  0.978303  0
H  H29  1  0.47330328  0.29204882  0.13956551  1  0.435635  0  0.289664  0.278253  0  0.993302  0
H  H30  1  0.49055767  0.64606785  0.32464111  1  0.504172  0  0.278604  0.289242  0  1.027699  0
H  H31  1  0.41694528  0.67792124  0.24941502  1  0.377555  0  0.279794  0.257123  0  0.987252  0
H  H32  1  0.45683246  0.63063339  0.06161891  1  0.44037  0  0.288139  0.279072  0  0.99122  0
H  H33  1  0.49041890  0.68463119  0.14661260  1  0.431008  0  0.2897  0.276775  0  0.995771  0
H  H34  1  0.51963757  0.36868798  0.93030860  1  0.411848  0  0.281281  0.263158  0  1.011759  0
H  H35  1  0.52305164  0.32391040  0.84080222  1  0.428325  0  0.287442  0.272191  0  0.979945  0
H  H36  1  0.45649843  0.37241660  0.67012364  1  0.466506  0  0.288634  0.297361  0  0.997397  0
H  H37  1  0.39720193  0.33655672  0.74964772  1  0.417202  0  0.293928  0.284541  0  0.956497  0
H  H38  1  0.60132195  0.66722224  0.95197507  1  0.414338  0  0.288309  0.276792  0  0.987286  0
H  H39  1  0.55516067  0.71314567  0.87516742  1  0.429716  0  0.288543  0.280155  0  0.993082  0
H  H40  1  0.53977937  0.66357676  0.69409187  1  0.456771  0  0.27719  0.286798  0  1.030267  0
H  H41  1  0.63292139  0.69431850  0.76774960  1  0.416211  0  0.280018  0.25893  0  0.986062  0
C  C42  1  0.49495401  0.50308167  0.35398862  1  1.42773  0  0.20917  0.603627  0  4.134281  0
C  C43  1  0.26179669  0.50505512  0.50440066  1  1.611518  0  0.221671  0.617492  0  4.189018  0
C  C44  1  0.50412591  0.51847752  0.64953690  1  1.460825  0  0.206752  0.604703  0  4.146919  0
C  C45  1  0.73537820  0.51002087  0.50230002  1  1.569205  0  0.218497  0.610205  0  4.205883  0
C  C46  1  0.41951982  0.76528976  0.47492684  1  0.92743  0  0.212499  0.350371  0  4.112847  0
C  C47  1  0.41979444  0.85043266  0.47606013  1  0.41481  0  0.047494  0.03605  0  4.020011  0
C  C48  1  0.50550533  0.89666592  0.52329393  1  -0.036086  0  -0.001667  0.01296  0  4.038216  0
C  C49  1  0.59055888  0.85613965  0.56453468  1  0.417963  0  0.053355  0.042969  0  4.053257  0
C  C50  1  0.59115407  0.77077503  0.55520569  1  0.979149  0  0.217733  0.360493  0  4.10417  0
C  C51  1  0.50898785  0.98514886  0.53514099  1  -0.035108  0  -0.095121  -0.119751  0  3.974332  0
C  C52  1  0.48438472  0.03584858  0.48184784  1  -0.160242  0  -0.091335  -0.099592  0  4.010779  0
C  C53  1  0.39811404  0.16383712  0.45244879  1  0.431203  0  0.059429  0.069125  0  4.079631  0
C  C54  1  0.48686655  0.12398134  0.49166809  1  0.039238  0  -0.024262  -0.04755  0  4.067428  0
C  C55  1  0.57644688  0.17120462  0.53482685  1  0.446724  0  0.065401  0.080403  0  4.070338  0
C  C56  1  0.57433740  0.25623945  0.53662773  1  0.963731  0  0.201822  0.336436  0  4.080399  0
C  C57  1  0.40146453  0.24880348  0.45677069  1  0.916683  0  0.200546  0.332627  0  4.098053  0
C  C58  1  0.49423357  0.49688091  0.26992703  1  0.06391  0  -0.048218  -0.260343  0  3.969951  0
C  C59  1  0.49225875  0.56806691  0.23007297  1  0.396315  0  0.068939  0.165286  0  4.049772  0
C  C60  1  0.49470699  0.56189898  0.14991686  1  0.375552  0  0.069342  0.137652  0  4.07614  0
C  C61  1  0.48944107  0.48496126  0.10825021  1  0.026131  0  -0.031503  -0.071986  0  4.037448  0
C  C62  1  0.48908927  0.41478533  0.14761167  1  0.382027  0  0.064941  0.126286  0  4.085137  0
C  C63  1  0.49542207  0.41948338  0.22752868  1  0.399463  0  0.070098  0.16711  0  4.061778  0
C  C64  1  0.47647770  0.47433314  0.02539988  1  -0.045881  0  -0.099464  -0.122259  0  3.987122  0
C  C65  1  0.53493721  0.51994547  0.97633161  1  -0.131683  0  -0.099061  -0.11218  0  4.012865  0
C  C66  1  0.53656398  0.59037756  0.85985994  1  0.385838  0  0.0644  0.131947  0  4.074998  0
C  C67  1  0.52234166  0.51661822  0.89395916  1  0.051678  0  -0.035073  -0.077394  0  4.04971  0
C  C68  1  0.50015667  0.44407576  0.84705146  1  0.385986  0  0.066902  0.130762  0  4.068157  0
C  C69  1  0.48944900  0.44466056  0.76748070  1  0.360962  0  0.071646  0.169417  0  4.062212  0
C  C70  1  0.50753945  0.51845480  0.73312957  1  0.048713  0  -0.050365  -0.257388  0  3.978844  0
C  C71  1  0.53233072  0.59171291  0.78039922  1  0.392631  0  0.06573  0.162648  0  4.055805  0
C  C72  1  0.87168819  0.51076520  0.50394680  1  0.101808  0  -0.017449  -0.107439  0  3.957402  0
C  C73  1  0.93344753  0.51341461  0.43394424  1  0.013894  0  -0.004016  0.063468  0  3.972966  0
C  C74  1  0.93513449  0.50801548  0.57157919  1  -0.017144  0  -0.026149  0.026512  0  3.975409  0
C  C75  1  0.87030318  0.51891586  0.36405521  1  -0.031804  0  -0.087994  -0.121498  0  3.953083  0
C  C76  1  0.93272852  0.52030496  0.29708914  1  -0.046086  0  -0.092872  -0.087993  0  4.042239  0
C  C77  1  0.12586242  0.50742003  0.50482647  1  0.023392  0  -0.02143  -0.118437  0  3.963284  0
C  C78  1  0.06381007  0.50688883  0.57224935  1  -0.128731  0  -0.024298  0.031482  0  3.981137  0
C  C79  1  0.06302504  0.51070588  0.43421737  1  0.010476  0  -0.006322  0.062491  0  3.979991  0
C  C80  1  0.12450834  0.51095010  0.36402619  1  -0.037601  0  -0.095071  -0.133907  0  3.967518  0
C  C81  1  0.06055427  0.51550394  0.29699381  1  -0.033606  0  -0.094172  -0.086959  0  4.048107  0
Br  Br82  1  0.15301711  0.50732205  0.66498842  1  -0.023826  0  0.034446  -0.029318  0  1.473579  0
Br  Br83  1  0.84692368  0.50463315  0.66314614  1  -0.038395  0  0.036215  -0.029491  0  1.491786  0
N  N84  1  0.50525281  0.72604195  0.51235773  1  -1.259352  0  -0.3438  -0.406972  0  3.395852  0
N  N85  1  0.48975468  0.29387746  0.49723838  1  -1.273868  0  -0.347492  -0.408556  0  3.445524  0
N  N86  1  0.67825060  0.73156429  0.59203691  1  -1.254258  0  -0.589689  -0.620617  0  3.335345  0
N  N87  1  0.67612917  0.90162815  0.61372975  1  -1.182771  0  -0.612397  -0.622038  0  3.338487  0
N  N88  1  0.33314560  0.71913372  0.43251584  1  -1.265767  0  -0.594654  -0.627194  0  3.342261  0
N  N89  1  0.32989400  0.88832262  0.43325907  1  -1.147171  0  -0.610033  -0.613238  0  3.320404  0
N  N90  1  0.67043727  0.13903801  0.57593262  1  -1.187019  0  -0.611251  -0.603817  0  3.324825  0
N  N91  1  0.66482421  0.30078948  0.57804817  1  -1.239232  0  -0.600146  -0.632864  0  3.306939  0
N  N92  1  0.29942620  0.12211409  0.41265008  1  -1.188395  0  -0.610052  -0.612622  0  3.314206  0
N  N93  1  0.31427789  0.28638172  0.41734069  1  -1.237509  0  -0.598917  -0.620855  0  3.286777  0
N  N94  1  0.50007730  0.34552417  0.26019181  1  -1.234916  0  -0.621629  -0.630197  0  3.326092  0
N  N95  1  0.47982850  0.33852258  0.10607345  1  -1.21346  0  -0.614161  -0.615361  0  3.350608  0
N  N96  1  0.48867472  0.64669236  0.26689470  1  -1.224914  0  -0.627099  -0.632152  0  3.327056  0
N  N97  1  0.50040137  0.63281420  0.11288431  1  -1.258766  0  -0.613925  -0.617999  0  3.374206  0
N  N98  1  0.48691507  0.36846769  0.87620487  1  -1.196797  0  -0.614839  -0.606515  0  3.33063  0
N  N99  1  0.46567076  0.36903399  0.72712691  1  -1.212263  0  -0.616777  -0.625241  0  3.324971  0
N  N100  1  0.54602051  0.66423389  0.90534988  1  -1.216221  0  -0.618723  -0.622818  0  3.346472  0
N  N101  1  0.55064144  0.66762005  0.75179980  1  -1.211202  0  -0.627408  -0.634522  0  3.3298  0
O  O102  1  0.46632899  0.43942295  0.38719828  1  -1.175557  0  -0.318408  -0.554794  0  2.402058  0
O  O103  1  0.52309532  0.57132321  0.39160424  1  -1.176717  0  -0.317617  -0.550158  0  2.356138  0
O  O104  1  0.31871496  0.57100777  0.49409043  1  -1.183691  0  -0.303269  -0.550668  0  2.392327  0
O  O105  1  0.30839084  0.43786119  0.51230926  1  -1.166322  0  -0.301928  -0.540152  0  2.350443  0
O  O106  1  0.48663533  0.58447063  0.61928307  1  -1.16297  0  -0.3148  -0.539127  0  2.35972  0
O  O107  1  0.52005295  0.45102320  0.60948931  1  -1.193023  0  -0.322464  -0.575268  0  2.435236  0
O  O108  1  0.68102880  0.44292662  0.48350018  1  -1.166278  0  -0.301432  -0.524009  0  2.316572  0
O  O109  1  0.68700206  0.57777842  0.51810580  1  -1.179163  0  -0.307987  -0.556849  0  2.40194  0
