# generated using pymatgen
data_AlH9C24(NO2)6
_symmetry_space_group_name_H-M   'P 1'
_cell_length_a   4.03004284
_cell_length_b   15.85443147
_cell_length_c   15.41712905
_cell_angle_alpha   60.89087552
_cell_angle_beta   77.78042804
_cell_angle_gamma   77.08458065
_symmetry_Int_Tables_number   1
_chemical_formula_structural   AlH9C24(NO2)6
_chemical_formula_sum   'Al1 H9 C24 N6 O12'
_cell_volume   832.72113361
_cell_formula_units_Z   1
loop_
 _symmetry_equiv_pos_site_id
 _symmetry_equiv_pos_as_xyz
  1  'x, y, z'
loop_
 _atom_site_type_symbol
 _atom_site_label
 _atom_site_symmetry_multiplicity
 _atom_site_fract_x
 _atom_site_fract_y
 _atom_site_fract_z
 _atom_site_occupancy
 _atom_site_pbe_bader_charge
 _atom_site_pbe_bader_spin_density
 _atom_site_pbe_cm5_charge
 _atom_site_pbe_ddec_charge
 _atom_site_pbe_ddec_spin_density
 _atom_site_pbe_ddec_sum_bond_order
 _atom_site_pbe_magmom
Al  Al0  1  0.95387016  0.49387929  0.50773173  1  2.505766  0  0.431503  1.611381  0  2.559588  0
H  H1  1  0.40229469  0.75205656  0.50483232  1  0.093161  0  0.121304  0.136206  0  0.972342  0
H  H2  1  0.47708687  0.84961286  0.58516198  1  0.109254  0  0.118246  0.122912  0  0.981016  0
H  H3  1  0.32835895  0.60273220  0.87565233  1  0.134932  0  0.119061  0.13059  0  1.011328  0
H  H4  1  0.43868363  0.04464834  0.58504599  1  0.159798  0  0.120505  0.131423  0  1.008619  0
H  H5  1  0.72045105  0.22507610  0.74238682  1  0.092408  0  0.124234  0.137201  0  0.952084  0
H  H6  1  0.72698858  0.04502773  0.83861230  1  0.131956  0  0.115008  0.118452  0  0.987269  0
H  H7  1  0.57133841  0.86770506  0.04709019  1  0.165267  0  0.121243  0.134123  0  0.994628  0
H  H8  1  0.47627701  0.51349887  0.23449564  1  0.096713  0  0.124453  0.139844  0  0.965365  0
H  H9  1  0.50145515  0.59969966  0.04832013  1  0.096656  0  0.116808  0.121644  0  0.989729  0
C  C10  1  0.49493016  0.58236689  0.35646494  1  1.612402  0  0.281707  0.661809  0  4.077549  0
C  C11  1  0.33359936  0.56198289  0.59472924  1  1.644001  0  0.28045  0.658696  0  4.106335  0
C  C12  1  0.53430555  0.34584145  0.56207490  1  1.630352  0  0.279762  0.661127  0  4.101943  0
C  C13  1  0.56184071  0.92733298  0.77659698  1  1.102002  0  0.258765  0.38556  0  4.01449  0
C  C14  1  0.46891684  0.78750522  0.78424249  1  1.110373  0  0.256971  0.380134  0  4.029642  0
C  C15  1  0.53798993  0.79005967  0.92566957  1  1.11106  0  0.259091  0.384842  0  4.019093  0
C  C16  1  0.38083959  0.72049993  0.58608540  1  0.031718  0  -0.064475  -0.075519  0  3.900308  0
C  C17  1  0.42541391  0.77464879  0.63083425  1  0.003736  0  -0.060292  -0.069559  0  3.907554  0
C  C18  1  0.41196702  0.73263982  0.73525398  1  -0.01029  0  -0.005034  0.00367  0  3.972228  0
C  C19  1  0.34495077  0.63632380  0.79458941  1  0.040745  0  -0.068662  -0.139914  0  3.942606  0
C  C20  1  0.29828114  0.58379155  0.74902860  1  0.165211  0  0.080303  0.043059  0  3.931474  0
C  C21  1  0.32041633  0.62349800  0.64491836  1  0.051083  0  0.017199  -0.03974  0  3.902295  0
C  C22  1  0.50471766  0.08298932  0.61998264  1  -0.044069  0  -0.063464  -0.128257  0  3.928228  0
C  C23  1  0.49993589  0.18332014  0.56747808  1  0.20247  0  0.081566  0.040061  0  3.922674  0
C  C24  1  0.57562946  0.23631300  0.60996999  1  0.068413  0  0.015176  -0.041332  0  3.897793  0
C  C25  1  0.66245059  0.18486671  0.70801789  1  -0.047834  0  -0.070365  -0.088807  0  3.927109  0
C  C26  1  0.66598803  0.08441430  0.76182518  1  -0.002178  0  -0.064422  -0.074886  0  3.926642  0
C  C27  1  0.58435990  0.03272761  0.71838325  1  0.030289  0  -0.002138  0.006137  0  3.970838  0
C  C28  1  0.55605670  0.78988442  0.08700000  1  0.091711  0  -0.064671  -0.137687  0  3.9209  0
C  C29  1  0.53744665  0.74099123  0.19069828  1  0.184993  0  0.086449  0.053526  0  3.913822  0
C  C30  1  0.50828549  0.64133464  0.24540186  1  -0.032547  0  0.010224  -0.056593  0  3.909308  0
C  C31  1  0.49776633  0.59106212  0.19239866  1  0.082542  0  -0.065632  -0.073694  0  3.921677  0
C  C32  1  0.51340397  0.63890638  0.08891527  1  -0.062691  0  -0.06474  -0.08024  0  3.928425  0
C  C33  1  0.54055451  0.73891823  0.03529657  1  0.004883  0  0.001198  0.014846  0  3.960642  0
N  N34  1  0.50524895  0.88208766  0.72757413  1  -1.1903  0  -0.305832  -0.40837  0  3.211871  0
N  N35  1  0.47836968  0.73879996  0.88367108  1  -1.22212  0  -0.307062  -0.408542  0  3.225144  0
N  N36  1  0.58745923  0.88419434  0.87519239  1  -1.202985  0  -0.3084  -0.412007  0  3.195612  0
N  N37  1  0.21522035  0.48371835  0.81372575  1  0.400906  0  0.061191  0.514415  0  4.202301  0
N  N38  1  0.40156081  0.23387494  0.46503341  1  0.392457  0  0.061989  0.514525  0  4.206466  0
N  N39  1  0.52375991  0.80027495  0.24182667  1  0.384023  0  0.062732  0.521043  0  4.201782  0
O  O40  1  0.24666136  0.38388259  0.58988251  1  -1.241966  0  -0.228225  -0.579741  0  2.373592  0
O  O41  1  0.29008856  0.51931964  0.39595991  1  -1.243414  0  -0.226004  -0.589476  0  2.426784  0
O  O42  1  0.10728838  0.58256480  0.53908040  1  -1.238556  0  -0.220833  -0.567943  0  2.366769  0
O  O43  1  0.78512339  0.38955405  0.50723438  1  -1.244151  0  -0.226984  -0.582094  0  2.413027  0
O  O44  1  0.59781470  0.49753292  0.60667270  1  -1.26157  0  -0.235617  -0.604739  0  2.411473  0
O  O45  1  0.69443999  0.59403733  0.40209997  1  -1.24824  0  -0.229421  -0.585318  0  2.388481  0
O  O46  1  0.08899579  0.44749658  0.77481420  1  -0.454052  0  -0.115289  -0.307723  0  1.946607  0
O  O47  1  0.27018045  0.44347107  0.90198166  1  -0.436721  0  -0.126012  -0.31585  0  1.874495  0
O  O48  1  0.44831244  0.32010601  0.41340205  1  -0.43044  0  -0.104776  -0.295734  0  1.974356  0
O  O49  1  0.27764272  0.18708199  0.43774753  1  -0.447496  0  -0.132392  -0.327457  0  1.892572  0
O  O50  1  0.32956173  0.78040199  0.32086946  1  -0.424721  0  -0.114513  -0.308086  0  1.937843  0
O  O51  1  0.70236609  0.86703778  0.20030770  1  -0.444944  0  -0.131884  -0.327916  0  1.885849  0
