# generated using pymatgen
data_Zn2H36C41N11O4
_symmetry_space_group_name_H-M   'P 1'
_cell_length_a   19.85151592
_cell_length_b   20.03991096
_cell_length_c   20.09248150
_cell_angle_alpha   68.81267676
_cell_angle_beta   69.21056351
_cell_angle_gamma   106.76036271
_symmetry_Int_Tables_number   1
_chemical_formula_structural   Zn2H36C41N11O4
_chemical_formula_sum   'Zn4 H72 C82 N22 O8'
_cell_volume   6120.22209528
_cell_formula_units_Z   2
loop_
 _symmetry_equiv_pos_site_id
 _symmetry_equiv_pos_as_xyz
  1  'x, y, z'
loop_
 _atom_site_type_symbol
 _atom_site_label
 _atom_site_symmetry_multiplicity
 _atom_site_fract_x
 _atom_site_fract_y
 _atom_site_fract_z
 _atom_site_occupancy
 _atom_site_pbe_bader_charge
 _atom_site_pbe_bader_spin_density
 _atom_site_pbe_cm5_charge
 _atom_site_pbe_ddec_charge
 _atom_site_pbe_ddec_spin_density
 _atom_site_pbe_ddec_sum_bond_order
 _atom_site_pbe_magmom
Zn  Zn0  1  0.07140381  0.47856819  0.91729274  1  1.19566  0  0.76191  0.739472  0  2.180797  0
Zn  Zn1  1  0.86638688  0.49958668  0.13214091  1  1.221163  0  0.76742  0.732334  0  2.207569  0
Zn  Zn2  1  0.96101357  0.37519271  0.13169765  1  1.179248  0  0.756952  0.67774  0  2.261557  0
Zn  Zn3  1  0.97938767  0.59918324  0.91445432  1  1.190085  0  0.748602  0.648081  0  2.418926  0
H  H4  1  0.11685550  0.36473481  0.86564198  1  0.112684  0  0.113529  0.101915  0  1.04119  0
H  H5  1  0.31891702  0.97596631  0.51209862  1  0.068703  0  0.101889  0.11747  0  0.994972  0
H  H6  1  0.68380701  0.45461393  0.13232591  1  0.094836  0  0.122006  0.111677  0  0.998245  0
H  H7  1  0.24039400  0.50313260  0.91164184  1  0.105012  0  0.114896  0.104146  0  1.022876  0
H  H8  1  0.81889690  0.22998133  0.14802864  1  0.123943  0  0.119049  0.113569  0  1.014019  0
H  H9  1  0.13513572  0.76574240  0.80434100  1  0.117561  0  0.1113  0.102983  0  1.043536  0
H  H10  1  0.02120099  0.67319423  0.71330182  1  0.109524  0  0.121229  0.112528  0  0.981407  0
H  H11  1  0.08242663  0.46670458  0.17408201  1  0.128357  0  0.12172  0.11627  0  1.001509  0
H  H12  1  0.84828295  0.45631641  0.92011912  1  0.127289  0  0.125254  0.125209  0  0.989445  0
H  H13  1  0.09404604  0.31298955  0.17297162  1  0.137001  0  0.120601  0.109487  0  0.993786  0
H  H14  1  0.01579697  0.50052878  0.54571501  1  0.08466  0  0.10122  0.103002  0  0.988039  0
H  H15  1  0.00713456  0.65064761  0.11211059  1  0.103627  0  0.116333  0.102484  0  1.045639  0
H  H16  1  0.23425200  0.73706226  0.26899825  1  0.068149  0  0.102898  0.106488  0  0.989963  0
H  H17  1  0.10206662  0.42738995  0.54291761  1  0.035946  0  0.093737  0.045893  0  0.985773  0
H  H18  1  0.21047900  0.48290681  0.47297840  1  0.018318  0  0.091271  0.041951  0  0.97711  0
H  H19  1  0.20002853  0.38095605  0.42623194  1  0.036618  0  0.093297  0.127645  0  0.99215  0
H  H20  1  0.15968158  0.33228581  0.53574890  1  0.037172  0  0.090379  0.118686  0  1.00484  0
H  H21  1  0.09195176  0.32585035  0.49639573  1  0.058437  0  0.09452  0.129187  0  0.991503  0
H  H22  1  0.04427738  0.75143147  0.33613037  1  0.010717  0  0.090526  0.042807  0  0.98488  0
H  H23  1  0.15208397  0.81777716  0.27046561  1  0.039794  0  0.096706  0.052891  0  0.975106  0
H  H24  1  0.13913587  0.90647891  0.33192637  1  0.050012  0  0.093194  0.127718  0  0.989623  0
H  H25  1  0.07751875  0.89746728  0.28606613  1  0.032526  0  0.090971  0.123064  0  1.027308  0
H  H26  1  0.98992237  0.59596555  0.42421926  1  0.050218  0  0.097733  0.095146  0  1.008253  0
H  H27  1  0.03127895  0.84053070  0.39658297  1  0.052824  0  0.089456  0.120761  0  0.999335  0
H  H28  1  0.39284830  0.77219330  0.53118546  1  0.422652  0  0.293928  0.287161  0  0.969203  0
H  H29  1  0.48715079  0.81592991  0.44858407  1  0.418266  0  0.300093  0.291394  0  0.949602  0
H  H30  1  0.46479434  0.14785868  0.30117958  1  0.414211  0  0.296886  0.285335  0  0.970267  0
H  H31  1  0.37079267  0.10318693  0.38446375  1  0.411552  0  0.300781  0.28984  0  0.950964  0
H  H32  1  0.22714839  0.23304688  0.84289954  1  0.425579  0  0.295  0.288207  0  0.963555  0
H  H33  1  0.25702214  0.18957235  0.78743839  1  0.429297  0  0.300156  0.290545  0  0.956891  0
H  H34  1  0.05529702  0.83642318  0.13001556  1  0.428996  0  0.28976  0.281511  0  0.980581  0
H  H35  1  0.03421726  0.88219054  0.18566256  1  0.421619  0  0.295562  0.283059  0  0.975178  0
H  H36  1  0.13724486  0.08741605  0.79267626  1  0.062723  0  0.093206  0.054171  0  0.985584  0
H  H37  1  0.26008175  0.64168661  0.38984359  1  0.04764  0  0.098237  0.099042  0  0.995601  0
H  H38  1  0.09604941  0.97959907  0.84956608  1  0.047852  0  0.088425  0.038026  0  1.008517  0
H  H39  1  0.21006634  0.98976751  0.73101405  1  0.045298  0  0.093483  0.130124  0  0.994498  0
H  H40  1  0.15388865  0.03360216  0.69581234  1  0.005054  0  0.089157  0.117954  0  1.002551  0
H  H41  1  0.25164387  0.09742652  0.67455761  1  0.043209  0  0.091882  0.125878  0  0.993554  0
H  H42  1  0.16914137  0.13404938  0.10013050  1  0.059945  0  0.096822  0.060186  0  1.001995  0
H  H43  1  0.17272615  0.04609267  0.16161823  1  0.051608  0  0.094275  0.051895  0  0.974423  0
H  H44  1  0.04108121  0.00883455  0.28588117  1  0.031636  0  0.087764  0.118605  0  1.010385  0
H  H45  1  0.12373776  0.10479629  0.24631681  1  0.037324  0  0.093086  0.125512  0  0.993623  0
H  H46  1  0.04494679  0.10113953  0.22279319  1  0.027765  0  0.087026  0.118788  0  1.019142  0
H  H47  1  0.56474075  0.22792915  0.33595669  1  0.095544  0  0.103299  0.076418  0  0.991857  0
H  H48  1  0.45117214  0.28240752  0.15761946  1  0.055458  0  0.098181  0.09981  0  1.002354  0
H  H49  1  0.57957513  0.29342887  0.23820363  1  0.054449  0  0.097958  0.057513  0  0.981523  0
H  H50  1  0.55698191  0.38917411  0.28702171  1  0.013333  0  0.089451  0.119341  0  1.002172  0
H  H51  1  0.47234361  0.28865110  0.35709456  1  0.044579  0  0.093214  0.126347  0  0.999958  0
H  H52  1  0.54627790  0.32517773  0.38313614  1  0.047331  0  0.094772  0.129934  0  0.98737  0
H  H53  1  0.36094607  0.68784827  0.75387060  1  0.045529  0  0.106365  0.069103  0  0.953364  0
H  H54  1  0.36619618  0.70760927  0.65808727  1  0.068239  0  0.096008  0.055758  0  1.027387  0
H  H55  1  0.36263786  0.57106462  0.68743406  1  0.019496  0  0.09064  0.122375  0  0.999113  0
H  H56  1  0.45055435  0.64058780  0.67739406  1  0.022199  0  0.097757  0.131381  0  0.990076  0
H  H57  1  0.36716227  0.55880573  0.77785028  1  0.037001  0  0.093413  0.125856  0  1.002598  0
H  H58  1  0.18972378  0.53795928  0.63848707  1  0.040712  0  0.100489  0.062921  0  0.974785  0
H  H59  1  0.45874241  0.42033367  0.89160071  1  0.065061  0  0.102869  0.105515  0  0.993635  0
H  H60  1  0.09734185  0.46499027  0.65852703  1  0.057781  0  0.100353  0.061136  0  0.978233  0
H  H61  1  0.11644295  0.35116990  0.74463118  1  0.054139  0  0.097528  0.134886  0  0.987852  0
H  H62  1  0.19974740  0.41476605  0.63979698  1  0.024912  0  0.093672  0.124527  0  1.002416  0
H  H63  1  0.21115254  0.42562485  0.71977704  1  0.022974  0  0.091562  0.123185  0  1.002043  0
H  H64  1  0.99284724  0.65502402  0.24842802  1  0.061738  0  0.101367  0.064126  0  0.976276  0
H  H65  1  0.93115008  0.56759360  0.35048480  1  0.061114  0  0.102456  0.06555  0  0.981697  0
H  H66  1  0.80930082  0.59128572  0.36708833  1  0.057102  0  0.095476  0.130773  0  0.988155  0
H  H67  1  0.89235515  0.67667725  0.34572144  1  0.019943  0  0.093492  0.123403  0  1.002371  0
H  H68  1  0.87198706  0.67996817  0.26533341  1  0.05692  0  0.093385  0.127745  0  0.994117  0
H  H69  1  0.96788691  0.13993378  0.15584969  1  0.451259  0  0.305872  0.303995  0  0.945532  0
H  H70  1  0.32506320  0.28193209  0.15992164  1  0.076526  0  0.100988  0.103219  0  0.995514  0
H  H71  1  0.90209955  0.17395859  0.18947061  1  0.422339  0  0.303691  0.295618  0  0.955004  0
H  H72  1  0.05872404  0.86332811  0.85253830  1  0.43255  0  0.303605  0.298826  0  0.968634  0
H  H73  1  0.98946699  0.79728353  0.84628953  1  0.419279  0  0.313427  0.308265  0  0.925514  0
H  H74  1  0.58467714  0.42069508  0.88949602  1  0.077366  0  0.104767  0.108665  0  0.988952  0
H  H75  1  0.56539951  0.96301818  0.34992581  1  0.073177  0  0.10158  0.117314  0  0.995484  0
C  C76  1  0.07379577  0.33329443  0.93191615  1  0.400954  0  0.00408  -0.050564  0  4.00405  0
C  C77  1  0.19984447  0.63104290  0.39759361  1  -0.042736  0  -0.08604  -0.15828  0  3.651938  0
C  C78  1  0.06385580  0.55216194  0.48340561  1  -0.084187  0  -0.08535  -0.152685  0  3.660235  0
C  C79  1  0.18550619  0.68447283  0.33049183  1  -0.052859  0  -0.083391  -0.15533  0  3.641463  0
C  C80  1  0.10293783  0.61470058  0.61192982  1  -0.415862  0  -0.062661  -0.094119  0  4.254351  0
C  C81  1  0.06388366  0.55727801  0.26183303  1  -0.387458  0  -0.065289  -0.098372  0  4.239709  0
C  C82  1  0.11700604  0.68528815  0.40043193  1  0.591117  0  0.088995  0.216672  0  3.746112  0
C  C83  1  0.13270207  0.55175825  0.41422631  1  0.597436  0  0.087682  0.216188  0  3.746648  0
C  C84  1  0.13080928  0.63071326  0.46859443  1  0.108137  0  0.000936  0.099212  0  3.814694  0
C  C85  1  0.11771438  0.60539531  0.34660043  1  0.080604  0  0.000981  0.098227  0  3.810204  0
C  C86  1  0.12652714  0.63319985  0.53962629  1  0.089573  0  -0.07454  -0.148758  0  4.118409  0
C  C87  1  0.00278807  0.67208296  0.05675475  1  0.462402  0  0.018632  -0.007554  0  3.976132  0
C  C88  1  0.09843119  0.58507712  0.29264199  1  0.049093  0  -0.066982  -0.136492  0  4.122687  0
C  C89  1  0.38201294  0.31188057  0.10081812  1  -0.049418  0  -0.090092  -0.131531  0  3.982885  0
C  C90  1  0.52753382  0.38987184  0.94858127  1  -0.038658  0  -0.08752  -0.127025  0  3.976527  0
C  C91  1  0.73560983  0.46294492  0.08089954  1  0.469295  0  0.019854  -0.029519  0  3.954785  0
C  C92  1  0.19357567  0.45975947  0.97672508  1  0.420591  0  0.011974  -0.042659  0  3.959697  0
C  C93  1  0.38399387  0.35422352  0.02596368  1  0.131067  0  -0.005071  0.143596  0  4.127536  0
C  C94  1  0.52761959  0.35464093  0.02346358  1  0.0205  0  -0.006843  0.136187  0  4.12493  0
C  C95  1  0.45723945  0.38979825  0.94977187  1  -0.040935  0  -0.088326  -0.130069  0  3.977629  0
C  C96  1  0.45235284  0.31209389  0.09949568  1  0.040627  0  -0.09104  -0.131326  0  3.993062  0
C  C97  1  0.31664508  0.36596615  0.02812295  1  -0.253819  0  -0.063787  -0.145404  0  4.158364  0
C  C98  1  0.73573243  0.43576254  0.02507805  1  0.119334  0  -0.029967  0.03669  0  4.186599  0
C  C99  1  0.60203443  0.37082023  0.02309859  1  -0.243183  0  -0.060476  -0.137271  0  4.152385  0
C  C100  1  0.66644690  0.39739136  0.02183566  1  -0.145413  0  -0.055226  -0.096105  0  4.176426  0
C  C101  1  0.26134994  0.38289594  0.03253396  1  -0.130242  0  -0.051446  -0.086213  0  4.185621  0
C  C102  1  0.51009671  0.96457273  0.38514945  1  -0.030228  0  -0.108043  -0.249294  0  3.975519  0
C  C103  1  0.37264702  0.97329772  0.47513040  1  -0.010821  0  -0.107145  -0.248145  0  3.973431  0
C  C104  1  0.50802876  0.03882692  0.35475053  1  0.099724  0  -0.017943  0.048871  0  4.131176  0
C  C105  1  0.37874455  0.90194352  0.50985116  1  0.102509  0  -0.016619  0.049376  0  4.135197  0
C  C106  1  0.43472525  0.04097258  0.39726046  1  0.384764  0  0.080462  0.229716  0  4.089931  0
C  C107  1  0.44586669  0.89530668  0.46082128  1  0.38517  0  0.080684  0.232963  0  4.094437  0
C  C108  1  0.58010988  0.11288352  0.29020627  1  -0.051016  0  -0.063193  -0.131325  0  4.157427  0
C  C109  1  0.19703617  0.40113506  0.03920929  1  0.105489  0  -0.03247  0.033781  0  4.203145  0
C  C110  1  0.32186134  0.83895974  0.59336895  1  -0.287056  0  -0.057245  -0.116957  0  4.160833  0
C  C111  1  0.27815562  0.78639137  0.66737732  1  -0.075505  0  -0.055959  -0.086151  0  4.195552  0
C  C112  1  0.64315356  0.17803784  0.24975111  1  -0.302486  0  -0.056242  -0.086784  0  4.199777  0
C  C113  1  0.17587325  0.04037998  0.90916091  1  0.506781  0  0.059002  0.081515  0  4.060517  0
C  C114  1  0.11131567  0.02928485  0.06318876  1  0.53873  0  0.061481  0.084262  0  4.053899  0
C  C115  1  0.79650617  0.26527615  0.17064178  1  0.468121  0  0.012288  -0.030758  0  3.974807  0
C  C116  1  0.15261856  0.71826858  0.80939742  1  0.409437  0  0.012821  -0.025527  0  3.943997  0
C  C117  1  0.13632429  0.96403818  0.98292693  1  0.094852  0  -0.02676  -0.051841  0  4.149167  0
C  C118  1  0.14064255  0.10271025  0.99009619  1  0.122377  0  -0.026128  -0.051456  0  4.166626  0
C  C119  1  0.10803666  0.95940651  0.06108510  1  0.400766  0  0.07601  0.147273  0  4.110372  0
C  C120  1  0.71521038  0.24978984  0.21456426  1  0.026064  0  -0.039253  -0.074793  0  4.185876  0
C  C121  1  0.17938227  0.11021116  0.91120840  1  0.398472  0  0.075161  0.141632  0  4.119465  0
C  C122  1  0.11485274  0.89142977  0.98105989  1  -0.176441  0  -0.055698  -0.092097  0  4.180433  0
C  C123  1  0.12266276  0.16453523  0.99451118  1  0.104372  0  -0.063339  -0.113016  0  4.195943  0
C  C124  1  0.09515514  0.21206695  0.99388641  1  -0.502677  0  -0.052265  -0.080047  0  4.171937  0
C  C125  1  0.08216013  0.82583669  0.98699593  1  -0.214835  0  -0.063514  -0.109661  0  4.18432  0
C  C126  1  0.03105431  0.62152366  0.73904821  1  0.437076  0  0.01598  -0.027517  0  3.988247  0
C  C127  1  0.03274853  0.48152086  0.19022911  1  0.440194  0  0.0177  -0.013678  0  3.966581  0
C  C128  1  0.72522284  0.31873855  0.22414723  1  1.075825  0  0.19707  0.309452  0  4.064938  0
C  C129  1  0.21202201  0.64343267  0.79000543  1  1.073523  0  0.189876  0.293274  0  4.084412  0
C  C130  1  0.06481186  0.52278711  0.76146329  1  1.007365  0  0.185032  0.291146  0  4.079146  0
C  C131  1  0.22195563  0.72309874  0.75022875  1  0.134171  0  -0.040608  -0.076175  0  4.207982  0
C  C132  1  0.94515909  0.52481405  0.23523066  1  1.035769  0  0.189753  0.290867  0  4.093356  0
C  C133  1  0.81922664  0.46234013  0.97306046  1  0.439435  0  0.021499  -0.02707  0  3.912823  0
C  C134  1  0.11893071  0.36256812  0.11065284  1  0.386809  0  0.017987  -0.042633  0  3.946878  0
C  C135  1  0.99567473  0.25058198  0.06905600  1  0.948303  0  0.195997  0.344187  0  4.107347  0
C  C136  1  0.01258415  0.74535293  0.93718605  1  0.896395  0  0.200842  0.348827  0  4.091806  0
C  C137  1  0.05932366  0.26227283  0.99693089  1  0.144857  0  -0.043192  -0.067651  0  4.192274  0
C  C138  1  0.03869720  0.75323968  0.99237884  1  0.170526  0  -0.042366  -0.072359  0  4.186124  0
C  C139  1  0.15163126  0.44239784  0.48339996  1  0.424772  0  -0.067501  0.096959  0  3.9446  0
C  C140  1  0.15080122  0.36586287  0.48544037  1  -0.08205  0  -0.244037  -0.398584  0  3.990007  0
C  C141  1  0.09813076  0.79469611  0.33084437  1  0.435685  0  -0.068431  0.098264  0  3.932255  0
C  C142  1  0.07118642  0.58929339  0.69653405  1  0.090358  0  -0.045621  -0.085602  0  4.217173  0
C  C143  1  0.08567474  0.86381118  0.33691694  1  -0.080949  0  -0.244139  -0.39893  0  3.981701  0
C  C144  1  0.15320648  0.03769740  0.80176015  1  0.377822  0  -0.071863  0.085529  0  3.924866  0
C  C145  1  0.19465443  0.03960174  0.72116196  1  -0.055677  0  -0.245705  -0.398141  0  3.995689  0
C  C146  1  0.13157783  0.07159326  0.15457469  1  0.383831  0  -0.070631  0.082662  0  3.911275  0
C  C147  1  0.08202907  0.07122126  0.23198455  1  -0.055742  0  -0.245108  -0.391221  0  3.988594  0
C  C148  1  0.58560605  0.29138887  0.29130287  1  0.370465  0  -0.067466  0.082598  0  3.893587  0
C  C149  1  0.53792509  0.32617764  0.33167174  1  -0.050221  0  -0.242891  -0.393531  0  3.985641  0
C  C150  1  0.34570615  0.65888678  0.72023230  1  0.401587  0  -0.063428  0.091994  0  3.884017  0
C  C151  1  0.38341881  0.60383744  0.71579085  1  -0.018662  0  -0.241053  -0.39367  0  3.981093  0
C  C152  1  0.13831065  0.47563406  0.68310536  1  0.404837  0  -0.061973  0.097428  0  3.891496  0
C  C153  1  0.01860990  0.52521014  0.23044471  1  0.122882  0  -0.041273  -0.081997  0  4.200691  0
C  C154  1  0.16788777  0.41297804  0.69821674  1  -0.035169  0  -0.24194  -0.40107  0  3.980724  0
C  C155  1  0.92961895  0.60633732  0.29648402  1  0.382215  0  -0.064561  0.090398  0  3.895602  0
C  C156  1  0.87224661  0.64046355  0.31983727  1  -0.065784  0  -0.242863  -0.398069  0  3.982866  0
C  C157  1  0.04973121  0.60617657  0.41737694  1  -0.058755  0  -0.083778  -0.148116  0  3.655272  0
N  N158  1  0.02381776  0.36117902  0.96300591  1  -0.832682  0  -0.302534  -0.203154  0  3.632296  0
N  N159  1  0.14208844  0.59648211  0.86429906  1  -0.818266  0  -0.292242  -0.285923  0  3.585902  0
N  N160  1  0.02431854  0.51639771  0.83510492  1  -0.788384  0  -0.283979  -0.331443  0  3.432003  0
N  N161  1  0.91950847  0.48462161  0.20088983  1  -0.785515  0  -0.292652  -0.293188  0  3.539808  0
N  N162  1  0.86453358  0.50226739  0.99627953  1  -0.814758  0  -0.285518  -0.216292  0  3.575847  0
N  N163  1  0.07426259  0.39586639  0.09032541  1  -0.809316  0  -0.284833  -0.168542  0  3.675712  0
N  N164  1  0.97548170  0.31027069  0.04878419  1  -0.763492  0  -0.276313  -0.341368  0  3.327238  0
N  N165  1  0.96491350  0.66609405  0.96706787  1  -0.819927  0  -0.306409  -0.31697  0  3.46195  0
N  N166  1  0.44918200  0.82233837  0.49256948  1  -1.199024  0  -0.604838  -0.630587  0  3.305238  0
N  N167  1  0.42928051  0.11268528  0.36432054  1  -1.19445  0  -0.600271  -0.623788  0  3.317822  0
N  N168  1  0.21190309  0.18296072  0.83771603  1  -1.209498  0  -0.605188  -0.611514  0  3.33712  0
N  N169  1  0.95833842  0.62035056  0.04272344  1  -0.820939  0  -0.286584  -0.235534  0  3.56977  0
N  N170  1  0.07533485  0.88659615  0.13436601  1  -1.183935  0  -0.604528  -0.603821  0  3.333459  0
N  N171  1  0.96080206  0.18953997  0.15067363  1  -1.228605  0  -0.593563  -0.643466  0  3.296553  0
N  N172  1  0.03392976  0.80680683  0.86101329  1  -1.193879  0  -0.586215  -0.631791  0  3.294479  0
N  N173  1  0.81230765  0.50253705  0.06314330  1  -0.807964  0  -0.281881  -0.198828  0  3.570383  0
N  N174  1  0.11947619  0.45566705  0.00803469  1  -0.761398  0  -0.264937  -0.232664  0  3.449791  0
N  N175  1  0.84878281  0.33567985  0.15684736  1  -0.800801  0  -0.295155  -0.192463  0  3.702838  0
N  N176  1  0.10433011  0.64211056  0.87650361  1  -0.76671  0  -0.27945  -0.196303  0  3.501326  0
N  N177  1  0.00378807  0.57828427  0.82036178  1  -0.814233  0  -0.286578  -0.185721  0  3.63909  0
N  N178  1  0.97378267  0.45721970  0.17312093  1  -0.831462  0  -0.280966  -0.212282  0  3.564528  0
N  N179  1  0.80483674  0.36925557  0.18918785  1  -0.784461  0  -0.278615  -0.301673  0  3.464236  0
O  O180  1  0.14000783  0.48459570  0.41687294  1  -1.062374  0  -0.209183  -0.248805  0  2.484467  0
O  O181  1  0.10962429  0.75239989  0.39766806  1  -1.071176  0  -0.210805  -0.252702  0  2.479443  0
O  O182  1  0.20908868  0.04613933  0.83248239  1  -1.067784  0  -0.210981  -0.231423  0  2.485574  0
O  O183  1  0.07531006  0.02159643  0.14048871  1  -1.074562  0  -0.211176  -0.239534  0  2.499069  0
O  O184  1  0.67144540  0.34043266  0.26104192  1  -1.093929  0  -0.18109  -0.224854  0  2.53657  0
O  O185  1  0.25700313  0.60859516  0.76518027  1  -1.104428  0  -0.189572  -0.239835  0  2.520144  0
O  O186  1  0.09351721  0.46901344  0.76181374  1  -1.080256  0  -0.178828  -0.218852  0  2.542364  0
O  O187  1  0.89985760  0.55743180  0.26479935  1  -1.090365  0  -0.183367  -0.224627  0  2.528406  0
