# generated using pymatgen
data_NdH15C23N4O7
_symmetry_space_group_name_H-M   'P 1'
_cell_length_a   7.46143733
_cell_length_b   16.94419315
_cell_length_c   19.75206612
_cell_angle_alpha   104.35625569
_cell_angle_beta   89.99266639
_cell_angle_gamma   102.71974510
_symmetry_Int_Tables_number   1
_chemical_formula_structural   NdH15C23N4O7
_chemical_formula_sum   'Nd4 H60 C92 N16 O28'
_cell_volume   2355.93972781
_cell_formula_units_Z   4
loop_
 _symmetry_equiv_pos_site_id
 _symmetry_equiv_pos_as_xyz
  1  'x, y, z'
loop_
 _atom_site_type_symbol
 _atom_site_label
 _atom_site_symmetry_multiplicity
 _atom_site_fract_x
 _atom_site_fract_y
 _atom_site_fract_z
 _atom_site_occupancy
 _atom_site_pbe_bader_charge
 _atom_site_pbe_bader_spin_density
 _atom_site_pbe_cm5_charge
 _atom_site_pbe_ddec_charge
 _atom_site_pbe_ddec_spin_density
 _atom_site_pbe_ddec_sum_bond_order
 _atom_site_pbe_magmom
Nd  Nd0  1  0.73352069  0.95727632  0.52345764  1  2.250981  0  1.50251  2.140837  0  2.09668  0
Nd  Nd1  1  0.77635111  0.04282187  0.97653199  1  2.252081  0  1.502566  2.140696  0  2.09846  0
Nd  Nd2  1  0.26648196  0.04272348  0.47654231  1  2.251026  0  1.502487  2.140779  0  2.096744  0
Nd  Nd3  1  0.22364887  0.95717794  0.02346796  1  2.252029  0  1.502577  2.140685  0  2.098465  0
H  H4  1  0.46669909  0.81601801  0.57712291  1  0.638709  0  0.285689  0.342587  0  1.023737  0
H  H5  1  0.65083372  0.18407403  0.92277670  1  0.636595  0  0.285702  0.342996  0  1.023306  0
H  H6  1  0.53330286  0.18398305  0.42287731  1  0.638698  0  0.285687  0.342605  0  1.023698  0
H  H7  1  0.34916626  0.81592577  0.07722274  1  0.636594  0  0.285698  0.342992  0  1.023314  0
H  H8  1  0.40246908  0.90248780  0.61092898  1  0.625483  0  0.306936  0.390654  0  0.936531  0
H  H9  1  0.50022139  0.09755532  0.88905252  1  0.649227  0  0.307323  0.39135  0  0.935668  0
H  H10  1  0.59753286  0.09751326  0.38907124  1  0.625497  0  0.306935  0.390661  0  0.936527  0
H  H11  1  0.49977622  0.90244511  0.11094706  1  0.649246  0  0.307329  0.391375  0  0.935616  0
H  H12  1  0.58152238  0.05497039  0.70292161  1  0.117768  0  0.115851  0.116359  0  0.987291  0
H  H13  1  0.52633813  0.94508168  0.79701683  1  0.085793  0  0.115286  0.115311  0  0.987787  0
H  H14  1  0.41847326  0.94502879  0.29707770  1  0.117801  0  0.115827  0.116336  0  0.98732  0
H  H15  1  0.47366350  0.05491875  0.20298174  1  0.08564  0  0.115293  0.115338  0  0.987758  0
H  H16  1  0.79581060  0.12036354  0.81028718  1  0.122178  0  0.113823  0.135343  0  1.021217  0
H  H17  1  0.67516383  0.87959785  0.68963381  1  0.120534  0  0.113531  0.135747  0  1.020478  0
H  H18  1  0.20418576  0.87963439  0.18971187  1  0.122196  0  0.113852  0.135377  0  1.021157  0
H  H19  1  0.32484285  0.12040196  0.31036715  1  0.120676  0  0.113531  0.135738  0  1.020492  0
H  H20  1  0.99585876  0.26298468  0.82022501  1  0.071713  0  0.104418  0.06853  0  0.996084  0
H  H21  1  0.73293093  0.73706048  0.67980626  1  0.068252  0  0.104177  0.068183  0  0.996754  0
H  H22  1  0.00413965  0.73701200  0.17977478  1  0.071514  0  0.104425  0.068549  0  0.996099  0
H  H23  1  0.26707338  0.26293995  0.32019433  1  0.068241  0  0.10417  0.068189  0  0.996749  0
H  H24  1  0.85533780  0.47634638  0.60668518  1  0.059051  0  0.106033  0.072293  0  0.978596  0
H  H25  1  0.37897363  0.52382518  0.89339557  1  0.076125  0  0.106752  0.073592  0  0.979053  0
H  H26  1  0.14465846  0.52365405  0.39331592  1  0.059197  0  0.105997  0.072264  0  0.978662  0
H  H27  1  0.62102398  0.47617525  0.10660451  1  0.076138  0  0.106741  0.07362  0  0.979  0
H  H28  1  0.02719437  0.43716706  0.49826773  1  0.066047  0  0.098382  0.098988  0  1.028886  0
H  H29  1  0.59037259  0.56293448  0.00166858  1  0.068505  0  0.098307  0.098655  0  1.028372  0
H  H30  1  0.97280520  0.56283462  0.50173414  1  0.066297  0  0.098397  0.099033  0  1.02887  0
H  H31  1  0.40962471  0.43706532  0.99833086  1  0.068693  0  0.098274  0.098606  0  1.028384  0
H  H32  1  0.07030420  0.28925558  0.46062930  1  0.107642  0  0.108148  0.107425  0  0.999401  0
H  H33  1  0.78114011  0.71092673  0.03937875  1  0.076139  0  0.108443  0.10765  0  0.999404  0
H  H34  1  0.92969939  0.71074611  0.53937308  1  0.107608  0  0.108138  0.107417  0  0.999389  0
H  H35  1  0.21885883  0.28907370  0.96061981  1  0.076111  0  0.108439  0.107657  0  0.999416  0
H  H36  1  0.42163070  0.21694277  0.86566443  1  0.08477  0  0.110438  0.068239  0  1.037413  0
H  H37  1  0.20444929  0.78296850  0.63419248  1  0.072878  0  0.110436  0.068317  0  1.037328  0
H  H38  1  0.57837093  0.78305766  0.13433616  1  0.084788  0  0.110458  0.068249  0  1.0374  0
H  H39  1  0.79555935  0.21703256  0.36580926  1  0.072856  0  0.110437  0.068312  0  1.037344  0
H  H40  1  0.37398159  0.28019180  0.76662348  1  0.064661  0  0.113273  0.119689  0  0.97596  0
H  H41  1  0.09372958  0.71969025  0.73323156  1  0.059744  0  0.113179  0.119683  0  0.975322  0
H  H42  1  0.62601704  0.71980800  0.23337597  1  0.064654  0  0.113286  0.119707  0  0.975956  0
H  H43  1  0.90627442  0.28030956  0.26676890  1  0.059746  0  0.113176  0.119666  0  0.975379  0
H  H44  1  0.20076881  0.18649009  0.65687476  1  0.124085  0  0.121196  0.126016  0  0.975058  0
H  H45  1  0.01460512  0.81342455  0.84308091  1  0.124524  0  0.120891  0.125267  0  0.976551  0
H  H46  1  0.79923054  0.81350846  0.34312593  1  0.124059  0  0.121185  0.126013  0  0.97499  0
H  H47  1  0.98539486  0.18657525  0.15691955  1  0.124538  0  0.120882  0.125253  0  0.976569  0
H  H48  1  0.43739706  0.27119305  0.53472141  1  0.169507  0  0.12604  0.109918  0  1.021017  0
H  H49  1  0.16644839  0.72881974  0.96539961  1  0.175652  0  0.125796  0.109807  0  1.020291  0
H  H50  1  0.56260684  0.72880926  0.46527958  1  0.169491  0  0.126024  0.109909  0  1.021032  0
H  H51  1  0.83355293  0.27118007  0.03459933  1  0.175716  0  0.125815  0.109834  0  1.020324  0
H  H52  1  0.39661680  0.41506766  0.57843328  1  0.090592  0  0.113117  0.12087  0  0.994837  0
H  H53  1  0.98184392  0.58494865  0.92161250  1  0.100273  0  0.113095  0.120615  0  0.995229  0
H  H54  1  0.60338546  0.58493402  0.42156707  1  0.090605  0  0.113101  0.120901  0  0.994821  0
H  H55  1  0.01815708  0.41505053  0.07838580  1  0.100311  0  0.113089  0.120562  0  0.995294  0
H  H56  1  0.63252838  0.46749477  0.38916159  1  0.069342  0  0.111849  0.120642  0  1.000976  0
H  H57  1  0.16518052  0.53237567  0.11082502  1  0.066187  0  0.111963  0.120722  0  0.999993  0
H  H58  1  0.36747088  0.53250628  0.61083913  1  0.069398  0  0.111836  0.120664  0  1.00094  0
H  H59  1  0.83481780  0.46762351  0.88917378  1  0.066175  0  0.11195  0.120707  0  1.000002  0
H  H60  1  0.65752811  0.32113389  0.35327882  1  0.077654  0  0.114444  0.080186  0  1.008323  0
H  H61  1  0.33643760  0.67875746  0.14679254  1  0.082575  0  0.114349  0.079615  0  1.008998  0
H  H62  1  0.34246981  0.67886716  0.64672140  1  0.077653  0  0.114445  0.080125  0  1.008383  0
H  H63  1  0.66356175  0.32124110  0.85320613  1  0.083029  0  0.114328  0.079558  0  1.009019  0
C  C64  1  0.67519527  0.11584941  0.70935437  1  -0.083022  0  -0.062444  -0.040517  0  3.951875  0
C  C65  1  0.55914618  0.88421328  0.79059591  1  -0.045565  0  -0.061609  -0.038633  0  3.949879  0
C  C66  1  0.32480037  0.88414977  0.29064444  1  -0.083054  0  -0.062453  -0.040478  0  3.951907  0
C  C67  1  0.44085576  0.11578778  0.20940481  1  -0.045615  0  -0.061582  -0.038627  0  3.949813  0
C  C68  1  0.79167592  0.15223872  0.76902446  1  -0.039798  0  -0.087023  -0.12998  0  3.954321  0
C  C69  1  0.63924127  0.84776165  0.73092958  1  0.025086  0  -0.087419  -0.131111  0  3.953447  0
C  C70  1  0.20832405  0.84776108  0.23097650  1  -0.039787  0  -0.08701  -0.129958  0  3.954204  0
C  C71  1  0.36076304  0.15223878  0.26907000  1  0.025164  0  -0.087419  -0.131083  0  3.953565  0
C  C72  1  0.90445897  0.23092854  0.77371747  1  0.523909  0  0.03457  0.086112  0  4.045523  0
C  C73  1  0.67347523  0.76911426  0.72629063  1  0.478405  0  0.035053  0.086575  0  4.047385  0
C  C74  1  0.09553975  0.76906876  0.22628195  1  0.523966  0  0.034628  0.086165  0  4.045435  0
C  C75  1  0.32652680  0.23088429  0.27371007  1  0.478417  0  0.035096  0.08664  0  4.047373  0
C  C76  1  0.80455690  0.23454147  0.66414280  1  0.514371  0  0.129538  0.169739  0  3.935748  0
C  C77  1  0.56998077  0.76558432  0.83588938  1  0.490846  0  0.129155  0.169366  0  3.935521  0
C  C78  1  0.19544142  0.76545771  0.33585803  1  0.5144  0  0.129511  0.169716  0  3.935817  0
C  C79  1  0.43001518  0.23441548  0.16410956  1  0.490951  0  0.129205  0.16954  0  3.935441  0
C  C80  1  0.67598175  0.15781766  0.65657468  1  0.016326  0  -0.007365  -0.115094  0  3.941716  0
C  C81  1  0.51811354  0.84229215  0.84342052  1  0.014442  0  -0.007714  -0.11557  0  3.941438  0
C  C82  1  0.32401822  0.84218214  0.34342477  1  0.01631  0  -0.007385  -0.115205  0  3.941875  0
C  C83  1  0.48188778  0.15770765  0.15657741  1  0.014347  0  -0.007729  -0.11565  0  3.941519  0
C  C84  1  0.84424910  0.28249777  0.60907463  1  0.590889  0  0.136534  0.183164  0  3.914955  0
C  C85  1  0.56169544  0.71765227  0.89097461  1  0.603435  0  0.136391  0.182552  0  3.917479  0
C  C86  1  0.15575181  0.71750392  0.39092674  1  0.591001  0  0.13654  0.183234  0  3.914941  0
C  C87  1  0.43829917  0.28234754  0.10902433  1  0.603326  0  0.136364  0.182437  0  3.9176  0
C  C88  1  0.88150945  0.41362538  0.58884554  1  0.512824  0  0.037837  0.089472  0  4.045422  0
C  C89  1  0.46793916  0.58653244  0.91119103  1  0.510076  0  0.03704  0.087165  0  4.047092  0
C  C90  1  0.11848682  0.58637505  0.41115505  1  0.512365  0  0.037885  0.089543  0  4.045523  0
C  C91  1  0.53206051  0.41346674  0.08880828  1  0.510103  0  0.037038  0.087048  0  4.047064  0
C  C92  1  0.97413699  0.39170948  0.52808724  1  -0.055772  0  -0.099928  -0.157305  0  4.05006  0
C  C93  1  0.58263294  0.60842287  0.97189839  1  -0.002512  0  -0.099925  -0.156307  0  4.048998  0
C  C94  1  0.02586062  0.60829095  0.47191386  1  -0.055507  0  -0.099925  -0.157338  0  4.050074  0
C  C95  1  0.41736641  0.39157568  0.02810028  1  -0.002693  0  -0.099864  -0.156148  0  4.048978  0
C  C96  1  0.99726485  0.31019989  0.50706268  1  -0.023987  0  -0.072632  -0.055591  0  3.983176  0
C  C97  1  0.68716822  0.68994871  0.99295418  1  -0.065533  0  -0.072518  -0.055583  0  3.983575  0
C  C98  1  0.00273606  0.68980180  0.49293868  1  -0.024191  0  -0.07263  -0.055555  0  3.983267  0
C  C99  1  0.31283278  0.31005047  0.00704361  1  -0.065761  0  -0.07255  -0.055692  0  3.983759  0
C  C100  1  0.92788882  0.25293865  0.54623401  1  -0.073732  0  -0.003444  -0.100515  0  3.855016  0
C  C101  1  0.67489264  0.74721037  0.95381479  1  -0.055898  0  -0.003271  -0.099626  0  3.856559  0
C  C102  1  0.07211446  0.74706241  0.45376722  1  -0.073852  0  -0.003455  -0.10062  0  3.85517  0
C  C103  1  0.32510662  0.25279068  0.04618390  1  -0.055644  0  -0.003252  -0.099585  0  3.856611  0
C  C104  1  0.53874148  0.11914256  0.59612566  1  1.582704  0  0.207696  0.613404  0  4.23227  0
C  C105  1  0.41961221  0.88098035  0.90389878  1  1.597026  0  0.2074  0.613621  0  4.230209  0
C  C106  1  0.46125849  0.88085724  0.40387378  1  1.582691  0  0.2077  0.613486  0  4.232271  0
C  C107  1  0.58038437  0.11902070  0.09610042  1  1.597043  0  0.20743  0.613679  0  4.230285  0
C  C108  1  0.95490316  0.16513866  0.52017518  1  1.613202  0  0.235202  0.654266  0  4.148887  0
C  C109  1  0.78951102  0.83503279  0.97988862  1  1.580855  0  0.235507  0.653853  0  4.155081  0
C  C110  1  0.04509910  0.83486302  0.47982618  1  1.613038  0  0.235258  0.654315  0  4.14886  0
C  C111  1  0.21048288  0.16496827  0.02010957  1  1.580652  0  0.235501  0.653893  0  4.154607  0
C  C112  1  0.35204316  0.17809622  0.81606329  1  0.477261  0  0.041968  0.083632  0  4.00002  0
C  C113  1  0.17384790  0.82179806  0.68382636  1  0.486568  0  0.042603  0.083632  0  3.999018  0
C  C114  1  0.64795847  0.82190422  0.18393730  1  0.477242  0  0.041975  0.08363  0  4.000008  0
C  C115  1  0.82615507  0.17820237  0.31617373  1  0.486197  0  0.042587  0.083584  0  3.999092  0
C  C116  1  0.32435869  0.21338036  0.76147646  1  0.021535  0  -0.080979  -0.13103  0  3.996048  0
C  C117  1  0.11091730  0.78650624  0.73840717  1  0.012852  0  -0.081719  -0.131393  0  3.995315  0
C  C118  1  0.67564231  0.78661882  0.23852386  1  0.021803  0  -0.080951  -0.130974  0  3.996134  0
C  C119  1  0.88908432  0.21349419  0.26159342  1  0.01305  0  -0.081715  -0.131344  0  3.995377  0
C  C120  1  0.22870689  0.16139924  0.70040446  1  -0.021058  0  -0.05416  -0.02824  0  3.915669  0
C  C121  1  0.06746954  0.83848933  0.79951789  1  -0.010644  0  -0.052836  -0.02623  0  3.914768  0
C  C122  1  0.77129412  0.83859994  0.29959536  1  -0.021335  0  -0.054207  -0.028301  0  3.915836  0
C  C123  1  0.93252878  0.16150985  0.20048193  1  -0.010646  0  -0.052831  -0.026264  0  3.914783  0
C  C124  1  0.16364004  0.07636266  0.69611065  1  -0.038434  0  0.0064  -0.085164  0  3.873829  0
C  C125  1  0.08734226  0.92352240  0.80380850  1  -0.016102  0  0.005495  -0.087072  0  3.8738  0
C  C126  1  0.83635931  0.92363590  0.30389004  1  -0.038754  0  0.006386  -0.085232  0  3.873958  0
C  C127  1  0.91265772  0.07647741  0.19619196  1  -0.016115  0  0.005496  -0.087023  0  3.873709  0
C  C128  1  0.20807664  0.04551386  0.75239353  1  0.500884  0  0.13624  0.167745  0  3.961474  0
C  C129  1  0.16256608  0.95439497  0.74751512  1  0.536354  0  0.13628  0.167423  0  3.961667  0
C  C130  1  0.79192468  0.95448594  0.24760743  1  0.500835  0  0.13628  0.167837  0  3.961368  0
C  C131  1  0.83743554  0.04560546  0.25248496  1  0.536383  0  0.136257  0.167373  0  3.961492  0
C  C132  1  0.03468726  0.02442373  0.63548180  1  1.604598  0  0.221121  0.628989  0  4.197711  0
C  C133  1  0.01040092  0.97544363  0.86448061  1  1.588037  0  0.221985  0.630609  0  4.19398  0
C  C134  1  0.96531343  0.97557483  0.36451890  1  1.604828  0  0.221153  0.629129  0  4.197659  0
C  C135  1  0.98959741  0.02455555  0.13551921  1  1.588156  0  0.222039  0.630685  0  4.193811  0
C  C136  1  0.47743437  0.31663653  0.50378092  1  0.527294  0  0.058113  0.105808  0  3.92057  0
C  C137  1  0.16106182  0.68332915  0.99629178  1  0.524404  0  0.058136  0.105265  0  3.919292  0
C  C138  1  0.52256819  0.68336578  0.49621956  1  0.527142  0  0.058102  0.105788  0  3.920646  0
C  C139  1  0.83894052  0.31667003  0.00370702  1  0.524367  0  0.058122  0.105221  0  3.919337  0
C  C140  1  0.45601347  0.39826955  0.52803132  1  -0.088263  0  -0.07787  -0.167869  0  3.941405  0
C  C141  1  0.05804255  0.60170614  0.97200400  1  -0.100682  0  -0.077586  -0.166984  0  3.940714  0
C  C142  1  0.54398776  0.60173276  0.47196966  1  -0.088297  0  -0.077882  -0.168011  0  3.941467  0
C  C143  1  0.94195846  0.39829304  0.02799430  1  -0.100497  0  -0.077536  -0.166857  0  3.940719  0
C  C144  1  0.51038055  0.45631630  0.48796463  1  -0.036022  0  0.007268  0.09034  0  3.991409  0
C  C145  1  0.05422462  0.54364291  0.01204752  1  0.007868  0  0.006943  0.089677  0  3.994002  0
C  C146  1  0.48962139  0.54368476  0.51203559  1  0.003065  0  0.007304  0.090532  0  3.991345  0
C  C147  1  0.94577639  0.45635627  0.98795078  1  0.045609  0  0.006932  0.089665  0  3.994029  0
C  C148  1  0.58627249  0.42721793  0.42390377  1  -0.015677  0  -0.084504  -0.179284  0  3.955764  0
C  C149  1  0.15924731  0.57267781  0.07610366  1  -0.114142  0  -0.083377  -0.178218  0  3.954069  0
C  C150  1  0.41373110  0.57278376  0.57609658  1  -0.015616  0  -0.084473  -0.179372  0  3.95583  0
C  C151  1  0.84075235  0.42732137  0.92389464  1  -0.11403  0  -0.083403  -0.178274  0  3.954056  0
C  C152  1  0.60196752  0.34455067  0.40351025  1  0.473597  0  0.04413  0.078996  0  4.019068  0
C  C153  1  0.25756702  0.65535950  0.09654356  1  0.528193  0  0.044033  0.079228  0  4.017723  0
C  C154  1  0.39803411  0.65544976  0.59648933  1  0.47349  0  0.044193  0.079142  0  4.019112  0
C  C155  1  0.74243367  0.34463905  0.90345460  1  0.527743  0  0.044044  0.079325  0  4.017696  0
N  N156  1  0.91432268  0.27080103  0.72262510  1  -1.191273  0  -0.330251  -0.322229  0  3.332114  0
N  N157  1  0.64353273  0.72929630  0.77741836  1  -1.202595  0  -0.329538  -0.321667  0  3.331287  0
N  N158  1  0.08567667  0.72919752  0.27737509  1  -1.191181  0  -0.330325  -0.322332  0  3.332129  0
N  N159  1  0.35646684  0.27070538  0.22258199  1  -1.202556  0  -0.329582  -0.321794  0  3.331185  0
N  N160  1  0.82194063  0.36144558  0.62919122  1  -1.179462  0  -0.32349  -0.304425  0  3.310568  0
N  N161  1  0.46041058  0.63871948  0.87086674  1  -1.178688  0  -0.323346  -0.303708  0  3.312945  0
N  N162  1  0.17805698  0.63855485  0.37080988  1  -1.179536  0  -0.323511  -0.304483  0  3.310642  0
N  N163  1  0.53958640  0.36127970  0.12913207  1  -1.178743  0  -0.323349  -0.303654  0  3.31305  0
N  N164  1  0.30048640  0.09580558  0.81153560  1  -1.196263  0  -0.301214  -0.286164  0  3.321846  0
N  N165  1  0.20462748  0.90410006  0.68836253  1  -1.189408  0  -0.301356  -0.286203  0  3.322542  0
N  N166  1  0.69951625  0.90419423  0.18846486  1  -1.196278  0  -0.301254  -0.286241  0  3.321841  0
N  N167  1  0.79537817  0.09590037  0.31163856  1  -1.18925  0  -0.301312  -0.286135  0  3.322409  0
N  N168  1  0.54864562  0.28940603  0.44220756  1  -1.225435  0  -0.302088  -0.240624  0  3.407266  0
N  N169  1  0.25937708  0.71053570  0.05788458  1  -1.227265  0  -0.30241  -0.240463  0  3.406438  0
N  N170  1  0.45135498  0.71059503  0.55779367  1  -1.225367  0  -0.302094  -0.240592  0  3.407245  0
N  N171  1  0.74062361  0.28946286  0.94211358  1  -1.227364  0  -0.3024  -0.240477  0  3.40647  0
O  O172  1  0.49773850  0.03837547  0.57380998  1  -1.235079  0  -0.427909  -0.733961  0  2.337468  0
O  O173  1  0.45928252  0.96173307  0.92623676  1  -1.245284  0  -0.427582  -0.733386  0  2.337249  0
O  O174  1  0.50226147  0.96162434  0.42618845  1  -1.235047  0  -0.42788  -0.733977  0  2.337405  0
O  O175  1  0.54071540  0.03826798  0.07376144  1  -1.245288  0  -0.427587  -0.733415  0  2.337384  0
O  O176  1  0.45610508  0.16340510  0.57024851  1  -1.184564  0  -0.352092  -0.600959  0  2.237307  0
O  O177  1  0.29275920  0.83666635  0.92979539  1  -1.173613  0  -0.352096  -0.60097  0  2.236595  0
O  O178  1  0.54389252  0.83659533  0.42975106  1  -1.184479  0  -0.352092  -0.600952  0  2.237325  0
O  O179  1  0.70723903  0.16333534  0.07020395  1  -1.173597  0  -0.352139  -0.601046  0  2.236598  0
O  O180  1  0.82420819  0.10618928  0.52713382  1  -1.194007  0  -0.367016  -0.646981  0  2.364834  0
O  O181  1  0.71785094  0.89395816  0.97285334  1  -1.191464  0  -0.36808  -0.647416  0  2.36904  0
O  O182  1  0.17579344  0.89381115  0.47286727  1  -1.193725  0  -0.367022  -0.646947  0  2.364834  0
O  O183  1  0.28214068  0.10604102  0.02714496  1  -1.191381  0  -0.368056  -0.647368  0  2.368884  0
O  O184  1  0.10572139  0.15690385  0.49224286  1  -1.190605  0  -0.38542  -0.650613  0  2.213898  0
O  O185  1  0.94845354  0.84328434  0.00790430  1  -1.188493  0  -0.385315  -0.650505  0  2.217542  0
O  O186  1  0.89428055  0.84309721  0.50775837  1  -1.190615  0  -0.385439  -0.650633  0  2.213953  0
O  O187  1  0.05154098  0.15671797  0.99209314  1  -1.188395  0  -0.385348  -0.650559  0  2.217225  0
O  O188  1  0.07713259  0.03046153  0.57378116  1  -1.214427  0  -0.434513  -0.748979  0  2.465569  0
O  O189  1  0.04690144  0.96942981  0.92616570  1  -1.214163  0  -0.434366  -0.749627  0  2.464366  0
O  O190  1  0.92287284  0.96953577  0.42622029  1  -1.214159  0  -0.43451  -0.749058  0  2.465641  0
O  O191  1  0.95309326  0.03056749  0.07383372  1  -1.214162  0  -0.434419  -0.749678  0  2.464348  0
O  O192  1  0.87992621  0.98238149  0.64616709  1  -1.176308  0  -0.347804  -0.60152  0  2.195009  0
O  O193  1  0.89760328  0.01747575  0.85381597  1  -1.169776  0  -0.348123  -0.601942  0  2.193098  0
O  O194  1  0.12007242  0.01761831  0.35383286  1  -1.176516  0  -0.347796  -0.601561  0  2.19497  0
O  O195  1  0.10239669  0.98252406  0.14618347  1  -1.169884  0  -0.348144  -0.601979  0  2.193065  0
O  O196  1  0.49640690  0.87872195  0.58328285  1  -1.280786  0  -0.647009  -0.843066  0  2.159791  0
O  O197  1  0.61795744  0.12137512  0.91664626  1  -1.301747  0  -0.647296  -0.844716  0  2.158729  0
O  O198  1  0.50359535  0.12127973  0.41671649  1  -1.280797  0  -0.64699  -0.843083  0  2.159788  0
O  O199  1  0.38203954  0.87862406  0.08335356  1  -1.301757  0  -0.647281  -0.84471  0  2.158744  0
