# generated using pymatgen
data_MnH4CSeNO3
_symmetry_space_group_name_H-M   'P 1'
_cell_length_a   4.92815712
_cell_length_b   6.03035401
_cell_length_c   15.28528648
_cell_angle_alpha   90.00012506
_cell_angle_beta   90.00005179
_cell_angle_gamma   89.99989119
_symmetry_Int_Tables_number   1
_chemical_formula_structural   MnH4CSeNO3
_chemical_formula_sum   'Mn4 H16 C4 Se4 N4 O12'
_cell_volume   454.25627585
_cell_formula_units_Z   4
loop_
 _symmetry_equiv_pos_site_id
 _symmetry_equiv_pos_as_xyz
  1  'x, y, z'
loop_
 _atom_site_type_symbol
 _atom_site_label
 _atom_site_symmetry_multiplicity
 _atom_site_fract_x
 _atom_site_fract_y
 _atom_site_fract_z
 _atom_site_occupancy
 _atom_site_hle17_ddec_charge
 _atom_site_hle17_ddec_spin_density
 _atom_site_hle17_ddec_sum_bond_order
 _atom_site_hle17_magmom
 _atom_site_hse06_10hf_ddec_charge
 _atom_site_hse06_10hf_ddec_spin_density
 _atom_site_hse06_10hf_ddec_sum_bond_order
 _atom_site_hse06_10hf_magmom
 _atom_site_hse06_ddec_charge
 _atom_site_hse06_ddec_spin_density
 _atom_site_hse06_ddec_sum_bond_order
 _atom_site_hse06_magmom
 _atom_site_pbe_cm5_charge
 _atom_site_pbe_ddec_charge
 _atom_site_pbe_ddec_spin_density
 _atom_site_pbe_ddec_sum_bond_order
 _atom_site_pbe_magmom
Mn  Mn0  1  0.83507394  0.99999933  0.23281597  1  1.204609  4.762506  1.779899  4.663  1.053155  4.681578  2.269693  4.524  1.108845  4.730994  2.198556  4.591  0.558043  1.009696  4.630681  2.321975  4.457
Mn  Mn1  1  0.16492885  0.00000022  0.76718355  1  1.204565  4.762513  1.779941  4.663  1.053122  4.681573  2.269743  4.524  1.108811  4.73099  2.198604  4.591  0.55803  1.009662  4.630676  2.32203  4.457
Mn  Mn2  1  0.33507228  0.50000095  0.26718402  1  1.204598  4.762507  1.779912  4.663  1.05316  4.681571  2.269684  4.524  1.108846  4.730986  2.198549  4.591  0.558035  1.009687  4.630672  2.321994  4.457
Mn  Mn3  1  0.66492848  0.50000026  0.73281616  1  1.204581  4.762511  1.779942  4.663  1.053152  4.681569  2.269727  4.524  1.108839  4.730985  2.19859  4.591  0.558041  1.009687  4.630671  2.322021  4.457
H  H4  1  0.41006609  0.13635357  0.13602113  1  0.293044  -0.000606  0.936654  0.001  0.279395  0.000492  1.001554  0.002  0.285759  0.000128  0.99708  0.001  0.284239  0.274856  0.00084  1.00458  0.002
H  H5  1  0.58994571  0.13636529  0.86397872  1  0.293019  -0.0006  0.936548  0.001  0.279429  0.000492  1.001388  0.002  0.285793  0.000128  0.996914  0.001  0.28422  0.274891  0.00084  1.004414  0.002
H  H6  1  0.91005830  0.36363399  0.36397843  1  0.293029  -0.00061  0.936519  0.001  0.279444  0.000492  1.001353  0.002  0.285807  0.000128  0.996879  0.001  0.28424  0.274905  0.00084  1.004378  0.002
H  H7  1  0.08993467  0.36363862  0.63601966  1  0.293  -0.000611  0.936619  0.001  0.279426  0.000492  1.001425  0.002  0.28579  0.000128  0.996954  0.001  0.284253  0.274888  0.00084  1.004452  0.002
H  H8  1  0.58993264  0.86364266  0.86397971  1  0.293  -0.000605  0.936686  0.001  0.279416  0.000492  1.0015  0.002  0.28578  0.000128  0.997029  0.001  0.284255  0.274877  0.00084  1.004525  0.002
H  H9  1  0.41005302  0.86362929  0.13602276  1  0.292985  -0.00061  0.936559  0.001  0.279394  0.000492  1.001399  0.002  0.285754  0.000129  0.996942  0.001  0.284195  0.274856  0.00084  1.004424  0.002
H  H10  1  0.08994448  0.63636390  0.63602175  1  0.292981  -0.000604  0.936616  0.001  0.279399  0.000492  1.001441  0.002  0.285758  0.000128  0.996981  0.001  0.284231  0.27486  0.00084  1.004465  0.002
H  H11  1  0.91006406  0.63635927  0.36397921  1  0.292977  -0.000603  0.936698  0.001  0.2794  0.000492  1.001513  0.002  0.285761  0.000128  0.997045  0.001  0.284244  0.274862  0.00084  1.004536  0.002
H  H12  1  0.74596430  0.14637234  0.02072468  1  0.030966  8e-05  0.963109  0.0  0.043152  0.000956  1.043007  0.0  0.043757  0.00047  1.041528  0.0  0.091846  0.042655  0.001534  1.044377  0.001
H  H13  1  0.25404544  0.14638515  0.97927714  1  0.031007  5.6e-05  0.963174  0.0  0.043223  0.000955  1.043003  0.0  0.043833  0.00047  1.041521  0.0  0.091884  0.042725  0.001533  1.044377  0.001
H  H14  1  0.24595830  0.35362376  0.47927744  1  0.030926  6.6e-05  0.96312  0.0  0.043115  0.000956  1.043042  0.0  0.043722  0.00047  1.041564  0.0  0.091839  0.042616  0.001534  1.044414  0.001
H  H15  1  0.75403470  0.35362681  0.52072326  1  0.030937  5.9e-05  0.963149  0.0  0.043144  0.000956  1.043011  0.0  0.04375  0.00047  1.041535  0.0  0.091843  0.042646  0.001534  1.044381  0.001
H  H16  1  0.25403240  0.85362555  0.97927550  1  0.030951  6.4e-05  0.963107  0.0  0.043124  0.000956  1.043008  0.0  0.043732  0.00047  1.041528  0.0  0.091822  0.042627  0.001534  1.044378  0.001
H  H17  1  0.74595328  0.85361274  0.02072304  1  0.030994  7.9e-05  0.963184  0.0  0.043212  0.000956  1.043027  0.0  0.043821  0.00047  1.041544  0.0  0.09187  0.042712  0.001534  1.044399  0.001
H  H18  1  0.75404245  0.64638574  0.52072404  1  0.030993  6.7e-05  0.963154  0.0  0.043222  0.000955  1.042975  0.0  0.04383  0.00047  1.041495  0.0  0.091866  0.042723  0.001533  1.044346  0.001
H  H19  1  0.24595795  0.64638269  0.47927561  1  0.030905  7.6e-05  0.963064  0.0  0.043136  0.000956  1.042947  0.0  0.043744  0.00047  1.041469  0.0  0.091848  0.042636  0.001534  1.044319  0.001
C  C20  1  0.61739391  0.99998570  0.03269342  1  0.071619  0.002678  3.672758  0.003  0.019335  0.005405  3.932  0.004  0.023557  0.003885  3.945809  0.003  -0.073948  0.016463  0.006967  3.922037  0.006
C  C21  1  0.38260279  0.00000887  0.96730675  1  0.071609  0.002779  3.672759  0.003  0.019354  0.005407  3.932001  0.004  0.023584  0.003879  3.945782  0.003  -0.073946  0.01648  0.006967  3.922042  0.006
C  C22  1  0.11739484  0.49999665  0.46730650  1  0.07182  0.002709  3.672447  0.003  0.019466  0.005404  3.931833  0.004  0.023701  0.003882  3.945608  0.003  -0.073927  0.01659  0.006967  3.921871  0.006
C  C23  1  0.88260186  0.50000621  0.53269302  1  0.071561  0.002772  3.672696  0.003  0.019275  0.005405  3.932005  0.004  0.023509  0.003879  3.945783  0.003  -0.073964  0.0164  0.006968  3.922042  0.006
Se  Se24  1  0.40749565  0.00000234  0.37701229  1  1.16799  0.043526  3.53602  0.035  1.095142  0.070815  4.007495  0.051  1.138664  0.052098  3.986478  0.04  0.606715  1.059908  0.091896  4.024999  0.063
Se  Se25  1  0.59250713  0.99999887  0.62298788  1  1.167909  0.043523  3.535989  0.035  1.095072  0.070816  4.007477  0.051  1.138592  0.052096  3.98646  0.04  0.606652  1.059821  0.091898  4.025004  0.063
Se  Se26  1  0.90749498  0.50000181  0.12298791  1  1.167948  0.04351  3.535964  0.035  1.095084  0.070817  4.007449  0.051  1.13861  0.052095  3.986424  0.04  0.606659  1.059838  0.0919  4.024969  0.063
Se  Se27  1  0.09250578  0.49999940  0.87701226  1  1.167907  0.043532  3.535932  0.035  1.095072  0.070818  4.007417  0.051  1.138596  0.052097  3.986394  0.04  0.606658  1.059824  0.091902  4.024947  0.063
N  N28  1  0.53017402  0.00000159  0.12434318  1  -0.674807  0.033325  3.117576  0.019  -0.626908  0.037906  3.37467  0.018  -0.649297  0.033389  3.372934  0.014  -0.63744  -0.609688  0.042364  3.374883  0.021
N  N29  1  0.46982471  0.99999795  0.87565765  1  -0.674763  0.033272  3.117561  0.019  -0.626923  0.037907  3.374595  0.018  -0.649309  0.033386  3.372863  0.014  -0.637467  -0.609705  0.042363  3.374809  0.021
N  N30  1  0.03017549  0.50000311  0.37565691  1  -0.674787  0.033295  3.117477  0.019  -0.626946  0.037909  3.374575  0.018  -0.649332  0.033389  3.372846  0.014  -0.637487  -0.609725  0.042364  3.374788  0.021
N  N31  1  0.96982324  0.50000307  0.62434261  1  -0.6747  0.033289  3.117502  0.019  -0.626876  0.03791  3.374566  0.018  -0.649264  0.03339  3.372834  0.014  -0.637481  -0.609657  0.042365  3.374779  0.021
O  O32  1  0.07150795  0.00000086  0.35182397  1  -0.779984  0.030529  1.807936  0.016  -0.715461  0.040794  2.106084  0.022  -0.744951  0.03489  2.086237  0.018  -0.401647  -0.693052  0.046844  2.120006  0.028
O  O33  1  0.92849483  0.99999868  0.64817555  1  -0.779853  0.030535  1.807814  0.016  -0.715371  0.040793  2.105996  0.022  -0.744861  0.034888  2.086154  0.018  -0.401582  -0.692962  0.046842  2.119918  0.028
O  O34  1  0.57150532  0.50000046  0.14817614  1  -0.779939  0.030531  1.807839  0.016  -0.715402  0.040792  2.105973  0.022  -0.744893  0.034889  2.086132  0.018  -0.401584  -0.692992  0.046843  2.1199  0.028
O  O35  1  0.42849544  0.49999908  0.85182404  1  -0.779853  0.030527  1.807799  0.016  -0.715373  0.040792  2.10598  0.022  -0.744867  0.03489  2.086141  0.018  -0.401578  -0.692962  0.046842  2.119905  0.028
O  O36  1  0.54635248  0.21540900  0.31400869  1  -0.818698  0.064232  1.835444  0.035  -0.735199  0.080302  2.142878  0.044  -0.767951  0.071776  2.119703  0.037  -0.401931  -0.709176  0.088249  2.158476  0.051
O  O37  1  0.45364898  0.21541004  0.68598992  1  -0.818758  0.064248  1.83551  0.035  -0.735258  0.080307  2.142936  0.044  -0.768013  0.071784  2.119767  0.037  -0.401933  -0.709246  0.088254  2.158562  0.051
O  O38  1  0.04635192  0.28458905  0.18599011  1  -0.818748  0.064251  1.835451  0.035  -0.735243  0.080305  2.14288  0.044  -0.767996  0.071781  2.119706  0.037  -0.401938  -0.709242  0.088254  2.158533  0.051
O  O39  1  0.95364733  0.28459002  0.81400857  1  -0.818671  0.064229  1.835358  0.035  -0.735174  0.080301  2.142793  0.044  -0.767922  0.071774  2.119609  0.037  -0.401934  -0.709165  0.088248  2.158421  0.051
O  O40  1  0.45364828  0.78459055  0.68599149  1  -0.818701  0.064231  1.835439  0.035  -0.7352  0.080303  2.142868  0.044  -0.767949  0.071777  2.119689  0.037  -0.401933  -0.709177  0.08825  2.158464  0.051
O  O41  1  0.54635381  0.78458785  0.31401091  1  -0.818739  0.064252  1.835416  0.035  -0.735247  0.080306  2.142862  0.044  -0.767999  0.07178  2.119688  0.037  -0.401944  -0.709251  0.088254  2.158521  0.051
O  O42  1  0.95364883  0.71541050  0.81401007  1  -0.818757  0.06424  1.835498  0.035  -0.735257  0.080306  2.142922  0.044  -0.768011  0.071781  2.119748  0.037  -0.401935  -0.70924  0.088253  2.158541  0.051
O  O43  1  0.04635342  0.71540787  0.18599096  1  -0.818676  0.064245  1.83543  0.035  -0.735181  0.080302  2.142885  0.044  -0.767931  0.071778  2.119704  0.037  -0.40193  -0.709152  0.088248  2.158477  0.051
