# generated using pymatgen
data_CuH10(C2O)4
_symmetry_space_group_name_H-M   'P 1'
_cell_length_a   5.14623798
_cell_length_b   9.90560356
_cell_length_c   10.77967933
_cell_angle_alpha   76.71780622
_cell_angle_beta   80.01412199
_cell_angle_gamma   85.78040538
_symmetry_Int_Tables_number   1
_chemical_formula_structural   CuH10(C2O)4
_chemical_formula_sum   'Cu2 H20 C16 O8'
_cell_volume   526.38353690
_cell_formula_units_Z   2
loop_
 _symmetry_equiv_pos_site_id
 _symmetry_equiv_pos_as_xyz
  1  'x, y, z'
loop_
 _atom_site_type_symbol
 _atom_site_label
 _atom_site_symmetry_multiplicity
 _atom_site_fract_x
 _atom_site_fract_y
 _atom_site_fract_z
 _atom_site_occupancy
 _atom_site_hle17_ddec_charge
 _atom_site_hle17_ddec_spin_density
 _atom_site_hle17_ddec_sum_bond_order
 _atom_site_hle17_magmom
 _atom_site_hse06_10hf_ddec_charge
 _atom_site_hse06_10hf_ddec_spin_density
 _atom_site_hse06_10hf_ddec_sum_bond_order
 _atom_site_hse06_10hf_magmom
 _atom_site_hse06_ddec_charge
 _atom_site_hse06_ddec_spin_density
 _atom_site_hse06_ddec_sum_bond_order
 _atom_site_hse06_magmom
 _atom_site_pbe_cm5_charge
 _atom_site_pbe_ddec_charge
 _atom_site_pbe_ddec_spin_density
 _atom_site_pbe_ddec_sum_bond_order
 _atom_site_pbe_magmom
Cu  Cu0  1  0.20454295  0.06961285  0.48265839  1  0.891082  0.635657  1.83259  0.457  0.889139  0.775168  2.234593  0.611  0.990892  0.871853  2.152914  0.714  0.67755  0.823827  0.667784  2.295977  0.517
Cu  Cu1  1  0.79546129  0.93039433  0.51733855  1  0.891185  -0.635668  1.83273  -0.457  0.889215  -0.775183  2.234829  -0.611  0.990956  -0.871852  2.153047  -0.714  0.67752  0.823878  -0.667798  2.296123  -0.517
H  H2  1  0.68285457  0.96461915  0.92580142  1  0.069362  0.001069  0.92546  0.001  0.082346  0.000707  0.982815  0.001  0.083592  0.000499  0.983002  0.001  0.099935  0.081087  0.000694  0.982873  0.001
H  H3  1  0.31714059  0.03537863  0.07419913  1  0.069375  -0.001067  0.925477  -0.001  0.082334  -0.000707  0.982838  -0.001  0.083579  -0.000498  0.983024  -0.001  0.099946  0.081078  -0.000694  0.982893  -0.001
H  H4  1  0.13966832  0.16394935  0.86232000  1  0.074774  0.000231  0.933133  0.0  0.092523  0.000164  0.99335  0.0  0.093325  0.000109  0.993531  0.0  0.093105  0.091551  0.000181  0.993745  0.0
H  H5  1  0.86032910  0.83604534  0.13767823  1  0.074787  -0.000232  0.933023  0.0  0.092506  -0.000164  0.993294  0.0  0.093308  -0.000109  0.993476  0.0  0.093081  0.09153  -0.000181  0.993689  0.0
H  H6  1  0.80111827  0.21386165  0.87315524  1  0.069416  7.4e-05  0.924262  0.0  0.088058  -4.6e-05  0.980548  0.0  0.087693  -3.1e-05  0.981939  0.0  0.09214  0.087451  -1.6e-05  0.9804  0.0
H  H7  1  0.19887913  0.78613303  0.12684484  1  0.069398  -7.3e-05  0.924176  0.0  0.088048  4.7e-05  0.980472  0.0  0.08768  3.1e-05  0.981869  0.0  0.092144  0.087438  1.6e-05  0.980324  0.0
H  H8  1  0.27922482  0.90138822  0.89167074  1  0.079008  -3.9e-05  0.93694  0.0  0.094645  -2.9e-05  1.000611  0.0  0.095936  -1.3e-05  1.00028  0.0  0.092319  0.09357  -8.1e-05  1.001129  0.0
H  H9  1  0.72077037  0.09860958  0.10832609  1  0.07904  4e-05  0.936877  0.0  0.094682  2.8e-05  1.000556  0.0  0.095972  1.3e-05  1.000225  0.0  0.092347  0.093609  8e-05  1.001073  0.0
H  H10  1  0.02993705  0.77842358  0.92454246  1  0.075254  0.000189  0.916707  0.0  0.093198  0.000113  0.970736  0.0  0.093233  8.4e-05  0.972021  0.0  0.093087  0.092419  0.00011  0.970651  0.0
H  H11  1  0.97005812  0.22157421  0.07545622  1  0.075239  -0.000191  0.916582  0.0  0.093177  -0.000113  0.970645  0.0  0.09321  -8.4e-05  0.971931  0.0  0.093083  0.092402  -0.00011  0.970561  0.0
H  H12  1  0.38818809  0.35291957  0.42280553  1  0.091171  0.000639  0.929922  0.001  0.101523  0.000418  0.988596  0.001  0.103343  0.000235  0.988119  0.0  0.106001  0.100014  0.000512  0.989201  0.001
H  H13  1  0.61181305  0.64707719  0.57719660  1  0.091199  -0.000637  0.929914  -0.001  0.101551  -0.000419  0.988618  -0.001  0.10337  -0.000235  0.988142  0.0  0.105997  0.100038  -0.000512  0.98922  -0.001
H  H14  1  0.88533338  0.50891060  0.41772534  1  0.072056  0.000225  0.945407  0.0  0.087045  0.000184  1.013679  0.0  0.088406  0.000131  1.01299  0.0  0.090714  0.086077  0.000191  1.014203  0.0
H  H15  1  0.11466976  0.49108511  0.58228241  1  0.072094  -0.000224  0.945373  0.0  0.08706  -0.000184  1.013658  0.0  0.088423  -0.000132  1.012963  0.0  0.09072  0.08608  -0.000191  1.014196  0.0
H  H16  1  0.75310770  0.49442009  0.28088714  1  0.067497  -2.9e-05  0.919402  0.0  0.087918  -6.1e-05  0.971992  0.0  0.088658  -3.8e-05  0.972299  0.0  0.092016  0.087731  -6e-05  0.971582  0.0
H  H17  1  0.24689519  0.50557874  0.71911813  1  0.067466  2.5e-05  0.919457  0.0  0.087879  6.2e-05  0.972035  0.0  0.088614  3.8e-05  0.972349  0.0  0.092027  0.08769  6e-05  0.971624  0.0
H  H18  1  0.65956885  0.37762328  0.64723392  1  0.065397  -5e-06  0.930157  0.0  0.084403  9e-06  0.990134  0.0  0.085222  -7e-06  0.990488  0.0  0.090404  0.083886  -6e-06  0.989926  0.0
H  H19  1  0.34043802  0.62237558  0.35276918  1  0.065387  5e-06  0.930189  0.0  0.084378  -9e-06  0.990193  0.0  0.085198  7e-06  0.990548  0.0  0.090386  0.083858  6e-06  0.989986  0.0
H  H20  1  0.37986421  0.27804377  0.65718465  1  0.08549  8.4e-05  0.945605  0.0  0.099144  3.6e-05  1.011656  0.0  0.100725  1e-05  1.011128  0.0  0.093501  0.098151  0.000102  1.011966  0.0
H  H21  1  0.62014060  0.72195612  0.34281747  1  0.085484  -8.3e-05  0.945571  0.0  0.099165  -3.6e-05  1.011587  0.0  0.100747  -1e-05  1.011054  0.0  0.093495  0.098167  -0.000102  1.011895  0.0
C  C22  1  0.88717902  0.99373670  0.88386835  1  -0.10033  -0.000176  3.627598  0.0  -0.104523  -1.9e-05  3.869311  0.0  -0.113294  4.4e-05  3.884275  0.0  -0.085474  -0.09755  -0.000174  3.857917  0.0
C  C23  1  0.11281813  0.00626110  0.11613017  1  -0.100362  0.000166  3.627648  0.0  -0.104453  2.3e-05  3.869272  0.0  -0.113224  -5.1e-05  3.884235  0.0  -0.085453  -0.097483  0.000178  3.857876  0.0
C  C24  1  0.94113668  0.13265575  0.91275156  1  -0.112022  -0.001833  3.676585  -0.002  -0.158505  -0.0011  3.941911  -0.001  -0.158393  -0.000685  3.956878  -0.001  -0.163185  -0.158659  -0.000864  3.932349  -0.001
C  C25  1  0.05885838  0.86734306  0.08724877  1  -0.111921  0.001835  3.676415  0.002  -0.15844  0.0011  3.94176  0.001  -0.158333  0.000687  3.956737  0.001  -0.16318  -0.158599  0.000865  3.932193  0.001
C  C26  1  0.07696160  0.87819378  0.94232762  1  -0.114308  0.000754  3.652577  0.001  -0.158102  0.000448  3.914793  0.001  -0.158627  0.000286  3.929606  0.0  -0.158837  -0.157873  0.00036  3.905103  0.0
C  C27  1  0.92303555  0.12180402  0.05767091  1  -0.11419  -0.000745  3.65239  -0.001  -0.158043  -0.000448  3.914656  -0.001  -0.158566  -0.000285  3.929466  0.0  -0.158829  -0.157821  -0.000359  3.904973  0.0
C  C28  1  0.91825996  0.00016184  0.73971909  1  0.658616  0.000596  3.801798  0.001  0.623306  0.000348  4.104794  0.0  0.664211  0.000309  4.098368  0.0  0.21751  0.5959  0.000291  4.108037  0.0
C  C29  1  0.08173090  0.99984008  0.26028095  1  0.658628  -0.00059  3.802022  -0.001  0.623299  -0.000351  4.105017  0.0  0.66421  -0.000306  4.098594  0.0  0.217493  0.595894  -0.000291  4.108252  0.0
C  C30  1  0.56684833  0.36649106  0.46123241  1  -0.118588  0.001642  3.627066  0.002  -0.121283  0.001023  3.866445  0.001  -0.130994  0.000745  3.882689  0.001  -0.087865  -0.11368  0.001177  3.854806  0.001
C  C31  1  0.43315643  0.63350988  0.53876671  1  -0.118746  -0.001652  3.627074  -0.002  -0.121539  -0.001019  3.866666  -0.001  -0.131258  -0.000753  3.882907  -0.001  -0.087904  -0.113933  -0.001173  3.855003  -0.001
C  C32  1  0.69994309  0.49950357  0.38315811  1  -0.104891  -0.001514  3.681531  -0.002  -0.150354  -0.000832  3.942817  -0.001  -0.149699  -0.000531  3.95613  -0.001  -0.162413  -0.150847  -0.000931  3.933248  -0.001
C  C33  1  0.30006360  0.50049737  0.61684457  1  -0.104863  0.001511  3.681582  0.002  -0.150237  0.000832  3.942809  0.001  -0.149579  0.000534  3.956123  0.001  -0.162431  -0.150727  0.000932  3.933241  0.001
C  C34  1  0.48111651  0.37328187  0.60456870  1  -0.114602  0.000957  3.637234  0.001  -0.159262  0.000596  3.899254  0.001  -0.159947  0.000334  3.913396  0.0  -0.160445  -0.158588  0.000611  3.888957  0.001
C  C35  1  0.51889027  0.62671803  0.39543325  1  -0.114512  -0.000942  3.637188  -0.001  -0.159132  -0.000595  3.899239  -0.001  -0.15982  -0.000334  3.913391  0.0  -0.160414  -0.158463  -0.00061  3.888937  -0.001
C  C36  1  0.74056180  0.23633013  0.45987160  1  0.681611  -0.002345  3.771916  -0.003  0.646379  -0.001154  4.066331  -0.002  0.688429  -0.001212  4.057635  -0.002  0.227261  0.617859  -0.000974  4.070818  -0.002
C  C37  1  0.25944654  0.76367498  0.54012730  1  0.681806  0.002352  3.771819  0.003  0.646459  0.001151  4.066441  0.002  0.688528  0.00122  4.057725  0.002  0.227284  0.617928  0.000973  4.070914  0.002
O  O38  1  0.11429442  0.06591114  0.66922009  1  -0.568931  0.075074  2.088747  0.099  -0.546516  0.052987  2.366933  0.076  -0.590538  0.043059  2.360116  0.066  -0.311519  -0.518663  0.053924  2.372641  0.075
O  O39  1  0.88569614  0.93409387  0.33078304  1  -0.568946  -0.075075  2.088874  -0.099  -0.54656  -0.052985  2.367146  -0.076  -0.590551  -0.04306  2.36024  -0.066  -0.31151  -0.518693  -0.053929  2.372814  -0.075
O  O40  1  0.75183851  0.93555452  0.70226292  1  -0.566219  -0.07821  2.046111  -0.103  -0.547597  -0.055005  2.315867  -0.079  -0.590183  -0.044497  2.306228  -0.068  -0.315107  -0.520123  -0.056788  2.323041  -0.079
O  O41  1  0.24815421  0.06444950  0.29773096  1  -0.566205  0.078212  2.046251  0.103  -0.547578  0.05501  2.315993  0.079  -0.590174  0.044498  2.306376  0.068  -0.315091  -0.520121  0.056794  2.323203  0.079
O  O42  1  0.62238311  0.12226061  0.47747169  1  -0.617121  -0.059321  2.196854  -0.077  -0.589993  -0.044359  2.495355  -0.063  -0.637628  -0.036787  2.483754  -0.055  -0.319087  -0.556939  -0.045383  2.503286  -0.062
O  O43  1  0.37762969  0.87773936  0.52252049  1  -0.617169  0.059319  2.196961  0.077  -0.589977  0.044361  2.495464  0.063  -0.637619  0.036786  2.483865  0.055  -0.319086  -0.556921  0.045391  2.50339  0.062
O  O44  1  0.98842075  0.24550774  0.44954212  1  -0.563892  0.077047  2.074998  0.102  -0.533638  0.05576  2.343178  0.081  -0.574507  0.045706  2.332966  0.07  -0.301597  -0.506713  0.056276  2.350676  0.079
O  O45  1  0.01157909  0.75450459  0.55045690  1  -0.564004  -0.077053  2.074881  -0.102  -0.533648  -0.055756  2.343067  -0.081  -0.574528  -0.045707  2.332829  -0.07  -0.30164  -0.506719  -0.056281  2.350542  -0.079
