# generated using pymatgen
data_Zr3H23C44Cl5O16
_symmetry_space_group_name_H-M   'P 1'
_cell_length_a   19.28261452
_cell_length_b   19.23304262
_cell_length_c   19.23248279
_cell_angle_alpha   59.38980571
_cell_angle_beta   59.91570049
_cell_angle_gamma   59.91184207
_symmetry_Int_Tables_number   1
_chemical_formula_structural   Zr3H23C44Cl5O16
_chemical_formula_sum   'Zr6 H46 C88 Cl10 O32'
_cell_volume   5013.36480364
_cell_formula_units_Z   2
loop_
 _symmetry_equiv_pos_site_id
 _symmetry_equiv_pos_as_xyz
  1  'x, y, z'
loop_
 _atom_site_type_symbol
 _atom_site_label
 _atom_site_symmetry_multiplicity
 _atom_site_fract_x
 _atom_site_fract_y
 _atom_site_fract_z
 _atom_site_occupancy
 _atom_site_pbe_bader_charge
 _atom_site_pbe_bader_spin_density
 _atom_site_pbe_cm5_charge
 _atom_site_pbe_ddec_charge
 _atom_site_pbe_ddec_spin_density
 _atom_site_pbe_ddec_sum_bond_order
 _atom_site_pbe_magmom
Zr  Zr0  1  0.90817690  0.40758837  0.59234764  1  2.632286  0  1.625317  2.374126  0  2.749857  0
Zr  Zr1  1  0.09188219  0.59324931  0.40666995  1  2.635258  0  1.624519  2.373389  0  2.749179  0
Zr  Zr2  1  0.09150091  0.40721095  0.59280788  1  2.638378  0  1.624564  2.373879  0  2.750231  0
Zr  Zr3  1  0.90851457  0.59367705  0.40632044  1  2.633814  0  1.623957  2.374348  0  2.747962  0
Zr  Zr4  1  0.90857479  0.59182992  0.59103992  1  2.633255  0  1.629343  2.370944  0  2.772302  0
Zr  Zr5  1  0.09147723  0.40890355  0.40815626  1  2.632979  0  1.629217  2.371534  0  2.769728  0
H  H6  1  0.92778666  0.42605434  0.71778679  1  0.602262  0  0.331912  0.423068  0  0.858346  0
H  H7  1  0.92842249  0.71867482  0.42509962  1  0.609193  0  0.331755  0.422902  0  0.857967  0
H  H8  1  0.21648475  0.42801871  0.42769583  1  0.621022  0  0.331018  0.421916  0  0.858363  0
H  H9  1  0.92780315  0.42854033  0.42718062  1  0.604829  0  0.331366  0.422291  0  0.857765  0
H  H10  1  0.31769321  0.61341847  0.17863773  1  0.118662  0  0.108859  0.126198  0  0.999472  0
H  H11  1  0.67944534  0.39030762  0.81741782  1  0.110397  0  0.109286  0.127035  0  0.998651  0
H  H12  1  0.67779052  0.61272879  0.81951210  1  0.105478  0  0.11148  0.118494  0  0.983675  0
H  H13  1  0.55397264  0.60775768  0.94739914  1  0.117705  0  0.083196  0.091087  0  1.122897  0
H  H14  1  0.31992598  0.39030926  0.17734139  1  0.132104  0  0.111735  0.118886  0  0.984221  0
H  H15  1  0.44778725  0.39110352  0.05355703  1  0.131384  0  0.083358  0.091223  0  1.122592  0
H  H16  1  0.11292978  0.81799778  0.38999110  1  0.120515  0  0.109406  0.126985  0  0.998335  0
H  H17  1  0.89027205  0.17920693  0.61313896  1  0.106225  0  0.108782  0.126295  0  0.999921  0
H  H18  1  0.11250324  0.17773117  0.39008535  1  0.083483  0  0.111478  0.11868  0  0.983775  0
H  H19  1  0.10775698  0.05375446  0.39115699  1  0.115879  0  0.083249  0.091264  0  1.122834  0
H  H20  1  0.89012205  0.81985090  0.61245698  1  0.09928  0  0.111593  0.118648  0  0.984106  0
H  H21  1  0.89108530  0.94757987  0.60779175  1  0.116819  0  0.083087  0.090841  0  1.122709  0
H  H22  1  0.31622266  0.18048219  0.38993829  1  0.136838  0  0.109263  0.126835  0  0.999616  0
H  H23  1  0.68044359  0.81659350  0.61301525  1  0.11168  0  0.109201  0.12707  0  0.999596  0
H  H24  1  0.67624886  0.82114881  0.39020314  1  0.094482  0  0.110944  0.117464  0  0.984931  0
H  H25  1  0.55200426  0.94869983  0.39120256  1  0.103338  0  0.083017  0.091578  0  1.124595  0
H  H26  1  0.32072279  0.17654551  0.61229567  1  0.095441  0  0.111528  0.11816  0  0.983999  0
H  H27  1  0.44865363  0.05277468  0.60758342  1  0.118497  0  0.083211  0.091323  0  1.12405  0
H  H28  1  0.88980667  0.61329635  0.81622739  1  0.102078  0  0.109397  0.12695  0  0.999458  0
H  H29  1  0.11330108  0.39023319  0.18003802  1  0.108721  0  0.109199  0.126808  0  0.999231  0
H  H30  1  0.89036142  0.61257870  0.17603126  1  0.104657  0  0.111407  0.118042  0  0.983483  0
H  H31  1  0.89072964  0.60757866  0.05252003  1  0.139522  0  0.08341  0.091777  0  1.123662  0
H  H32  1  0.11223553  0.39045937  0.82069083  1  0.091092  0  0.111068  0.117658  0  0.985283  0
H  H33  1  0.10784046  0.39123976  0.94840341  1  0.109085  0  0.083146  0.09148  0  1.124163  0
H  H34  1  0.87926546  0.83307923  0.18798200  1  0.067854  0  0.104456  0.113441  0  1.005886  0
H  H35  1  0.12328810  0.80974194  0.16400101  1  0.107125  0  0.105345  0.115525  0  1.002603  0
H  H36  1  0.09956123  0.18917218  0.83201420  1  0.084992  0  0.104104  0.112653  0  1.005553  0
H  H37  1  0.90310748  0.16499777  0.80848518  1  0.086908  0  0.105298  0.115009  0  1.002215  0
H  H38  1  0.81414327  0.03560269  0.07362403  1  0.030668  0  0.097097  0.097073  0  0.963771  0
H  H39  1  0.81878160  0.94177918  0.07275845  1  0.041525  0  0.097053  0.097669  0  0.972849  0
H  H40  1  0.18638425  0.92681615  0.96424571  1  0.045003  0  0.097883  0.098039  0  0.963223  0
H  H41  1  0.18089378  0.92787213  0.05835198  1  0.034737  0  0.097721  0.098346  0  0.973069  0
H  H42  1  0.07659742  0.07489119  0.03445110  1  0.04177  0  0.097078  0.097004  0  0.963395  0
H  H43  1  0.16661594  0.07395610  0.94059283  1  0.016991  0  0.096921  0.097585  0  0.972262  0
H  H44  1  0.92251885  0.96539306  0.92555445  1  0.017396  0  0.097533  0.098054  0  0.963146  0
H  H45  1  0.83289222  0.05954514  0.92667157  1  0.020621  0  0.097319  0.098272  0  0.973019  0
H  H46  1  0.31747106  0.38891820  0.61422967  1  0.141216  0  0.10866  0.125812  0  0.99941  0
H  H47  1  0.67923887  0.61490233  0.38826995  1  0.137782  0  0.108738  0.125834  0  1.000196  0
H  H48  1  0.67715820  0.38992532  0.61272019  1  0.089566  0  0.111073  0.118053  0  0.98453  0
H  H49  1  0.55351287  0.39046613  0.60853492  1  0.108611  0  0.083301  0.09129  0  1.122135  0
H  H50  1  0.32033222  0.61337682  0.38925600  1  0.08099  0  0.111032  0.118035  0  0.984465  0
H  H51  1  0.44759538  0.60902429  0.38995891  1  0.103568  0  0.083438  0.092039  0  1.122594  0
C  C52  1  0.76442982  0.50205364  0.73080766  1  1.534155  0  0.237121  0.640302  0  4.101739  0
C  C53  1  0.00273008  0.73150095  0.50142621  1  1.552247  0  0.238133  0.642383  0  4.100767  0
C  C54  1  0.23097697  0.50348192  0.26351996  1  1.549413  0  0.237853  0.642448  0  4.100573  0
C  C55  1  0.00192515  0.26426807  0.50288299  1  1.55854  0  0.23745  0.640692  0  4.103224  0
C  C56  1  0.00195042  0.26215206  0.73394275  1  1.53101  0  0.234494  0.64063  0  4.0893  0
C  C57  1  0.76440866  0.50348714  0.50093047  1  1.564154  0  0.23726  0.642465  0  4.094243  0
C  C58  1  0.00190737  0.73502451  0.26116845  1  1.533313  0  0.233437  0.640618  0  4.090531  0
C  C59  1  0.23116977  0.50173375  0.50267198  1  1.555955  0  0.237056  0.640407  0  4.099327  0
C  C60  1  0.00159093  0.50247311  0.73117867  1  1.549774  0  0.237206  0.639979  0  4.103489  0
C  C61  1  0.23052009  0.26392477  0.50242095  1  1.538527  0  0.237657  0.641238  0  4.103072  0
C  C62  1  0.00322349  0.50303315  0.26318623  1  1.561744  0  0.238163  0.643517  0  4.101582  0
C  C63  1  0.76467395  0.73181224  0.50187695  1  1.540104  0  0.237598  0.641238  0  4.101171  0
C  C64  1  0.30909797  0.50259054  0.18677792  1  -0.001622  0  -0.016113  -0.022231  0  3.994077  0
C  C65  1  0.68741804  0.50172606  0.80872147  1  -0.065945  0  -0.016227  -0.022336  0  3.993415  0
C  C66  1  0.34671792  0.56440607  0.15038424  1  0.035182  0  -0.088646  -0.157143  0  3.974124  0
C  C67  1  0.42045320  0.56517439  0.07911093  1  0.034552  0  0.021106  0.10715  0  3.920875  0
C  C68  1  0.65107511  0.43860623  0.84638548  1  0.093272  0  -0.088456  -0.156332  0  3.973533  0
C  C69  1  0.57978478  0.43532319  0.92016826  1  -0.022163  0  0.021517  0.107018  0  3.923354  0
C  C70  1  0.65068973  0.56270962  0.84705731  1  -0.007516  0  -0.082094  -0.082738  0  3.984563  0
C  C71  1  0.57985125  0.55917938  0.92016828  1  -0.022879  0  -0.097671  -0.126255  0  3.984018  0
C  C72  1  0.34748974  0.43987047  0.15019706  1  -0.082888  0  -0.082792  -0.08399  0  3.985697  0
C  C73  1  0.42059496  0.44106366  0.07940428  1  -0.017915  0  -0.09703  -0.124502  0  3.984244  0
C  C74  1  0.46169533  0.50244650  0.03885416  1  -0.047302  0  0.000678  0.029399  0  3.888481  0
C  C75  1  0.53935260  0.49719968  0.96127632  1  0.024875  0  0.001053  0.030882  0  3.887752  0
C  C76  1  0.00222416  0.80922605  0.50138407  1  0.061258  0  -0.016382  -0.023162  0  3.994199  0
C  C77  1  0.00154826  0.18731453  0.50228113  1  0.014554  0  -0.016243  -0.0222  0  3.994922  0
C  C78  1  0.06404769  0.84687694  0.43836573  1  -0.0092  0  -0.08869  -0.15649  0  3.973072  0
C  C79  1  0.06489259  0.92055558  0.43523866  1  -0.018406  0  0.021611  0.107526  0  3.921212  0
C  C80  1  0.93855565  0.15086951  0.56420432  1  -0.001252  0  -0.089117  -0.157764  0  3.975583  0
C  C81  1  0.93541065  0.07946437  0.56513613  1  0.018453  0  0.0217  0.107918  0  3.922669  0
C  C82  1  0.06254331  0.15058202  0.43969464  1  0.01247  0  -0.082073  -0.08318  0  3.98479  0
C  C83  1  0.05910260  0.07968282  0.44104214  1  -0.074533  0  -0.096862  -0.124438  0  3.983582  0
C  C84  1  0.93969121  0.84741970  0.56249868  1  -0.044849  0  -0.082311  -0.083138  0  3.984674  0
C  C85  1  0.94099538  0.92043556  0.55913019  1  -0.06648  0  -0.097004  -0.124733  0  3.98303  0
C  C86  1  0.00235885  0.96157500  0.49719637  1  0.03745  0  0.000685  0.029861  0  3.888323  0
C  C87  1  0.99718304  0.03914199  0.50246910  1  0.053285  0  0.000509  0.029096  0  3.889089  0
C  C88  1  0.30870096  0.18722820  0.50153592  1  -0.040633  0  -0.016045  -0.02182  0  3.994503  0
C  C89  1  0.68731389  0.80935045  0.50199630  1  -0.017072  0  -0.016396  -0.021627  0  3.993569  0
C  C90  1  0.34563308  0.15171663  0.43835275  1  0.040286  0  -0.088549  -0.156887  0  3.973839  0
C  C91  1  0.41937667  0.08046244  0.43515998  1  0.011184  0  0.021577  0.106708  0  3.923361  0
C  C92  1  0.65159672  0.84602753  0.56400196  1  0.07002  0  -0.088456  -0.157883  0  3.973944  0
C  C93  1  0.58010840  0.91961179  0.56492507  1  0.01778  0  0.021526  0.107477  0  3.923235  0
C  C94  1  0.64958528  0.84827931  0.43963545  1  -0.023608  0  -0.0826  -0.082763  0  3.987729  0
C  C95  1  0.57859752  0.92114480  0.44102141  1  -0.005247  0  -0.097431  -0.127142  0  3.988483  0
C  C96  1  0.34785210  0.14985169  0.56242205  1  -0.007651  0  -0.082464  -0.082831  0  3.985704  0
C  C97  1  0.42092056  0.07909783  0.55895620  1  -0.038997  0  -0.097188  -0.125798  0  3.986301  0
C  C98  1  0.46124839  0.03927856  0.49707169  1  0.019993  0  0.000722  0.03031  0  3.887774  0
C  C99  1  0.53890654  0.96153517  0.50231850  1  -0.039872  0  0.000389  0.030431  0  3.887405  0
C  C100  1  0.00120567  0.50231756  0.80890035  1  0.045286  0  -0.016163  -0.02121  0  3.99475  0
C  C101  1  0.00252915  0.50190153  0.18667096  1  -0.01919  0  -0.016323  -0.023801  0  3.996452  0
C  C102  1  0.93820820  0.56422779  0.84568193  1  0.016922  0  -0.088859  -0.157631  0  3.974278  0
C  C103  1  0.93514039  0.56502697  0.91935064  1  0.032213  0  0.021986  0.107689  0  3.9231  0
C  C104  1  0.06422082  0.43861068  0.15128065  1  -0.003971  0  -0.088237  -0.156238  0  3.973321  0
C  C105  1  0.06482696  0.43527110  0.08015352  1  0.025565  0  0.021136  0.106373  0  3.92355  0
C  C106  1  0.93978557  0.56266927  0.14937876  1  0.024938  0  -0.082343  -0.081558  0  3.986104  0
C  C107  1  0.94083400  0.55903673  0.07877992  1  -0.095707  0  -0.097679  -0.127481  0  3.987667  0
C  C108  1  0.06231925  0.43984977  0.84786735  1  -0.025713  0  -0.082786  -0.0834  0  3.988067  0
C  C109  1  0.05901039  0.44110258  0.92083639  1  -0.064476  0  -0.097228  -0.126555  0  3.987602  0
C  C110  1  0.99701430  0.50236538  0.96127593  1  0.035029  0  0.000516  0.030345  0  3.887732  0
C  C111  1  0.00219789  0.49712677  0.03899667  1  0.001817  0  0.000599  0.031012  0  3.887971  0
C  C112  1  0.85644533  0.98220605  0.04859768  1  -0.04306  0  -0.153772  -0.184795  0  3.979156  0
C  C113  1  0.14361034  0.95180564  0.01762790  1  -0.047007  0  -0.15423  -0.186078  0  3.978835  0
C  C114  1  0.11267724  0.04980380  0.98109782  1  0.025424  0  -0.153579  -0.185377  0  3.97961  0
C  C115  1  0.88698333  0.01873805  0.95059412  1  0.043642  0  -0.153075  -0.18679  0  3.980048  0
C  C116  1  0.93212878  0.85768724  0.15360251  1  -0.039339  0  -0.08881  -0.162095  0  3.967464  0
C  C117  1  0.93053687  0.93180177  0.08157793  1  0.029352  0  -0.006564  0.080822  0  3.957113  0
C  C118  1  0.06985173  0.84460469  0.14015117  1  -0.018573  0  -0.088166  -0.160249  0  3.965433  0
C  C119  1  0.07000983  0.91816660  0.06752980  1  -0.008375  0  -0.00577  0.081339  0  3.957  0
C  C120  1  0.05654137  0.15471492  0.85660465  1  0.007976  0  -0.088044  -0.159663  0  3.969051  0
C  C121  1  0.05602346  0.08272277  0.93071947  1  -0.053206  0  -0.006516  0.08069  0  3.959636  0
C  C122  1  0.94547770  0.14116978  0.84340340  1  -0.015293  0  -0.087047  -0.157737  0  3.96512  0
C  C123  1  0.94434162  0.06859216  0.91698002  1  -0.058254  0  -0.006305  0.081312  0  3.957948  0
C  C124  1  0.00141217  0.81369828  0.18343987  1  -0.009573  0  -0.022235  -0.03669  0  4.008471  0
C  C125  1  0.00000746  0.96213962  0.03792436  1  -0.110211  0  -0.004191  -0.017404  0  3.938319  0
C  C126  1  0.00147925  0.18446616  0.81258983  1  -0.013944  0  -0.023398  -0.039369  0  4.015477  0
C  C127  1  0.99990052  0.03905031  0.96101203  1  -0.000536  0  -0.005063  -0.018607  0  3.939499  0
C  C128  1  0.30898769  0.50136319  0.50232290  1  0.055918  0  -0.016  -0.022313  0  3.988338  0
C  C129  1  0.68730284  0.50301442  0.50070303  1  -0.005481  0  -0.015938  -0.022185  0  3.987082  0
C  C130  1  0.34637390  0.43787494  0.56467301  1  -0.033199  0  -0.089485  -0.157165  0  3.969845  0
C  C131  1  0.41992957  0.43490733  0.56536583  1  0.047556  0  0.021354  0.106588  0  3.922291  0
C  C132  1  0.65099210  0.56530969  0.43726380  1  -0.038997  0  -0.089537  -0.157461  0  3.969251  0
C  C133  1  0.57971362  0.56590777  0.43438661  1  -0.016123  0  0.021351  0.10692  0  3.918995  0
C  C134  1  0.65021421  0.43987432  0.56238560  1  0.041815  0  -0.082884  -0.083613  0  3.983688  0
C  C135  1  0.57939648  0.44096961  0.55924586  1  -0.065056  0  -0.096901  -0.124822  0  3.982245  0
C  C136  1  0.34759438  0.56300243  0.43923697  1  -0.037123  0  -0.082756  -0.083067  0  3.984093  0
C  C137  1  0.42045264  0.55976738  0.44042138  1  -0.052395  0  -0.097149  -0.126134  0  3.983217  0
C  C138  1  0.46135658  0.49738740  0.50221788  1  -0.003147  0  0.000765  0.030313  0  3.879312  0
C  C139  1  0.53900657  0.50271784  0.49690122  1  0.079875  0  0.000956  0.030292  0  3.87868  0
Cl  Cl140  1  0.45131669  0.65051656  0.05017472  1  -0.212807  0  -0.001462  -0.083119  0  1.509956  0
Cl  Cl141  1  0.55115333  0.34771567  0.95138630  1  -0.218856  0  -0.00159  -0.083208  0  1.509994  0
Cl  Cl142  1  0.14996191  0.95175655  0.34768102  1  -0.21078  0  -0.001582  -0.083238  0  1.509632  0
Cl  Cl143  1  0.84824580  0.05042515  0.65056450  1  -0.212781  0  -0.001575  -0.083316  0  1.509956  0
Cl  Cl144  1  0.44954199  0.05276925  0.34765656  1  -0.218966  0  -0.001744  -0.083127  0  1.510004  0
Cl  Cl145  1  0.55215995  0.94955995  0.65016119  1  -0.218382  0  -0.00145  -0.082959  0  1.510023  0
Cl  Cl146  1  0.84785226  0.65021237  0.94935461  1  -0.214813  0  -0.001516  -0.082944  0  1.509912  0
Cl  Cl147  1  0.14975546  0.34766851  0.05256622  1  -0.218326  0  -0.001756  -0.083264  0  1.509809  0
Cl  Cl148  1  0.45079855  0.34682658  0.65112183  1  -0.219055  0  -0.002029  -0.083247  0  1.510225  0
Cl  Cl149  1  0.55117670  0.65166394  0.34625883  1  -0.213303  0  -0.002038  -0.083525  0  1.509856  0
O  O150  1  0.79477189  0.44267704  0.70105477  1  -1.177583  0  -0.355092  -0.616078  0  2.278183  0
O  O151  1  0.06145145  0.70189302  0.44193032  1  -1.181115  0  -0.354842  -0.616049  0  2.27794  0
O  O152  1  0.20111241  0.56248645  0.29362030  1  -1.179982  0  -0.355123  -0.616564  0  2.278225  0
O  O153  1  0.94255301  0.29455949  0.56170961  1  -1.179743  0  -0.355101  -0.615642  0  2.278718  0
O  O154  1  0.06022210  0.29392565  0.70356796  1  -1.190618  0  -0.361314  -0.625303  0  2.276891  0
O  O155  1  0.79519192  0.56272333  0.44086191  1  -1.188972  0  -0.354953  -0.617712  0  2.270592  0
O  O156  1  0.94227531  0.70459098  0.29292935  1  -1.181118  0  -0.360414  -0.625617  0  2.27606  0
O  O157  1  0.20114281  0.44172115  0.56192407  1  -1.186206  0  -0.354977  -0.616587  0  2.273154  0
O  O158  1  0.94206652  0.56117616  0.70089847  1  -1.185123  0  -0.35577  -0.614293  0  2.286359  0
O  O159  1  0.20033126  0.29516909  0.44276642  1  -1.177329  0  -0.357025  -0.615959  0  2.285184  0
O  O160  1  0.06182454  0.44341697  0.29444219  1  -1.178475  0  -0.356881  -0.616629  0  2.285855  0
O  O161  1  0.79587705  0.70156415  0.56049147  1  -1.177484  0  -0.356767  -0.615199  0  2.286436  0
O  O162  1  0.20051353  0.29347561  0.56182200  1  -1.179275  0  -0.352441  -0.617991  0  2.276428  0
O  O163  1  0.94437034  0.56256168  0.29258487  1  -1.18172  0  -0.352493  -0.61867  0  2.27501  0
O  O164  1  0.79469757  0.70240013  0.44238105  1  -1.176433  0  -0.352593  -0.618481  0  2.277911  0
O  O165  1  0.06053274  0.44308336  0.70162805  1  -1.18212  0  -0.353626  -0.618866  0  2.278881  0
O  O166  1  0.94341703  0.29302118  0.70242512  1  -1.188214  0  -0.35891  -0.623513  0  2.27335  0
O  O167  1  0.20130086  0.56129229  0.44272313  1  -1.182357  0  -0.352724  -0.6185  0  2.274609  0
O  O168  1  0.06109048  0.70350699  0.29204868  1  -1.182149  0  -0.358421  -0.624284  0  2.272626  0
O  O169  1  0.79469877  0.44357685  0.56047731  1  -1.191211  0  -0.352863  -0.619435  0  2.274175  0
O  O170  1  0.06091586  0.29494353  0.44347517  1  -1.189718  0  -0.354334  -0.617739  0  2.282644  0
O  O171  1  0.79509067  0.56103778  0.70058054  1  -1.176536  0  -0.353969  -0.616751  0  2.283226  0
O  O172  1  0.94329876  0.70126855  0.56035195  1  -1.17987  0  -0.354915  -0.618192  0  2.283221  0
O  O173  1  0.20069431  0.44408747  0.29423840  1  -1.176417  0  -0.354367  -0.618116  0  2.282559  0
O  O174  1  0.94827280  0.44905546  0.44773927  1  -1.234301  0  -0.694786  -1.069974  0  2.362615  0
O  O175  1  0.15494369  0.44860246  0.44818945  1  -1.25039  0  -0.694339  -1.069269  0  2.361692  0
O  O176  1  0.94858697  0.65662864  0.44671125  1  -1.237714  0  -0.694661  -1.067931  0  2.363584  0
O  O177  1  0.94807301  0.44761339  0.65574421  1  -1.232397  0  -0.695142  -1.068889  0  2.367583  0
O  O178  1  0.03830910  0.53811564  0.53758685  1  -1.200652  0  -0.790466  -1.149198  0  2.124607  0
O  O179  1  0.88601033  0.53849582  0.53719567  1  -1.197144  0  -0.790237  -1.149348  0  2.124892  0
O  O180  1  0.03815457  0.53956819  0.38439730  1  -1.193188  0  -0.791072  -1.148053  0  2.126509  0
O  O181  1  0.03788900  0.38522687  0.53873609  1  -1.193235  0  -0.791252  -1.14866  0  2.127474  0
