# generated using pymatgen
data_Zn3H63C91N5O13
_symmetry_space_group_name_H-M   'P 1'
_cell_length_a   17.90471574
_cell_length_b   20.39151799
_cell_length_c   21.98321945
_cell_angle_alpha   63.49711701
_cell_angle_beta   75.73750021
_cell_angle_gamma   85.16334872
_symmetry_Int_Tables_number   1
_chemical_formula_structural   Zn3H63C91N5O13
_chemical_formula_sum   'Zn6 H126 C182 N10 O26'
_cell_volume   6958.28398249
_cell_formula_units_Z   2
loop_
 _symmetry_equiv_pos_site_id
 _symmetry_equiv_pos_as_xyz
  1  'x, y, z'
loop_
 _atom_site_type_symbol
 _atom_site_label
 _atom_site_symmetry_multiplicity
 _atom_site_fract_x
 _atom_site_fract_y
 _atom_site_fract_z
 _atom_site_occupancy
 _atom_site_pbe_bader_charge
 _atom_site_pbe_bader_spin_density
 _atom_site_pbe_cm5_charge
 _atom_site_pbe_ddec_charge
 _atom_site_pbe_ddec_spin_density
 _atom_site_pbe_ddec_sum_bond_order
 _atom_site_pbe_magmom
Zn  Zn0  1  0.53576857  0.10217704  0.05132868  1  1.294129  0  0.673866  0.840414  0  2.280789  0
Zn  Zn1  1  0.46423319  0.89782166  0.94867347  1  1.294049  0  0.673877  0.840453  0  2.280812  0
Zn  Zn2  1  0.72637776  0.11383144  0.08491046  1  1.374758  0  0.699758  0.983528  0  2.276633  0
Zn  Zn3  1  0.27362225  0.88616560  0.91508999  1  1.374622  0  0.699719  0.983316  0  2.27683  0
Zn  Zn4  1  0.90702315  0.04646663  0.08891772  1  1.281935  0  0.689491  0.836332  0  2.379608  0
Zn  Zn5  1  0.09297987  0.95353536  0.91108054  1  1.281878  0  0.689528  0.836319  0  2.379558  0
H  H6  1  0.00396917  0.02284671  0.18450906  1  0.15107  0  0.125795  0.106915  0  0.994552  0
H  H7  1  0.99603080  0.97714758  0.81549118  1  0.150934  0  0.12578  0.106912  0  0.99449  0
H  H8  1  0.24463174  0.13180044  0.12498258  1  0.078446  0  0.110911  0.115996  0  0.994036  0
H  H9  1  0.75536763  0.86819495  0.87502232  1  0.078465  0  0.110899  0.115993  0  0.994032  0
H  H10  1  0.14400196  0.03254395  0.18145734  1  0.087272  0  0.113134  0.120177  0  0.987518  0
H  H11  1  0.85599624  0.96744979  0.81854665  1  0.087334  0  0.113164  0.120144  0  0.987559  0
H  H12  1  0.38564517  0.14359263  0.11630466  1  0.135469  0  0.123988  0.105595  0  0.999013  0
H  H13  1  0.61435361  0.85640276  0.88370263  1  0.135796  0  0.123919  0.105532  0  0.999036  0
H  H14  1  0.30602525  0.00277535  0.00901296  1  0.128281  0  0.115893  0.137385  0  1.006003  0
H  H15  1  0.69397763  0.99722170  0.99098920  1  0.128155  0  0.115925  0.13741  0  1.00595  0
H  H16  1  0.05444968  0.07040214  0.97436260  1  0.130405  0  0.121127  0.096981  0  1.01172  0
H  H17  1  0.94555505  0.92959931  0.02563510  1  0.130523  0  0.121155  0.096985  0  1.011695  0
H  H18  1  0.70300397  0.90090073  0.23655114  1  0.10607  0  0.106081  0.115481  0  0.998244  0
H  H19  1  0.29699892  0.09909743  0.76345238  1  0.106094  0  0.106078  0.115506  0  0.998296  0
H  H20  1  0.88013781  0.81474295  0.14797940  1  0.074273  0  0.105785  0.109139  0  1.000944  0
H  H21  1  0.11987092  0.18525633  0.85201751  1  0.074016  0  0.105825  0.109223  0  1.000908  0
H  H22  1  0.19503451  0.07972048  0.96255905  1  0.115539  0  0.118882  0.137316  0  0.981767  0
H  H23  1  0.80497016  0.92027988  0.03744275  1  0.115564  0  0.118909  0.137309  0  0.98182  0
H  H24  1  0.58928591  0.12656085  0.83260204  1  0.123712  0  0.106405  0.111378  0  0.991729  0
H  H25  1  0.41071127  0.87343946  0.16740079  1  0.123696  0  0.106411  0.111376  0  0.991727  0
H  H26  1  0.68077766  0.23823964  0.59841809  1  0.055932  0  0.099637  0.095641  0  1.014579  0
H  H27  1  0.31922596  0.76176400  0.40158074  1  0.055897  0  0.099615  0.095605  0  1.014546  0
H  H28  1  0.70760924  0.76574111  0.30256449  1  0.089023  0  0.095263  0.094674  0  1.026033  0
H  H29  1  0.29239308  0.23425594  0.69743687  1  0.089107  0  0.095284  0.094694  0  1.026001  0
H  H30  1  0.52815272  0.64282835  0.27263363  1  0.058018  0  0.096902  0.095115  0  1.055623  0
H  H31  1  0.47184563  0.35717197  0.72736806  1  0.057756  0  0.096906  0.095136  0  1.055608  0
H  H32  1  0.53045091  0.50769410  0.33635506  1  0.067325  0  0.105217  0.112819  0  0.990545  0
H  H33  1  0.46954918  0.49230623  0.66364401  1  0.067339  0  0.105201  0.11281  0  0.99055  0
H  H34  1  0.69058140  0.29509045  0.47222897  1  0.051087  0  0.101039  0.108219  0  1.020959  0
H  H35  1  0.30942567  0.70491321  0.52776917  1  0.050914  0  0.101037  0.108202  0  1.020942  0
H  H36  1  0.56857150  0.74017050  0.17899130  1  0.072034  0  0.099239  0.101847  0  1.018597  0
H  H37  1  0.43142453  0.25983035  0.82101289  1  0.071632  0  0.099249  0.101907  0  1.018579  0
H  H38  1  0.44270171  0.02125678  0.00404262  1  0.120239  0  0.122012  0.094766  0  1.01422  0
H  H39  1  0.55730111  0.97873919  0.99596318  1  0.120044  0  0.122028  0.094834  0  1.014059  0
H  H40  1  0.97322786  0.14012948  0.87089064  1  0.091129  0  0.100886  0.10275  0  1.031318  0
H  H41  1  0.02677214  0.85986646  0.12910891  1  0.091142  0  0.100885  0.102799  0  1.031299  0
H  H42  1  0.55377005  0.23348920  0.37824010  1  0.023131  0  0.102151  0.101507  0  1.000154  0
H  H43  1  0.44623470  0.76651280  0.62175691  1  0.023032  0  0.102104  0.10143  0  1.000124  0
H  H44  1  0.58879211  0.49021970  0.48285708  1  0.075621  0  0.102247  0.113123  0  1.010657  0
H  H45  1  0.41120165  0.50978003  0.51714210  1  0.075385  0  0.102279  0.113195  0  1.010732  0
H  H46  1  0.69017924  0.26518016  0.08705452  1  0.114215  0  0.10389  0.107899  0  1.021718  0
H  H47  1  0.30981555  0.73481465  0.91294606  1  0.114568  0  0.103919  0.107895  0  1.021698  0
H  H48  1  0.69204555  0.47474523  0.25976902  1  0.0643  0  0.106043  0.116758  0  0.997115  0
H  H49  1  0.30795633  0.52525729  0.74022879  1  0.064385  0  0.105992  0.116697  0  0.997125  0
H  H50  1  0.75007981  0.52466130  0.37581619  1  0.092016  0  0.098324  0.106333  0  1.037283  0
H  H51  1  0.24992204  0.47534013  0.62418253  1  0.092012  0  0.098356  0.106412  0  1.037309  0
H  H52  1  0.61063197  0.18476170  0.70373468  1  0.061888  0  0.101766  0.101823  0  1.003835  0
H  H53  1  0.38936346  0.81523695  0.29626781  1  0.061819  0  0.101775  0.10186  0  1.003818  0
H  H54  1  0.58098484  0.43392577  0.60834328  1  0.026894  0  0.096797  0.092394  0  1.033079  0
H  H55  1  0.41900486  0.56607229  0.39165558  1  0.026648  0  0.096788  0.092347  0  1.033069  0
H  H56  1  0.59176165  0.33791587  0.82953845  1  0.063511  0  0.102671  0.105125  0  1.004959  0
H  H57  1  0.40823674  0.66208553  0.17046050  1  0.063518  0  0.102642  0.105098  0  1.004977  0
H  H58  1  0.74506149  0.19735658  0.76717633  1  0.084047  0  0.092314  0.092077  0  1.066566  0
H  H59  1  0.25493903  0.80263496  0.23281948  1  0.084145  0  0.092298  0.092074  0  1.066681  0
H  H60  1  0.56002050  0.87464820  0.11788492  1  0.121802  0  0.099821  0.099654  0  1.036028  0
H  H61  1  0.43997552  0.12535376  0.88212337  1  0.121803  0  0.099797  0.099659  0  1.035967  0
H  H62  1  0.49349023  0.22637302  0.30452369  1  0.05671  0  0.09915  0.097447  0  1.011387  0
H  H63  1  0.50650879  0.77363114  0.69547627  1  0.056728  0  0.099123  0.097432  0  1.011302  0
H  H64  1  0.56849009  0.29632789  0.44724266  1  0.064939  0  0.104694  0.116304  0  1.006187  0
H  H65  1  0.43151520  0.70367302  0.55275561  1  0.064837  0  0.104715  0.1163  0  1.006225  0
H  H66  1  0.80417965  0.40025854  0.37407315  1  0.07776  0  0.103532  0.112429  0  1.016353  0
H  H67  1  0.19582001  0.59974616  0.62592055  1  0.07778  0  0.103549  0.112471  0  1.016259  0
H  H68  1  0.87627709  0.70504035  0.40098738  1  0.019607  0  0.100078  0.100445  0  1.009246  0
H  H69  1  0.12371844  0.29496269  0.59901373  1  0.020036  0  0.100047  0.100387  0  1.009355  0
H  H70  1  0.72745716  0.13221365  0.89606919  1  0.141327  0  0.102344  0.109776  0  1.030666  0
H  H71  1  0.27254054  0.86778117  0.10392900  1  0.141132  0  0.1023  0.109742  0  1.030739  0
H  H72  1  0.74923846  0.65937040  0.31042351  1  0.082508  0  0.094029  0.091616  0  1.06856  0
H  H73  1  0.25076109  0.34063157  0.68957634  1  0.082495  0  0.094042  0.091653  0  1.068572  0
H  H74  1  0.67344435  0.41364146  0.19035841  1  0.068007  0  0.103746  0.103051  0  0.999993  0
H  H75  1  0.32655698  0.58636216  0.80963859  1  0.068109  0  0.103771  0.103094  0  1.000023  0
H  H76  1  0.73738579  0.21394696  0.33271355  1  0.061427  0  0.096471  0.097567  0  1.024424  0
H  H77  1  0.26261602  0.78605283  0.66728540  1  0.061339  0  0.096508  0.09763  0  1.024478  0
H  H78  1  0.47729401  0.16476718  0.23318955  1  0.089795  0  0.104657  0.106568  0  0.997234  0
H  H79  1  0.52270253  0.83523093  0.76681659  1  0.090004  0  0.104636  0.106575  0  0.997279  0
H  H80  1  0.80094189  0.18157067  0.66065577  1  0.051421  0  0.1006  0.099271  0  1.000594  0
H  H81  1  0.19906158  0.81842473  0.33934104  1  0.051575  0  0.100594  0.099266  0  1.000692  0
H  H82  1  0.89278818  0.68062118  0.21302434  1  0.049539  0  0.100864  0.100829  0  1.004131  0
H  H83  1  0.10721472  0.31937642  0.78697713  1  0.049557  0  0.100856  0.100867  0  1.004194  0
H  H84  1  0.62532606  0.39695106  0.69954765  1  0.05698  0  0.09828  0.096974  0  1.008002  0
H  H85  1  0.37466771  0.60304977  0.30045153  1  0.056947  0  0.098298  0.097017  0  1.007958  0
H  H86  1  0.71756127  0.15946589  0.25624102  1  0.105311  0  0.106184  0.112937  0  1.007475  0
H  H87  1  0.28244178  0.84053664  0.74375474  1  0.105275  0  0.106231  0.113026  0  1.007446  0
H  H88  1  0.70346836  0.25805146  0.95336479  1  0.133454  0  0.127639  0.068416  0  0.984926  0
H  H89  1  0.29652309  0.74194716  0.04663213  1  0.133593  0  0.127618  0.068393  0  0.984851  0
H  H90  1  0.70705772  0.32710375  0.15722460  1  0.049899  0  0.101607  0.100384  0  1.003924  0
H  H91  1  0.29293839  0.67289709  0.84277094  1  0.049774  0  0.101667  0.100554  0  1.00381  0
H  H92  1  0.99081404  0.20702948  0.74204428  1  0.077833  0  0.093335  0.093344  0  1.080007  0
H  H93  1  0.00918710  0.79296537  0.25795413  1  0.077879  0  0.09333  0.093384  0  1.07997  0
H  H94  1  0.86363750  0.83960285  0.33435250  1  0.097314  0  0.108176  0.11484  0  0.98901  0
H  H95  1  0.13636325  0.16040022  0.66564394  1  0.09741  0  0.108175  0.114825  0  0.988913  0
H  H96  1  0.98043769  0.39902064  0.53130427  1  0.080386  0  0.101919  0.111364  0  1.005464  0
H  H97  1  0.01956520  0.60097641  0.46869744  1  0.080423  0  0.101889  0.111325  0  1.005375  0
H  H98  1  0.81995079  0.25234444  0.53233482  1  0.06164  0  0.103416  0.112554  0  1.011888  0
H  H99  1  0.18005277  0.74765535  0.46766198  1  0.061888  0  0.103441  0.112599  0  1.011904  0
H  H100  1  0.96703327  0.59265706  0.25875274  1  0.05073  0  0.098115  0.09478  0  1.022167  0
H  H101  1  0.03296573  0.40734710  0.74124904  1  0.050585  0  0.09815  0.094809  0  1.022148  0
H  H102  1  0.97548785  0.45841828  0.31894123  1  0.077903  0  0.104773  0.114664  0  0.995689  0
H  H103  1  0.02451058  0.54158533  0.68105908  1  0.077809  0  0.104727  0.114673  0  0.995771  0
H  H104  1  0.78258173  0.33154112  0.31109474  1  0.085293  0  0.096671  0.0973  0  1.045369  0
H  H105  1  0.21741719  0.66845865  0.68890524  1  0.085333  0  0.096689  0.097321  0  1.045327  0
H  H106  1  0.96234260  0.32776428  0.65906642  1  0.069473  0  0.096062  0.095093  0  1.0372  0
H  H107  1  0.03766025  0.67223058  0.34093438  1  0.069486  0  0.096105  0.095162  0  1.037137  0
H  H108  1  0.96229457  0.15909583  0.17980885  1  0.08952  0  0.100697  0.102696  0  1.013771  0
H  H109  1  0.03770909  0.84090835  0.82018565  1  0.089596  0  0.100699  0.102676  0  1.013849  0
H  H110  1  0.98337098  0.21243130  0.25689914  1  0.048834  0  0.096995  0.095451  0  1.009571  0
H  H111  1  0.01663199  0.78756849  0.74309913  1  0.048905  0  0.09694  0.095342  0  1.009568  0
H  H112  1  0.82999578  0.59180728  0.45017342  1  0.060414  0  0.103113  0.10227  0  0.999695  0
H  H113  1  0.17000260  0.40819523  0.54982962  1  0.060544  0  0.103111  0.102238  0  0.999725  0
H  H114  1  0.83951952  0.45793471  0.51045917  1  0.063512  0  0.106635  0.119275  0  0.99878  0
H  H115  1  0.16048402  0.54206730  0.48954399  1  0.063561  0  0.106636  0.119291  0  0.998776  0
H  H116  1  0.98925548  0.25868210  0.44209981  1  0.094259  0  0.106812  0.11716  0  0.984172  0
H  H117  1  0.01074714  0.74132701  0.55789467  1  0.093783  0  0.106765  0.117066  0  0.984266  0
H  H118  1  0.96835613  0.18983554  0.37827537  1  0.059016  0  0.102355  0.102324  0  0.998089  0
H  H119  1  0.03164695  0.81016919  0.62172265  1  0.058945  0  0.102341  0.102314  0  0.998128  0
H  H120  1  0.80654345  0.33230807  0.78982971  1  0.09967  0  0.104548  0.12114  0  0.993134  0
H  H121  1  0.19345606  0.66769115  0.21016857  1  0.099722  0  0.104574  0.121166  0  0.993148  0
H  H122  1  0.79051108  0.40705649  0.81301175  1  0.044495  0  0.103567  0.112879  0  0.978389  0
H  H123  1  0.20948960  0.59294384  0.18698629  1  0.044475  0  0.103563  0.112869  0  0.978452  0
H  H124  1  0.71723097  0.33726132  0.84529806  1  0.04315  0  0.1109  0.123144  0  1.019173  0
H  H125  1  0.28276580  0.66274281  0.15469552  1  0.043233  0  0.110905  0.123202  0  1.01907  0
H  H126  1  0.90966692  0.36743900  0.87287899  1  0.058064  0  0.102331  0.109459  0  0.982206  0
H  H127  1  0.09032500  0.63255689  0.12712306  1  0.057441  0  0.102324  0.109407  0  0.982266  0
H  H128  1  0.92408631  0.29764779  0.84286071  1  0.060728  0  0.101903  0.114342  0  1.010971  0
H  H129  1  0.07590559  0.70234755  0.15714294  1  0.060616  0  0.101915  0.114351  0  1.010954  0
H  H130  1  0.90729323  0.27252576  0.93446758  1  0.115426  0  0.11758  0.146411  0  0.981517  0
H  H131  1  0.09269699  0.72747121  0.06553481  1  0.115507  0  0.117589  0.146414  0  0.981528  0
C  C132  1  0.04882714  0.03669053  0.13661170  1  0.480771  0  0.054063  0.101524  0  3.931854  0
C  C133  1  0.95117338  0.96330377  0.86339025  1  0.481451  0  0.054036  0.101379  0  3.931757  0
C  C134  1  0.28686837  0.10557438  0.09855439  1  -0.069434  0  -0.08316  -0.18103  0  3.965548  0
C  C135  1  0.71313156  0.89442102  0.90145176  1  -0.06972  0  -0.083141  -0.181118  0  3.965625  0
C  C136  1  0.12623150  0.04238783  0.13418896  1  -0.067102  0  -0.078455  -0.175084  0  3.952598  0
C  C137  1  0.87376846  0.95760757  0.86581400  1  -0.067055  0  -0.078448  -0.174912  0  3.952545  0
C  C138  1  0.36470633  0.11287011  0.09375171  1  0.509165  0  0.051756  0.099361  0  3.939471  0
C  C139  1  0.63529479  0.88712639  0.90625330  1  0.508887  0  0.051811  0.099593  0  3.939368  0
C  C140  1  0.64038430  0.50759954  0.35982613  1  0.280872  0  0.08299  0.16248  0  4.056119  0
C  C141  1  0.35961698  0.49240189  0.64017180  1  0.280761  0  0.082949  0.162402  0  4.05609  0
C  C142  1  0.63899458  0.66177667  0.28579979  1  -0.009622  0  -0.008498  0.063793  0  3.988442  0
C  C143  1  0.36100381  0.33822474  0.71420007  1  -0.009901  0  -0.008542  0.063778  0  3.988477  0
C  C144  1  0.18120799  0.05862554  0.07123028  1  -0.034017  0  0.017679  0.109984  0  3.982652  0
C  C145  1  0.81879314  0.94137096  0.92877336  1  -0.033977  0  0.017698  0.109998  0  3.982497  0
C  C146  1  0.62504250  0.97787089  0.13667026  1  1.522923  0  0.219372  0.603457  0  4.165994  0
C  C147  1  0.37495926  0.02212891  0.86333416  1  1.522733  0  0.219345  0.603398  0  4.166121  0
C  C148  1  0.63792368  0.74231829  0.24633741  1  -0.053058  0  -0.00764  0.070888  0  3.992339  0
C  C149  1  0.36207639  0.25768204  0.75366393  1  -0.05301  0  -0.007603  0.070999  0  3.992313  0
C  C150  1  0.56790125  0.19508960  0.91755478  1  1.582596  0  0.186847  0.547664  0  4.248859  0
C  C151  1  0.43210002  0.80491293  0.08244587  1  1.582611  0  0.186911  0.547761  0  4.249044  0
C  C152  1  0.63846853  0.39639092  0.46798305  1  0.313048  0  0.093652  0.186606  0  4.029555  0
C  C153  1  0.36153334  0.60361161  0.53201658  1  0.312894  0  0.09359  0.186621  0  4.0296  0
C  C154  1  0.32069156  0.03526977  0.03281068  1  0.061784  0  -0.070407  -0.155056  0  3.886429  0
C  C155  1  0.67931130  0.96472729  0.96719376  1  0.061687  0  -0.070476  -0.155073  0  3.886388  0
C  C156  1  0.07654024  0.06243225  0.01908690  1  0.499779  0  0.056181  0.110178  0  3.910355  0
C  C157  1  0.92346331  0.93756810  0.98091239  1  0.499731  0  0.056071  0.110111  0  3.910522  0
C  C158  1  0.60138581  0.28194450  0.23613814  1  -0.033941  0  -0.003653  0.077661  0  4.000446  0
C  C159  1  0.39861202  0.71805801  0.76386138  1  -0.033816  0  -0.00361  0.077735  0  4.000472  0
C  C160  1  0.58216842  0.21148276  0.15534819  1  -0.003206  0  -0.020096  -0.043996  0  3.985458  0
C  C161  1  0.41782977  0.78851153  0.84465694  1  -0.003102  0  -0.020084  -0.044037  0  3.985323  0
C  C162  1  0.87550372  0.91710334  0.19640391  1  1.55743  0  0.194279  0.554237  0  4.235881  0
C  C163  1  0.12450333  0.08289812  0.80359196  1  1.55736  0  0.194113  0.554039  0  4.236221  0
C  C164  1  0.67327939  0.86484662  0.22500445  1  -0.062571  0  -0.084724  -0.084741  0  3.975731  0
C  C165  1  0.32672000  0.13514987  0.77499999  1  -0.062344  0  -0.08466  -0.08472  0  3.975453  0
C  C166  1  0.61995763  0.29560286  0.69104986  1  -0.024048  0  -0.005718  0.074266  0  4.001419  0
C  C167  1  0.38003958  0.70439745  0.30895069  1  -0.024239  0  -0.005767  0.07418  0  4.00151  0
C  C168  1  0.87996819  0.24950934  0.66943535  1  -0.002256  0  -0.01633  0.05206  0  4.016855  0
C  C169  1  0.12003474  0.75048881  0.33056361  1  -0.001614  0  -0.016338  0.05197  0  4.016794  0
C  C170  1  0.57240918  0.17340111  0.11389100  1  1.519668  0  0.215886  0.591842  0  4.142491  0
C  C171  1  0.42758501  0.82659425  0.88611447  1  1.519441  0  0.215856  0.591906  0  4.142188  0
C  C172  1  0.26362689  0.06629265  0.06736936  1  -0.030964  0  0.01539  0.104081  0  3.985302  0
C  C173  1  0.73637366  0.93370329  0.93263417  1  -0.030579  0  0.01539  0.104064  0  3.98538  0
C  C174  1  0.87955112  0.79013937  0.20342670  1  -0.034374  0  -0.081435  -0.085236  0  3.98608  0
C  C175  1  0.12045359  0.20986154  0.79657305  1  -0.034281  0  -0.081512  -0.0854  0  3.985932  0
C  C176  1  0.63216497  0.39020433  0.35889500  1  0.305194  0  0.094798  0.183499  0  4.029826  0
C  C177  1  0.36783919  0.60979712  0.64110326  1  0.30527  0  0.094851  0.183563  0  4.029816  0
C  C178  1  0.63061006  0.89632557  0.17357660  1  -0.016783  0  -0.024275  -0.048124  0  3.978389  0
C  C179  1  0.36939169  0.10367423  0.82642873  1  -0.015535  0  -0.024317  -0.048194  0  3.978577  0
C  C180  1  0.15524880  0.06790140  0.01277416  1  0.00643  0  -0.073085  -0.162231  0  3.901732  0
C  C181  1  0.84475582  0.93209622  0.98722742  1  0.006344  0  -0.073122  -0.162267  0  3.901858  0
C  C182  1  0.61213882  0.31827676  0.27836691  1  0.063379  0  -0.018923  0.041768  0  4.025009  0
C  C183  1  0.38786424  0.68172632  0.72162861  1  0.063479  0  -0.018862  0.041878  0  4.024909  0
C  C184  1  0.82734360  0.13046898  0.16245728  1  1.564431  0  0.225965  0.611614  0  4.153088  0
C  C185  1  0.17265890  0.86953464  0.83753813  1  1.564667  0  0.2259  0.611557  0  4.152834  0
C  C186  1  0.59691213  0.18591069  0.80292134  1  -0.02395  0  -0.080042  -0.080914  0  3.980136  0
C  C187  1  0.40308566  0.81409072  0.19708000  1  -0.023959  0  -0.080017  -0.080861  0  3.980021  0
C  C188  1  0.84076755  0.09996186  0.96846619  1  1.519814  0  0.215995  0.59055  0  4.197407  0
C  C189  1  0.15923142  0.90003956  0.03153264  1  1.519831  0  0.216064  0.590398  0  4.197612  0
C  C190  1  0.65951058  0.29335558  0.57374501  1  -0.144697  0  -0.091573  -0.111354  0  4.009599  0
C  C191  1  0.34049070  0.70664640  0.42625405  1  -0.144599  0  -0.09155  -0.1113  0  4.009526  0
C  C192  1  0.67616624  0.78904904  0.26125634  1  -0.05113  0  -0.093072  -0.132724  0  3.980929  0
C  C193  1  0.32383556  0.21095130  0.73874558  1  -0.051565  0  -0.093111  -0.132771  0  3.980814  0
C  C194  1  0.57779593  0.61738774  0.29380325  1  0.041016  0  -0.089804  -0.111459  0  3.977264  0
C  C195  1  0.42220246  0.38261422  0.70619684  1  0.04163  0  -0.089751  -0.111435  0  3.977363  0
C  C196  1  0.58953413  0.22861296  0.83926575  1  -0.051448  0  -0.021816  -0.037715  0  3.976705  0
C  C197  1  0.41046656  0.77138847  0.16073411  1  -0.050908  0  -0.021827  -0.037722  0  3.976609  0
C  C198  1  0.57831219  0.54156252  0.33029917  1  -0.05108  0  -0.094574  -0.16909  0  4.014367  0
C  C199  1  0.42168620  0.45843889  0.66970024  1  -0.051114  0  -0.094576  -0.169103  0  4.014494  0
C  C200  1  0.66494219  0.32519705  0.50219430  1  0.104173  0  -0.103813  -0.185413  0  4.015256  0
C  C201  1  0.33506312  0.67480496  0.49780396  1  0.104675  0  -0.103759  -0.185352  0  4.015216  0
C  C202  1  0.59736552  0.77461048  0.19306878  1  -0.067959  0  -0.093343  -0.131386  0  3.973298  0
C  C203  1  0.40263167  0.22539093  0.80693586  1  -0.068095  0  -0.0934  -0.131607  0  3.973306  0
C  C204  1  0.87191573  0.83552098  0.23708428  1  0.023145  0  -0.016696  -0.031336  0  3.966448  0
C  C205  1  0.12808904  0.16448102  0.76291000  1  0.023772  0  -0.016532  -0.031139  0  3.96633  0
C  C206  1  0.39743683  0.04467241  0.03083013  1  0.451908  0  0.061169  0.117345  0  3.912229  0
C  C207  1  0.60256487  0.95532409  0.96917431  1  0.452311  0  0.061164  0.117335  0  3.912129  0
C  C208  1  0.92361306  0.15321868  0.84759763  1  -0.135472  0  -0.088022  -0.085836  0  3.988191  0
C  C209  1  0.07638700  0.84677945  0.15240099  1  -0.135346  0  -0.088065  -0.085892  0  3.988146  0
C  C210  1  0.89713440  0.60327120  0.34932756  1  0.032709  0  -0.020695  0.039018  0  4.023535  0
C  C211  1  0.10286052  0.39673074  0.65067458  1  0.033917  0  -0.020766  0.038935  0  4.023634  0
C  C212  1  0.58361567  0.28693399  0.35140189  1  0.002696  0  -0.091648  -0.117924  0  4.009639  0
C  C213  1  0.41638734  0.71306745  0.64859524  1  0.002568  0  -0.091674  -0.11794  0  4.009668  0
C  C214  1  0.88714585  0.68265890  0.31172901  1  -0.063927  0  -0.008765  0.061724  0  4.027502  0
C  C215  1  0.11285308  0.31734197  0.68827324  1  -0.06486  0  -0.008594  0.061851  0  4.027251  0
C  C216  1  0.83872353  0.15722156  0.21260832  1  -0.019063  0  -0.018568  -0.039171  0  3.959124  0
C  C217  1  0.16127953  0.84278151  0.78738675  1  -0.018777  0  -0.01851  -0.039162  0  3.959132  0
C  C218  1  0.60967133  0.43503495  0.50790876  1  -0.015842  0  -0.103006  -0.180415  0  4.002536  0
C  C219  1  0.39032471  0.56496425  0.49209066  1  -0.015629  0  -0.103074  -0.180701  0  4.002656  0
C  C220  1  0.90068280  0.33069994  0.52324594  1  0.289044  0  0.091151  0.181282  0  4.039  0
C  C221  1  0.09932023  0.66930204  0.47675051  1  0.289295  0  0.091213  0.18141  0  4.038836  0
C  C222  1  0.86180174  0.21770946  0.29952791  1  -0.04178  0  -0.00609  0.075325  0  4.011267  0
C  C223  1  0.13820009  0.78229143  0.70047149  1  -0.042548  0  -0.006103  0.075235  0  4.011402  0
C  C224  1  0.64654345  0.25793244  0.13408617  1  -0.076045  0  -0.080666  -0.076982  0  3.973077  0
C  C225  1  0.35345252  0.74206402  0.86591485  1  -0.076828  0  -0.080699  -0.076937  0  3.97285  0
C  C226  1  0.66178941  0.42163476  0.28591071  1  -0.028065  0  -0.099425  -0.178276  0  4.008724  0
C  C227  1  0.33821247  0.57836777  0.71408710  1  -0.027946  0  -0.099394  -0.178256  0  4.008719  0
C  C228  1  0.70146243  0.55072287  0.35305476  1  -0.049384  0  -0.096492  -0.169061  0  3.997671  0
C  C229  1  0.29853713  0.44927910  0.64694373  1  -0.0494  0  -0.09654  -0.169155  0  3.997619  0
C  C230  1  0.61030975  0.21895659  0.73029661  1  -0.147098  0  -0.090917  -0.139764  0  3.976047  0
C  C231  1  0.38968687  0.78104317  0.26970429  1  -0.147055  0  -0.090945  -0.139867  0  3.976179  0
C  C232  1  0.84957726  0.13251613  0.89153514  1  0.007297  0  -0.029097  -0.062895  0  3.99747  0
C  C233  1  0.15042166  0.86748309  0.10846462  1  0.007185  0  -0.029122  -0.062919  0  3.99761  0
C  C234  1  0.60602822  0.40288957  0.57915519  1  -0.028815  0  -0.093933  -0.114226  0  4.012226  0
C  C235  1  0.39396612  0.59711071  0.42084411  1  -0.028726  0  -0.093922  -0.114075  0  4.012144  0
C  C236  1  0.59904919  0.30494069  0.80084914  1  0.042392  0  -0.088199  -0.103042  0  4.016804  0
C  C237  1  0.40094861  0.69506017  0.19915152  1  0.041839  0  -0.088254  -0.103148  0  4.016938  0
C  C238  1  0.62951225  0.33077925  0.61457226  1  0.028656  0  -0.019078  0.044305  0  4.013563  0
C  C239  1  0.37048552  0.66922052  0.38542749  1  0.028706  0  -0.019061  0.044299  0  4.013554  0
C  C240  1  0.79527246  0.18403747  0.78978341  1  0.052509  0  -0.096881  -0.143055  0  3.975789  0
C  C241  1  0.20472982  0.81595683  0.21021500  1  0.052449  0  -0.096911  -0.143125  0  3.975724  0
C  C242  1  0.59303353  0.85029282  0.15786605  1  -0.035735  0  -0.089896  -0.094432  0  4.003071  0
C  C243  1  0.40696249  0.14970749  0.84213883  1  -0.036063  0  -0.089853  -0.09433  0  4.00312  0
C  C244  1  0.53709802  0.23497622  0.25700628  1  -0.052264  0  -0.095217  -0.144549  0  3.995677  0
C  C245  1  0.46290149  0.76502465  0.74299541  1  -0.052231  0  -0.095156  -0.144532  0  3.995599  0
C  C246  1  0.59270078  0.32189431  0.39104387  1  -0.047135  0  -0.103115  -0.186108  0  4.010562  0
C  C247  1  0.40730283  0.67810768  0.60895245  1  -0.046876  0  -0.103127  -0.186122  0  4.010676  0
C  C248  1  0.84024757  0.35422186  0.37476138  1  -0.041315  0  -0.09508  -0.165181  0  3.997163  0
C  C249  1  0.15975200  0.64578065  0.62523643  1  -0.04062  0  -0.095161  -0.165355  0  3.997212  0
C  C250  1  0.87577634  0.72837857  0.34576850  1  -0.084162  0  -0.094323  -0.148697  0  3.999896  0
C  C251  1  0.12421973  0.27162228  0.65423113  1  -0.084664  0  -0.094461  -0.148729  0  3.999924  0
C  C252  1  0.78522912  0.14758558  0.86207612  1  -0.152104  0  -0.086875  -0.08806  0  3.965961  0
C  C253  1  0.21477096  0.85241254  0.13791978  1  -0.151871  0  -0.086802  -0.087962  0  3.965851  0
C  C254  1  0.70035712  0.62675119  0.31669680  1  -0.054894  0  -0.092847  -0.115129  0  3.970501  0
C  C255  1  0.29964181  0.37324913  0.68330431  1  -0.054863  0  -0.092845  -0.115152  0  3.970507  0
C  C256  1  0.86917279  0.20745534  0.74568281  1  -0.103852  0  -0.006135  0.074992  0  4.011973  0
C  C257  1  0.13082783  0.79254169  0.25431389  1  -0.103691  0  -0.006122  0.075081  0  4.011973  0
C  C258  1  0.65149923  0.38659515  0.24692082  1  -0.094931  0  -0.09003  -0.115622  0  4.006887  0
C  C259  1  0.34850270  0.61340957  0.75307606  1  -0.095329  0  -0.090061  -0.115683  0  4.006845  0
C  C260  1  0.78691138  0.20188460  0.29930577  1  -0.056839  0  -0.093592  -0.139917  0  3.97708  0
C  C261  1  0.21309164  0.79811684  0.70069135  1  -0.055417  0  -0.09363  -0.139962  0  3.97721  0
C  C262  1  0.52732595  0.20069262  0.21710444  1  -0.04789  0  -0.082927  -0.081523  0  3.988482  0
C  C263  1  0.47267176  0.79930550  0.78289919  1  -0.048007  0  -0.082933  -0.081488  0  3.988529  0
C  C264  1  0.84028970  0.22933074  0.63241741  1  -0.017016  0  -0.090762  -0.112874  0  4.004668  0
C  C265  1  0.15971383  0.77066796  0.36757984  1  -0.017907  0  -0.090746  -0.112796  0  4.004686  0
C  C266  1  0.88762067  0.71512196  0.23999144  1  -0.078927  0  -0.092442  -0.142533  0  3.994321  0
C  C267  1  0.11237998  0.28487782  0.76000865  1  -0.079306  0  -0.092489  -0.142607  0  3.994505  0
C  C268  1  0.61600204  0.33762550  0.72817995  1  -0.155176  0  -0.095814  -0.14329  0  4.002324  0
C  C269  1  0.38399345  0.66237535  0.27182026  1  -0.154962  0  -0.095707  -0.143119  0  4.002251  0
C  C270  1  0.77545072  0.17148635  0.25674658  1  -0.019646  0  -0.079524  -0.075881  0  3.968101  0
C  C271  1  0.22455174  0.82851563  0.74324952  1  -0.020903  0  -0.079577  -0.075964  0  3.96821  0
C  C272  1  0.76476963  0.25981045  0.95422832  1  1.362285  0  0.175997  0.300028  0  4.077458  0
C  C273  1  0.23521949  0.74018761  0.04577065  1  1.361727  0  0.175956  0.300002  0  4.077341  0
C  C274  1  0.65554397  0.29287607  0.17362605  1  0.017414  0  -0.090252  -0.135314  0  3.984919  0
C  C275  1  0.34445380  0.70712314  0.82637348  1  0.017876  0  -0.090321  -0.135587  0  3.98493  0
C  C276  1  0.89857516  0.33405853  0.41166086  1  0.279367  0  0.087379  0.169301  0  4.049497  0
C  C277  1  0.10142334  0.66594726  0.58833534  1  0.279982  0  0.087311  0.169154  0  4.04959  0
C  C278  1  0.93321236  0.19091524  0.77569154  1  0.036107  0  -0.097374  -0.14338  0  3.985917  0
C  C279  1  0.06678823  0.80908125  0.22430766  1  0.035845  0  -0.097329  -0.143405  0  3.985897  0
C  C280  1  0.86870231  0.80363811  0.30894752  1  -0.004709  0  -0.080188  -0.085266  0  3.976002  0
C  C281  1  0.13129900  0.19636497  0.69105108  1  -0.004561  0  -0.080183  -0.085267  0  3.976137  0
C  C282  1  0.94118228  0.35123549  0.55957596  1  -0.06591  0  -0.10048  -0.180418  0  4.011177  0
C  C283  1  0.05881954  0.64876485  0.44042414  1  -0.066229  0  -0.100485  -0.18041  0  4.011072  0
C  C284  1  0.87403361  0.25580449  0.33982866  1  -0.014225  0  -0.013245  0.057244  0  4.012203  0
C  C285  1  0.12596883  0.74419749  0.66016972  1  -0.014458  0  -0.01314  0.057374  0  4.012245  0
C  C286  1  0.85082517  0.26874349  0.56047359  1  0.003885  0  -0.098943  -0.174711  0  4.012441  0
C  C287  1  0.14917899  0.73125796  0.43952422  1  0.003629  0  -0.099005  -0.174874  0  4.012364  0
C  C288  1  0.93817703  0.56353898  0.31386737  1  -0.062099  0  -0.093509  -0.119552  0  4.019205  0
C  C289  1  0.06182080  0.43646407  0.68613419  1  -0.062034  0  -0.093516  -0.119531  0  4.019213  0
C  C290  1  0.94380665  0.48804955  0.34757031  1  -0.05587  0  -0.102357  -0.180937  0  4.020248  0
C  C291  1  0.05619231  0.51195297  0.65243262  1  -0.056407  0  -0.10233  -0.180992  0  4.020259  0
C  C292  1  0.82805607  0.31524987  0.33971274  1  -0.023651  0  -0.092448  -0.118279  0  3.980132  0
C  C293  1  0.17194406  0.68475155  0.66028496  1  -0.023979  0  -0.092484  -0.118272  0  3.98024  0
C  C294  1  0.90775892  0.44854206  0.41881741  1  0.359127  0  0.095699  0.186718  0  4.045136  0
C  C295  1  0.09223830  0.55145934  0.58118450  1  0.359408  0  0.095676  0.186654  0  4.045253  0
C  C296  1  0.93084438  0.31092934  0.63151845  1  -0.014479  0  -0.092512  -0.115182  0  3.996073  0
C  C297  1  0.06915909  0.68906717  0.36848155  1  -0.014456  0  -0.092519  -0.115244  0  3.996016  0
C  C298  1  0.91361875  0.17054837  0.21429123  1  -0.04338  0  -0.08479  -0.081305  0  3.988857  0
C  C299  1  0.08638316  0.82945525  0.78570520  1  -0.044264  0  -0.084829  -0.081423  0  3.989136  0
C  C300  1  0.92500665  0.19993980  0.25756493  1  -0.035647  0  -0.097693  -0.146347  0  4.008107  0
C  C301  1  0.07499694  0.80006219  0.74243322  1  -0.034627  0  -0.097645  -0.146115  0  4.008229  0
C  C302  1  0.86396517  0.56342623  0.42120064  1  -0.10519  0  -0.089094  -0.111686  0  4.000804  0
C  C303  1  0.13603435  0.43657519  0.57880173  1  -0.105351  0  -0.089076  -0.111654  0  4.000611  0
C  C304  1  0.86865255  0.48765246  0.45554770  1  0.034689  0  -0.099734  -0.181819  0  3.999374  0
C  C305  1  0.13134701  0.51235116  0.54445420  1  0.034622  0  -0.099631  -0.181693  0  3.999141  0
C  C306  1  0.94462721  0.27470404  0.41254693  1  -0.034674  0  -0.096691  -0.171657  0  4.012446  0
C  C307  1  0.05537420  0.72530287  0.58744960  1  -0.034723  0  -0.096584  -0.171405  0  4.01263  0
C  C308  1  0.93255236  0.23630805  0.37681364  1  -0.049213  0  -0.091868  -0.121502  0  4.001202  0
C  C309  1  0.06744899  0.76369667  0.62318382  1  -0.049199  0  -0.091875  -0.121564  0  4.001291  0
C  C310  1  0.77953017  0.34802584  0.83193896  1  0.273086  0  -0.12688  -0.2744  0  3.928414  0
C  C311  1  0.22046705  0.65197391  0.16805909  1  0.272377  0  -0.126912  -0.274439  0  3.928382  0
C  C312  1  0.89285611  0.31131400  0.88533112  1  0.230229  0  -0.130608  -0.270719  0  3.899933  0
C  C313  1  0.10713466  0.68868188  0.11467161  1  0.230592  0  -0.130596  -0.270598  0  3.899837  0
N  N314  1  0.41935644  0.08269861  0.06052434  1  -1.24449  0  -0.318456  -0.230167  0  3.527953  0
N  N315  1  0.58064525  0.91729790  0.93948101  1  -1.244575  0  -0.318402  -0.23029  0  3.5281  0
N  N316  1  0.02434296  0.04734642  0.07966170  1  -1.253654  0  -0.325449  -0.226081  0  3.540881  0
N  N317  1  0.97566054  0.95265173  0.92033852  1  -1.254372  0  -0.325399  -0.225957  0  3.540791  0
N  N318  1  0.64089726  0.42933569  0.39595876  1  -1.256097  0  -0.252762  -0.154888  0  3.671207  0
N  N319  1  0.35910517  0.57066575  0.60403985  1  -1.256173  0  -0.252718  -0.154746  0  3.671062  0
N  N320  1  0.90917690  0.37159671  0.45030938  1  -1.242065  0  -0.257285  -0.161387  0  3.678709  0
N  N321  1  0.09082212  0.62840635  0.54968831  1  -1.24176  0  -0.257323  -0.161339  0  3.678555  0
N  N322  1  0.81023610  0.30562511  0.89324376  1  -1.210314  0  -0.282188  0.026111  0  3.721129  0
N  N323  1  0.18975528  0.69437187  0.10675749  1  -1.209468  0  -0.282258  0.025892  0  3.721007  0
O  O324  1  0.75855265  0.11839591  0.16272129  1  -1.158923  0  -0.306354  -0.541408  0  2.348177  0
O  O325  1  0.24145212  0.88160608  0.83727345  1  -1.159126  0  -0.306318  -0.54128  0  2.347969  0
O  O326  1  0.90290895  0.09113954  0.98962319  1  -1.166457  0  -0.315796  -0.5424  0  2.386136  0
O  O327  1  0.09708796  0.90887283  0.01037423  1  -1.16642  0  -0.315901  -0.542392  0  2.38629  0
O  O328  1  0.57658046  0.00212294  0.09769593  1  -1.1725  0  -0.323198  -0.558555  0  2.351931  0
O  O329  1  0.42342535  0.99787688  0.90230587  1  -1.172657  0  -0.323178  -0.558499  0  2.351871  0
O  O330  1  0.77294941  0.08407777  0.00819599  1  -1.196268  0  -0.319653  -0.576951  0  2.36921  0
O  O331  1  0.22704832  0.91591925  0.99180310  1  -1.196274  0  -0.319609  -0.576802  0  2.369363  0
O  O332  1  0.66812692  0.01627340  0.14709509  1  -1.173711  0  -0.320263  -0.560408  0  2.335584  0
O  O333  1  0.33187365  0.98372474  0.85291071  1  -1.173679  0  -0.320271  -0.560377  0  2.335565  0
O  O334  1  0.62939265  0.17027611  0.06623166  1  -1.198851  0  -0.321601  -0.589408  0  2.417634  0
O  O335  1  0.37060146  0.82971597  0.93377565  1  -1.1989  0  -0.32157  -0.589374  0  2.417556  0
O  O336  1  0.87328321  0.94281977  0.13075506  1  -1.160805  0  -0.337659  -0.572332  0  2.301913  0
O  O337  1  0.12672613  0.05718061  0.86923991  1  -1.161194  0  -0.337654  -0.572262  0  2.301988  0
O  O338  1  0.50750838  0.14394836  0.12489441  1  -1.157441  0  -0.307102  -0.526252  0  2.250632  0
O  O339  1  0.49248702  0.85604975  0.87511014  1  -1.157337  0  -0.307118  -0.526346  0  2.250466  0
O  O340  1  0.57700643  0.12474655  0.95024691  1  -1.164415  0  -0.339493  -0.571853  0  2.277488  0
O  O341  1  0.42299194  0.87525487  0.04975432  1  -1.16441  0  -0.339512  -0.571893  0  2.277515  0
O  O342  1  0.88800496  0.12288591  0.12145775  1  -1.177794  0  -0.324082  -0.561773  0  2.40425  0
O  O343  1  0.11199807  0.87711608  0.87853824  1  -1.177958  0  -0.324064  -0.561741  0  2.404017  0
O  O344  1  0.78869205  0.22165560  0.00823683  1  -1.159761  0  -0.29802  -0.464279  0  2.343819  0
O  O345  1  0.21129586  0.77834081  0.99176579  1  -1.159182  0  -0.29793  -0.464094  0  2.34385  0
O  O346  1  0.88470981  0.95687214  0.22405506  1  -1.169518  0  -0.326992  -0.547563  0  2.101302  0
O  O347  1  0.11529952  0.04312769  0.77593968  1  -1.169292  0  -0.326914  -0.547513  0  2.101384  0
O  O348  1  0.54170440  0.23409798  0.94832305  1  -1.167853  0  -0.341129  -0.555084  0  2.077107  0
O  O349  1  0.45830266  0.76590569  0.05167736  1  -1.167799  0  -0.341185  -0.555138  0  2.077302  0
