# generated using pymatgen
data_CaH12C7(NO4)2
_symmetry_space_group_name_H-M   'P 1'
_cell_length_a   7.72249939
_cell_length_b   8.32853735
_cell_length_c   18.73310000
_cell_angle_alpha   90.00000000
_cell_angle_beta   90.00000000
_cell_angle_gamma   105.16685280
_symmetry_Int_Tables_number   1
_chemical_formula_structural   CaH12C7(NO4)2
_chemical_formula_sum   'Ca4 H48 C28 N8 O32'
_cell_volume   1162.89149440
_cell_formula_units_Z   4
loop_
 _symmetry_equiv_pos_site_id
 _symmetry_equiv_pos_as_xyz
  1  'x, y, z'
loop_
 _atom_site_type_symbol
 _atom_site_label
 _atom_site_symmetry_multiplicity
 _atom_site_fract_x
 _atom_site_fract_y
 _atom_site_fract_z
 _atom_site_occupancy
 _atom_site_hle17_bader_spin_density
 _atom_site_hle17_ddec_charge
 _atom_site_hle17_ddec_spin_density
 _atom_site_hle17_ddec_sum_bond_order
 _atom_site_hle17_magmom
 _atom_site_hse06_10hf_bader_spin_density
 _atom_site_hse06_10hf_ddec_charge
 _atom_site_hse06_10hf_ddec_spin_density
 _atom_site_hse06_10hf_ddec_sum_bond_order
 _atom_site_hse06_10hf_magmom
 _atom_site_hse06_bader_spin_density
 _atom_site_hse06_ddec_charge
 _atom_site_hse06_ddec_spin_density
 _atom_site_hse06_ddec_sum_bond_order
 _atom_site_hse06_magmom
 _atom_site_pbe_bader_charge
 _atom_site_pbe_bader_spin_density
 _atom_site_pbe_cm5_charge
 _atom_site_pbe_ddec_charge
 _atom_site_pbe_ddec_spin_density
 _atom_site_pbe_ddec_sum_bond_order
 _atom_site_pbe_magmom
Ca  Ca0  1  0.23672086  0.46193925  0.97248080  1  0  1.552142  0  1.085795  0  0  1.421492  0  1.431903  0  0  1.466193  0  1.386026  0  1.64246  0  0.867085  1.38829  0  1.463837  0
Ca  Ca1  1  0.26328031  0.03805963  0.47248133  1  0  1.552143  0  1.085786  0  0  1.421492  0  1.431896  0  0  1.466193  0  1.386018  0  1.642474  0  0.867086  1.388315  0  1.463787  0
Ca  Ca2  1  0.76327959  0.53806101  0.02751920  1  0  1.552152  0  1.085776  0  0  1.421502  0  1.43188  0  0  1.466199  0  1.386007  0  1.642461  0  0.867086  1.388292  0  1.463828  0
Ca  Ca3  1  0.73671944  0.96193814  0.52751867  1  0  1.552159  0  1.085747  0  0  1.421502  0  1.431851  0  0  1.466203  0  1.385976  0  1.642482  0  0.867086  1.388282  0  1.463817  0
H  H4  1  0.11607437  0.00426078  0.04529202  1  0  0.117245  0  0.908076  0  0  0.131776  0  0.965172  0  0  0.133826  0  0.96335  0  0.099608  0  0.128724  0.130286  0  0.966597  0
H  H5  1  0.38392326  0.49573935  0.54529149  1  0  0.117232  0  0.908142  0  0  0.131785  0  0.965229  0  0  0.13383  0  0.963403  0  0.09941  0  0.128734  0.130295  0  0.966653  0
H  H6  1  0.88392419  0.99574197  0.95470798  1  0  0.117182  0  0.908106  0  0  0.131746  0  0.965199  0  0  0.13378  0  0.963367  0  0.099467  0  0.128717  0.130256  0  0.966624  0
H  H7  1  0.61607778  0.50425842  0.45470851  1  0  0.117205  0  0.908096  0  0  0.131754  0  0.965187  0  0  0.133791  0  0.963356  0  0.099485  0  0.128715  0.130264  0  0.966612  0
H  H8  1  0.11031128  0.87021883  0.11976235  1  0  0.11879  0  0.916638  0  0  0.12874  0  0.980707  0  0  0.132068  0  0.977298  0  0.137163  0  0.128889  0.126266  0  0.98333  0
H  H9  1  0.38968802  0.62978157  0.61976235  1  0  0.11879  0  0.916623  0  0  0.128741  0  0.98071  0  0  0.132063  0  0.977298  0  0.137158  0  0.128894  0.126267  0  0.983334  0
H  H10  1  0.88968857  0.12978392  0.88023712  1  0  0.118821  0  0.916603  0  0  0.12879  0  0.980675  0  0  0.132107  0  0.977261  0  0.137136  0  0.128926  0.126315  0  0.983299  0
H  H11  1  0.61031432  0.37021621  0.38023765  1  0  0.118781  0  0.916623  0  0  0.128728  0  0.980705  0  0  0.132043  0  0.977292  0  0.137155  0  0.128898  0.126254  0  0.983328  0
H  H12  1  0.44940940  0.09288372  0.05968633  1  0  0.301047  0  0.91437  0  0  0.280819  0  0.982018  0  0  0.288528  0  0.976602  0  0.511372  0  0.31617  0.275355  0  0.98602  0
H  H13  1  0.05059117  0.40711766  0.55968580  1  0  0.301042  0  0.914367  0  0  0.280813  0  0.98201  0  0  0.288522  0  0.976593  0  0.511368  0  0.316173  0.275346  0  0.986017  0
H  H14  1  0.55059080  0.90712028  0.94031420  1  0  0.301064  0  0.914347  0  0  0.280838  0  0.981988  0  0  0.288546  0  0.976579  0  0.511397  0  0.316175  0.275374  0  0.985992  0
H  H15  1  0.94941116  0.59288012  0.44031367  1  0  0.30106  0  0.914331  0  0  0.280828  0  0.981986  0  0  0.288535  0  0.976576  0  0.511399  0  0.31617  0.275362  0  0.985992  0
H  H16  1  0.59587254  0.24527527  0.21446958  1  0  0.142061  0  0.935905  0  0  0.153323  0  0.996301  0  0  0.157127  0  0.993513  0  0.096156  0  0.118931  0.150643  0  0.998419  0
H  H17  1  0.90412716  0.25472735  0.71446958  1  0  0.142036  0  0.935909  0  0  0.153308  0  0.996298  0  0  0.157114  0  0.993508  0  0.096175  0  0.118916  0.150627  0  0.998415  0
H  H18  1  0.40412896  0.75472873  0.78553042  1  0  0.142074  0  0.935873  0  0  0.153336  0  0.99627  0  0  0.157142  0  0.993478  0  0.096188  0  0.118923  0.150656  0  0.998386  0
H  H19  1  0.09587199  0.74527291  0.28552989  1  0  0.142026  0  0.93593  0  0  0.153284  0  0.996332  0  0  0.15709  0  0.993542  0  0.096156  0  0.118899  0.150604  0  0.998447  0
H  H20  1  0.66751490  0.20160758  0.12853505  1  0  0.147229  0  0.936528  0  0  0.156275  0  0.999028  0  0  0.161237  0  0.995241  0  0.118758  0  0.124563  0.152795  0  1.001807  0
H  H21  1  0.83248376  0.29839131  0.62853452  1  0  0.147197  0  0.936547  0  0  0.156244  0  0.999052  0  0  0.161205  0  0.995263  0  0.11873  0  0.124548  0.152765  0  1.001829  0
H  H22  1  0.33248555  0.79839269  0.87146548  1  0  0.147199  0  0.936559  0  0  0.156248  0  0.999057  0  0  0.161212  0  0.995266  0  0.118732  0  0.12455  0.152767  0  1.001835  0
H  H23  1  0.16751539  0.70160896  0.37146441  1  0  0.147217  0  0.936534  0  0  0.156267  0  0.99903  0  0  0.16123  0  0.995237  0  0.118738  0  0.124562  0.152787  0  1.00181  0
H  H24  1  0.81919207  0.23342346  0.28027929  1  0  0.292718  0  0.935357  0  0  0.27401  0  1.000052  0  0  0.281254  0  0.995418  0  0.511609  0  0.307074  0.268933  0  1.003384  0
H  H25  1  0.68080988  0.26657791  0.78027876  1  0  0.292737  0  0.935364  0  0  0.274023  0  1.000061  0  0  0.281257  0  0.995428  0  0.511608  0  0.307067  0.268945  0  1.003394  0
H  H26  1  0.18080838  0.76657680  0.71972124  1  0  0.292744  0  0.935336  0  0  0.274023  0  1.000039  0  0  0.281266  0  0.995404  0  0.511608  0  0.307079  0.268945  0  1.003374  0
H  H27  1  0.31919057  0.73342235  0.21972071  1  0  0.292668  0  0.9354  0  0  0.273951  0  1.000124  0  0  0.281186  0  0.995492  0  0.511604  0  0.307034  0.268871  0  1.00346  0
H  H28  1  0.07399211  0.11905174  0.30931346  1  0  0.114966  0  0.936029  0  0  0.127833  0  0.997128  0  0  0.129907  0  0.99558  0  0.130575  0  0.124981  0.126309  0  0.998347  0
H  H29  1  0.42600941  0.38094839  0.80931400  1  0  0.11502  0  0.935998  0  0  0.127897  0  0.997089  0  0  0.129969  0  0.995543  0  0.130587  0  0.125004  0.126375  0  0.998308  0
H  H30  1  0.92600375  0.88094604  0.69068814  1  0  0.115036  0  0.935934  0  0  0.127885  0  0.997076  0  0  0.129958  0  0.995526  0  0.130611  0  0.124983  0.126363  0  0.998295  0
H  H31  1  0.57399233  0.61905187  0.19068547  1  0  0.115001  0  0.936017  0  0  0.127867  0  0.997105  0  0  0.12994  0  0.995558  0  0.130584  0  0.124987  0.126344  0  0.998326  0
H  H32  1  0.94787628  0.92540244  0.27411694  1  0  0.110368  0  0.929663  0  0  0.122534  0  0.992817  0  0  0.12529  0  0.989798  0  0.121574  0  0.121931  0.120466  0  0.995139  0
H  H33  1  0.55212439  0.57459796  0.77411747  1  0  0.110377  0  0.929674  0  0  0.122547  0  0.992838  0  0  0.125301  0  0.989821  0  0.121568  0  0.121926  0.12048  0  0.995161  0
H  H34  1  0.05211958  0.07459534  0.72588360  1  0  0.110357  0  0.929703  0  0  0.122518  0  0.992874  0  0  0.125275  0  0.989856  0  0.121543  0  0.121916  0.120462  0  0.995186  0
H  H35  1  0.44787476  0.42540230  0.22588199  1  0  0.110383  0  0.929698  0  0  0.122539  0  0.992855  0  0  0.125296  0  0.989839  0  0.121574  0  0.121923  0.120486  0  0.995165  0
H  H36  1  0.42736098  0.20620673  0.95975893  1  0  0.418403  0  0.889974  0  0  0.385519  0  0.958588  0  0  0.396555  0  0.942357  0  0.645715  0  0.296649  0.377687  0  0.9701  0
H  H37  1  0.07263924  0.29379340  0.45975946  1  0  0.418372  0  0.890003  0  0  0.385488  0  0.958618  0  0  0.396525  0  0.942386  0  0.645701  0  0.296642  0.377656  0  0.97013  0
H  H38  1  0.57263852  0.79379478  0.04024107  1  0  0.418406  0  0.889943  0  0  0.385525  0  0.958555  0  0  0.396561  0  0.942323  0  0.645716  0  0.296643  0.377692  0  0.970067  0
H  H39  1  0.92736121  0.70620686  0.54024054  1  0  0.418393  0  0.889989  0  0  0.385507  0  0.958605  0  0  0.396545  0  0.942373  0  0.64571  0  0.296648  0.377674  0  0.970119  0
H  H40  1  0.28861502  0.15761769  0.89689907  1  0  0.422954  0  0.884664  0  0  0.391296  0  0.950248  0  0  0.401843  0  0.935009  0  0.631069  0  0.29109  0.383853  0  0.960981  0
H  H41  1  0.21138521  0.34238244  0.39689907  1  0  0.422916  0  0.884688  0  0  0.391263  0  0.950268  0  0  0.40181  0  0.935029  0  0.631068  0  0.291079  0.38382  0  0.961001  0
H  H42  1  0.71138449  0.84238382  0.10310093  1  0  0.422967  0  0.884658  0  0  0.391302  0  0.950249  0  0  0.401849  0  0.935009  0  0.63106  0  0.291072  0.383859  0  0.960982  0
H  H43  1  0.78861654  0.65761782  0.60310093  1  0  0.422913  0  0.884691  0  0  0.39126  0  0.950271  0  0  0.401806  0  0.935032  0  0.631071  0  0.291075  0.383818  0  0.961003  0
H  H44  1  0.13408469  0.48884249  0.80675969  1  0  0.424146  0  0.876446  0  0  0.392423  0  0.941587  0  0  0.402697  0  0.926593  0  0.650339  0  0.290468  0.385112  0  0.95224  0
H  H45  1  0.36591554  0.01115764  0.30676023  1  0  0.424179  0  0.876399  0  0  0.392459  0  0.941534  0  0  0.402732  0  0.92654  0  0.650352  0  0.290485  0.385148  0  0.952187  0
H  H46  1  0.86591576  0.51115777  0.19323977  1  0  0.424198  0  0.876377  0  0  0.392472  0  0.941522  0  0  0.402746  0  0.926527  0  0.650352  0  0.290473  0.385161  0  0.952176  0
H  H47  1  0.63408361  0.98884262  0.69323924  1  0  0.424172  0  0.876425  0  0  0.392453  0  0.941555  0  0  0.402729  0  0.926557  0  0.650363  0  0.290455  0.385142  0  0.952208  0
H  H48  1  0.98267739  0.48936871  0.86386450  1  0  0.429497  0  0.875814  0  0  0.395119  0  0.945904  0  0  0.40697  0  0.928558  0  0.659126  0  0.294799  0.386722  0  0.958169  0
H  H49  1  0.51732326  0.01063266  0.36386450  1  0  0.429488  0  0.87583  0  0  0.395112  0  0.945916  0  0  0.406963  0  0.928572  0  0.659125  0  0.294794  0.386716  0  0.958181  0
H  H50  1  0.01732341  0.51063280  0.13613444  1  0  0.429572  0  0.875714  0  0  0.395167  0  0.945843  0  0  0.407018  0  0.928498  0  0.65914  0  0.294812  0.38677  0  0.958109  0
H  H51  1  0.48267519  0.98936511  0.63613497  1  0  0.429505  0  0.875801  0  0  0.395116  0  0.945911  0  0  0.406966  0  0.928567  0  0.659147  0  0.294787  0.38672  0  0.958176  0
C  C52  1  0.20573102  0.78759332  0.02270527  1  0  0.700597  0  3.859082  0  0  0.649474  0  4.164756  0  0  0.682582  0  4.157159  0  1.585886  0  0.226889  0.626937  0  4.169165  0
C  C53  1  0.29426828  0.71240707  0.52270473  1  0  0.700475  0  3.859091  0  0  0.649339  0  4.164811  0  0  0.68244  0  4.157216  0  1.585915  0  0.226833  0.626801  0  4.169222  0
C  C54  1  0.79427013  0.21240943  0.97729473  1  0  0.700554  0  3.858997  0  0  0.64944  0  4.164691  0  0  0.682523  0  4.157091  0  1.585966  0  0.226871  0.626904  0  4.169099  0
C  C55  1  0.70573276  0.28759070  0.47729527  1  0  0.700499  0  3.859061  0  0  0.649344  0  4.164804  0  0  0.682433  0  4.157209  0  1.585917  0  0.226823  0.626809  0  4.16921  0
C  C56  1  0.18974453  0.92651211  0.07319077  1  0  -0.105409  0  3.639485  0  0  -0.164309  0  3.895881  0  0  -0.163227  0  3.900388  0  0.282375  0  -0.04899  -0.165035  0  3.892979  0
C  C57  1  0.31025642  0.57348954  0.57319024  1  0  -0.105333  0  3.639361  0  0  -0.164291  0  3.895848  0  0  -0.163182  0  3.900321  0  0.282578  0  -0.04901  -0.165019  0  3.892948  0
C  C58  1  0.81025697  0.07349189  0.92680923  1  0  -0.10528  0  3.639318  0  0  -0.164274  0  3.895816  0  0  -0.163115  0  3.900221  0  0.28256  0  -0.049011  -0.164999  0  3.892914  0
C  C59  1  0.68974592  0.42650824  0.42680923  1  0  -0.105308  0  3.639421  0  0  -0.164232  0  3.895866  0  0  -0.163086  0  3.900292  0  0.28257  0  -0.049013  -0.164959  0  3.892963  0
C  C60  1  0.41739244  0.03588011  0.16465721  1  0  0.622102  0  3.774145  0  0  0.569693  0  4.072105  0  0  0.599379  0  4.071134  0  1.425048  0  0.252086  0.549735  0  4.072123  0
C  C61  1  0.08260684  0.46412127  0.66465774  1  0  0.622071  0  3.77424  0  0  0.56964  0  4.072235  0  0  0.599324  0  4.071271  0  1.425002  0  0.252137  0.54968  0  4.07225  0
C  C62  1  0.58260742  0.96412265  0.83534279  1  0  0.622159  0  3.774043  0  0  0.56975  0  4.072019  0  0  0.599435  0  4.071051  0  1.424896  0  0.252131  0.549792  0  4.072036  0
C  C63  1  0.91739290  0.53587651  0.33534119  1  0  0.622081  0  3.774216  0  0  0.569675  0  4.072159  0  0  0.59936  0  4.071196  0  1.42504  0  0.252164  0.549717  0  4.072175  0
C  C64  1  0.60476662  0.14438253  0.17817873  1  0  -0.41153  0  3.662646  0  0  -0.451771  0  3.911838  0  0  -0.460279  0  3.912181  0  -0.095938  0  -0.151029  -0.446011  0  3.911548  0
C  C65  1  0.89523015  0.35561885  0.67817820  1  0  -0.41145  0  3.662644  0  0  -0.451686  0  3.911813  0  0  -0.460191  0  3.912148  0  -0.096307  0  -0.151022  -0.445943  0  3.911554  0
C  C66  1  0.39522770  0.85561898  0.82182180  1  0  -0.4115  0  3.662611  0  0  -0.451754  0  3.911842  0  0  -0.460269  0  3.912189  0  -0.09627  0  -0.151001  -0.44599  0  3.911544  0
C  C67  1  0.10476936  0.64438266  0.32182073  1  0  -0.411465  0  3.662579  0  0  -0.45168  0  3.911778  0  0  -0.460186  0  3.912113  0  -0.096328  0  -0.151008  -0.445926  0  3.911492  0
C  C68  1  0.72194942  0.04317754  0.21099498  1  0  0.619839  0  3.785192  0  0  0.572311  0  4.076954  0  0  0.602007  0  4.075831  0  1.452652  0  0.250355  0.552297  0  4.077193  0
C  C69  1  0.77805099  0.45682756  0.71099338  1  0  0.619794  0  3.785363  0  0  0.572268  0  4.077134  0  0  0.601949  0  4.076011  0  1.452719  0  0.250334  0.552265  0  4.077353  0
C  C70  1  0.27805043  0.95682521  0.78900662  1  0  0.619765  0  3.785313  0  0  0.57222  0  4.077098  0  0  0.601915  0  4.075975  0  1.452976  0  0.250274  0.552207  0  4.077334  0
C  C71  1  0.22194946  0.54317270  0.28900662  1  0  0.619878  0  3.785243  0  0  0.572287  0  4.07712  0  0  0.60197  0  4.075998  0  1.453106  0  0.250334  0.552282  0  4.077344  0
C  C72  1  0.93865235  0.03544843  0.30468582  1  0  -0.108603  0  3.656162  0  0  -0.169567  0  3.913086  0  0  -0.168461  0  3.918018  0  0.267819  0  -0.055237  -0.170207  0  3.909771  0
C  C73  1  0.56134795  0.46455170  0.80468529  1  0  -0.108695  0  3.656223  0  0  -0.169709  0  3.9132  0  0  -0.168619  0  3.91813  0  0.267783  0  -0.055314  -0.170355  0  3.909893  0
C  C74  1  0.06134480  0.96454935  0.69531631  1  0  -0.108736  0  3.656289  0  0  -0.169753  0  3.913252  0  0  -0.168654  0  3.918192  0  0.267766  0  -0.055306  -0.170403  0  3.909934  0
C  C75  1  0.43865214  0.53544732  0.19531364  1  0  -0.108758  0  3.656328  0  0  -0.169693  0  3.913238  0  0  -0.168601  0  3.918165  0  0.267729  0  -0.055306  -0.170348  0  3.909921  0
C  C76  1  0.86775836  0.97972518  0.37916842  1  0  0.690228  0  3.873573  0  0  0.644209  0  4.172509  0  0  0.676894  0  4.165676  0  1.589226  0  0.221594  0.621931  0  4.176364  0
C  C77  1  0.63224396  0.52027646  0.87916896  1  0  0.690283  0  3.873416  0  0  0.644268  0  4.172356  0  0  0.676951  0  4.165525  0  1.58927  0  0.221628  0.621991  0  4.176212  0
C  C78  1  0.13223750  0.02027260  0.62083158  1  0  0.690333  0  3.87357  0  0  0.644378  0  4.1724  0  0  0.677064  0  4.165561  0  1.589575  0  0.221624  0.6221  0  4.176262  0
C  C79  1  0.36775649  0.47972380  0.12083051  1  0  0.690307  0  3.873531  0  0  0.644241  0  4.172515  0  0  0.676925  0  4.165685  0  1.589311  0  0.221592  0.621963  0  4.176375  0
N  N80  1  0.36182262  0.02758372  0.09695833  1  0  -0.375555  0  3.332881  0  0  -0.316984  0  3.582224  0  0  -0.337337  0  3.591367  0  -1.257961  0  -0.405845  -0.303278  0  3.575902  0
N  N81  1  0.13817631  0.47241641  0.59695833  1  0  -0.375605  0  3.332815  0  0  -0.317002  0  3.582167  0  0  -0.337363  0  3.591304  0  -1.257934  0  -0.405874  -0.30329  0  3.57584  0
N  N82  1  0.63817723  0.97241903  0.90304167  1  0  -0.375675  0  3.332807  0  0  -0.317067  0  3.582162  0  0  -0.337443  0  3.59128  0  -1.257954  0  -0.405868  -0.303361  0  3.57584  0
N  N83  1  0.86182473  0.52758136  0.40304221  1  0  -0.375653  0  3.332815  0  0  -0.317073  0  3.582157  0  0  -0.337446  0  3.591283  0  -1.257947  0  -0.40588  -0.303362  0  3.575831  0
N  N84  1  0.82394359  0.11584838  0.26570829  1  0  -0.385315  0  3.345164  0  0  -0.328195  0  3.593472  0  0  -0.34874  0  3.602611  0  -1.28902  0  -0.414421  -0.314365  0  3.587093  0
N  N85  1  0.67605601  0.38414926  0.76570883  1  0  -0.385401  0  3.345263  0  0  -0.328236  0  3.593543  0  0  -0.348739  0  3.602646  0  -1.288884  0  -0.41437  -0.314403  0  3.587158  0
N  N86  1  0.17605356  0.88414940  0.73429278  1  0  -0.385287  0  3.345288  0  0  -0.328104  0  3.593544  0  0  -0.348644  0  3.602681  0  -1.288912  0  -0.414334  -0.314274  0  3.58717  0
N  N87  1  0.32394444  0.61585100  0.23429064  1  0  -0.385302  0  3.345145  0  0  -0.32815  0  3.593446  0  0  -0.348657  0  3.602556  0  -1.288868  0  -0.414343  -0.314318  0  3.587064  0
O  O88  1  0.06213359  0.68684489  0.00172529  1  0  -0.720184  0  2.00666  0  0  -0.659483  0  2.257352  0  0  -0.68911  0  2.24893  0  -1.224758  0  -0.37058  -0.638417  0  2.262324  0
O  O89  1  0.43786442  0.81315550  0.50172475  1  0  -0.720144  0  2.006684  0  0  -0.659448  0  2.257407  0  0  -0.689077  0  2.248989  0  -1.224807  0  -0.370582  -0.638383  0  2.26238  0
O  O90  1  0.93786721  0.31315662  0.99827471  1  0  -0.720216  0  2.006681  0  0  -0.659499  0  2.257344  0  0  -0.68913  0  2.248935  0  -1.224938  0  -0.37061  -0.638434  0  2.262314  0
O  O91  1  0.56213344  0.18684476  0.49827525  1  0  -0.72019  0  2.006622  0  0  -0.659473  0  2.257328  0  0  -0.689105  0  2.248915  0  -1.224915  0  -0.370591  -0.638411  0  2.262298  0
O  O92  1  0.35965940  0.77371625  0.00329577  1  0  -0.699918  0  2.027181  0  0  -0.633207  0  2.260196  0  0  -0.659701  0  2.250241  0  -1.221434  0  -0.329756  -0.614652  0  2.266627  0
O  O93  1  0.14033826  0.72628290  0.50329577  1  0  -0.699855  0  2.027178  0  0  -0.63312  0  2.260169  0  0  -0.659618  0  2.250222  0  -1.221444  0  -0.329697  -0.614563  0  2.266595  0
O  O94  1  0.64034305  0.22628650  0.99670476  1  0  -0.699913  0  2.027133  0  0  -0.63318  0  2.260108  0  0  -0.659673  0  2.25016  0  -1.2215  0  -0.32972  -0.614626  0  2.26654  0
O  O95  1  0.85965855  0.27371363  0.49670530  1  0  -0.699861  0  2.027163  0  0  -0.633115  0  2.260143  0  0  -0.659612  0  2.2502  0  -1.22149  0  -0.329682  -0.614558  0  2.266571  0
O  O96  1  0.32227113  0.95862158  0.21489449  1  0  -0.613692  0  1.973201  0  0  -0.553057  0  2.190816  0  0  -0.576366  0  2.182665  0  -1.195951  0  -0.302484  -0.536983  0  2.196084  0
O  O97  1  0.17772652  0.54137757  0.71489449  1  0  -0.61363  0  1.973239  0  0  -0.552991  0  2.190864  0  0  -0.576297  0  2.182713  0  -1.195949  0  -0.302474  -0.536917  0  2.196132  0
O  O98  1  0.67772708  0.04137993  0.78510497  1  0  -0.613702  0  1.973133  0  0  -0.553082  0  2.19077  0  0  -0.576393  0  2.18262  0  -1.195882  0  -0.302494  -0.53701  0  2.196038  0
O  O99  1  0.82227392  0.45862269  0.28510604  1  0  -0.613635  0  1.973267  0  0  -0.552998  0  2.190876  0  0  -0.576306  0  2.182727  0  -1.195973  0  -0.302484  -0.536927  0  2.196145  0
O  O100  1  0.72326961  0.90218773  0.18789149  1  0  -0.595114  0  1.956875  0  0  -0.540229  0  2.171824  0  0  -0.562274  0  2.162657  0  -1.185342  0  -0.301468  -0.524965  0  2.177721  0
O  O101  1  0.77673036  0.59781018  0.68789202  1  0  -0.595011  0  1.957076  0  0  -0.540155  0  2.172057  0  0  -0.562198  0  2.162892  0  -1.185137  0  -0.301458  -0.524897  0  2.177949  0
O  O102  1  0.27672790  0.09781129  0.81210851  1  0  -0.595045  0  1.95697  0  0  -0.540167  0  2.171936  0  0  -0.562208  0  2.162766  0  -1.185384  0  -0.301435  -0.524906  0  2.177834  0
O  O103  1  0.22327079  0.40219257  0.31210798  1  0  -0.595037  0  1.957075  0  0  -0.540164  0  2.172092  0  0  -0.562209  0  2.162931  0  -1.185494  0  -0.301448  -0.524906  0  2.177987  0
O  O104  1  0.97534780  0.94087684  0.42324709  1  0  -0.741891  0  2.019041  0  0  -0.684074  0  2.277136  0  0  -0.713679  0  2.269424  0  -1.242398  0  -0.382509  -0.662984  0  2.281584  0
O  O105  1  0.52465323  0.55912480  0.92324709  1  0  -0.741917  0  2.018996  0  0  -0.684093  0  2.277094  0  0  -0.713697  0  2.269382  0  -1.242369  0  -0.382537  -0.663  0  2.281541  0
O  O106  1  0.02464877  0.05912343  0.57675451  1  0  -0.741958  0  2.019177  0  0  -0.684126  0  2.277179  0  0  -0.713731  0  2.269466  0  -1.242479  0  -0.382513  -0.663033  0  2.281628  0
O  O107  1  0.47534757  0.44087670  0.07675291  1  0  -0.741922  0  2.019002  0  0  -0.684083  0  2.27711  0  0  -0.713687  0  2.269399  0  -1.242399  0  -0.382525  -0.66299  0  2.281558  0
O  O108  1  0.70727314  0.97437091  0.39586828  1  0  -0.674695  0  2.017973  0  0  -0.611083  0  2.244164  0  0  -0.638204  0  2.235202  0  -1.211349  0  -0.333581  -0.592091  0  2.249794  0
O  O109  1  0.79272788  0.52563073  0.89586828  1  0  -0.674711  0  2.017945  0  0  -0.61109  0  2.244128  0  0  -0.63821  0  2.235168  0  -1.21136  0  -0.333594  -0.592098  0  2.249757  0
O  O110  1  0.29272226  0.02562065  0.60413226  1  0  -0.674771  0  2.017942  0  0  -0.611172  0  2.244113  0  0  -0.638293  0  2.235147  0  -1.211544  0  -0.333611  -0.592185  0  2.249744  0
O  O111  1  0.20727292  0.47437077  0.10413119  1  0  -0.674737  0  2.017979  0  0  -0.611092  0  2.244188  0  0  -0.638213  0  2.235227  0  -1.211361  0  -0.333571  -0.592101  0  2.249817  0
O  O112  1  0.30182366  0.20142844  0.94680699  1  0  -0.889517  0  1.783322  0  0  -0.835564  0  1.965776  0  0  -0.856868  0  1.934621  0  -1.299965  0  -0.630909  -0.820273  0  1.987433  0
O  O113  1  0.19817786  0.29857169  0.44680806  1  0  -0.889454  0  1.783347  0  0  -0.8355  0  1.965777  0  0  -0.856803  0  1.934625  0  -1.299955  0  -0.630893  -0.820214  0  1.987431  0
O  O114  1  0.69817843  0.79857307  0.05319355  1  0  -0.88953  0  1.783298  0  0  -0.835585  0  1.965782  0  0  -0.856888  0  1.934629  0  -1.299966  0  -0.630889  -0.820293  0  1.987439  0
O  O115  1  0.80182388  0.70142857  0.55319301  1  0  -0.889481  0  1.783363  0  0  -0.835512  0  1.965781  0  0  -0.856816  0  1.934629  0  -1.29997  0  -0.630891  -0.820218  0  1.987438  0
O  O116  1  0.10307405  0.46816808  0.85779983  1  0  -0.902898  0  1.771453  0  0  -0.849328  0  1.958624  0  0  -0.870114  0  1.925464  0  -1.334377  0  -0.635452  -0.834357  0  1.981767  0
O  O117  1  0.39692617  0.03183206  0.35780036  1  0  -0.902911  0  1.771429  0  0  -0.849339  0  1.958599  0  0  -0.870125  0  1.925437  0  -1.334384  0  -0.635458  -0.834373  0  1.98174  0
O  O118  1  0.89692545  0.53183343  0.14219910  1  0  -0.903005  0  1.771307  0  0  -0.849412  0  1.958517  0  0  -0.870198  0  1.925354  0  -1.334406  0  -0.635464  -0.83444  0  1.981661  0
O  O119  1  0.60307263  0.96816697  0.64219910  1  0  -0.902912  0  1.77142  0  0  -0.849327  0  1.958594  0  0  -0.870114  0  1.925431  0  -1.334401  0  -0.635422  -0.834352  0  1.981739  0
