# generated using pymatgen
data_Cu2H14C14I2N4O
_symmetry_space_group_name_H-M   'P 1'
_cell_length_a   4.20628951
_cell_length_b   18.88590538
_cell_length_c   21.41310000
_cell_angle_alpha   105.51094473
_cell_angle_beta   90.00000000
_cell_angle_gamma   90.00000000
_symmetry_Int_Tables_number   1
_chemical_formula_structural   Cu2H14C14I2N4O
_chemical_formula_sum   'Cu8 H56 C56 I8 N16 O4'
_cell_volume   1639.09458983
_cell_formula_units_Z   4
loop_
 _symmetry_equiv_pos_site_id
 _symmetry_equiv_pos_as_xyz
  1  'x, y, z'
loop_
 _atom_site_type_symbol
 _atom_site_label
 _atom_site_symmetry_multiplicity
 _atom_site_fract_x
 _atom_site_fract_y
 _atom_site_fract_z
 _atom_site_occupancy
 _atom_site_hle17_bader_spin_density
 _atom_site_hle17_ddec_charge
 _atom_site_hle17_ddec_spin_density
 _atom_site_hle17_ddec_sum_bond_order
 _atom_site_hle17_magmom
 _atom_site_hse06_10hf_bader_spin_density
 _atom_site_hse06_10hf_ddec_charge
 _atom_site_hse06_10hf_ddec_spin_density
 _atom_site_hse06_10hf_ddec_sum_bond_order
 _atom_site_hse06_10hf_magmom
 _atom_site_hse06_bader_spin_density
 _atom_site_hse06_ddec_charge
 _atom_site_hse06_ddec_spin_density
 _atom_site_hse06_ddec_sum_bond_order
 _atom_site_hse06_magmom
 _atom_site_pbe_bader_charge
 _atom_site_pbe_bader_spin_density
 _atom_site_pbe_cm5_charge
 _atom_site_pbe_ddec_charge
 _atom_site_pbe_ddec_spin_density
 _atom_site_pbe_ddec_sum_bond_order
 _atom_site_pbe_magmom
Cu  Cu0  1  0.02438729  0.94232635  0.29534086  1  0  0.322966  0  2.099267  0  0  0.220647  0  2.601867  0  0  0.222013  0  2.556435  0  0.51854  0  0.361335  0.222273  0  2.631252  0
Cu  Cu1  1  0.52438854  0.55767345  0.70465968  1  0  0.322955  0  2.09927  0  0  0.220598  0  2.601875  0  0  0.221966  0  2.556432  0  0.517877  0  0.361317  0.222265  0  2.631258  0
Cu  Cu2  1  0.97561283  0.05767590  0.70466084  1  0  0.322962  0  2.099305  0  0  0.220687  0  2.601916  0  0  0.222045  0  2.556488  0  0.517979  0  0.361332  0.222307  0  2.631248  0
Cu  Cu3  1  0.47561633  0.44232495  0.29534018  1  0  0.322959  0  2.099251  0  0  0.220664  0  2.601855  0  0  0.22204  0  2.556428  0  0.518574  0  0.361349  0.222304  0  2.631241  0
Cu  Cu4  1  0.47347193  0.01404764  0.18392469  1  0  0.334106  0  2.047912  0  0  0.24457  0  2.534121  0  0  0.257194  0  2.481605  0  0.419823  0  0.266059  0.237252  0  2.569941  0
Cu  Cu5  1  0.97347080  0.48595265  0.81607666  1  0  0.334097  0  2.047925  0  0  0.244445  0  2.534164  0  0  0.257112  0  2.481647  0  0.419625  0  0.26602  0.237155  0  2.570019  0
Cu  Cu6  1  0.52653057  0.98595405  0.81607641  1  0  0.33411  0  2.047905  0  0  0.244513  0  2.534132  0  0  0.257155  0  2.481604  0  0.419588  0  0.266018  0.237189  0  2.569983  0
Cu  Cu7  1  0.02653170  0.51404574  0.18392273  1  0  0.334113  0  2.047917  0  0  0.244512  0  2.534131  0  0  0.257164  0  2.481611  0  0.419762  0  0.266027  0.23719  0  2.570016  0
H  H8  1  0.10453869  0.96162400  0.42458525  1  0  0.097936  0  0.966477  0  0  0.104353  0  1.038556  0  0  0.109875  0  1.033066  0  0.080746  0  0.093926  0.100288  0  1.042577  0
H  H9  1  0.60454707  0.53837525  0.57541375  1  0  0.097954  0  0.966464  0  0  0.104403  0  1.038506  0  0  0.10993  0  1.03301  0  0.080569  0  0.09393  0.10033  0  1.042546  0
H  H10  1  0.89545905  0.03837550  0.57541440  1  0  0.097956  0  0.966468  0  0  0.104393  0  1.038518  0  0  0.109929  0  1.033012  0  0.080747  0  0.093924  0.100319  0  1.04256  0
H  H11  1  0.39546018  0.46162370  0.42458576  1  0  0.097883  0  0.966559  0  0  0.104344  0  1.038581  0  0  0.109867  0  1.033088  0  0.080747  0  0.09391  0.10027  0  1.042624  0
H  H12  1  0.36048874  0.96263400  0.53041210  1  0  0.085818  0  0.977606  0  0  0.096681  0  1.040175  0  0  0.098866  0  1.040082  0  0.095217  0  0.092823  0.095002  0  1.040416  0
H  H13  1  0.86049236  0.53736580  0.46958750  1  0  0.085804  0  0.97761  0  0  0.096665  0  1.040184  0  0  0.098851  0  1.040091  0  0.095181  0  0.092814  0.094987  0  1.04042  0
H  H14  1  0.63950900  0.03736660  0.46958780  1  0  0.085777  0  0.977651  0  0  0.096648  0  1.040214  0  0  0.098834  0  1.040117  0  0.095234  0  0.092806  0.094962  0  1.040451  0
H  H15  1  0.13951251  0.46263370  0.53041262  1  0  0.085777  0  0.97759  0  0  0.096637  0  1.040172  0  0  0.098822  0  1.040081  0  0.09524  0  0.092805  0.094957  0  1.04041  0
H  H16  1  0.63507754  0.85219920  0.54418626  1  0  0.088024  0  0.964434  0  0  0.096623  0  1.030054  0  0  0.09948  0  1.029081  0  0.101905  0  0.093051  0.094524  0  1.030841  0
H  H17  1  0.13507629  0.64780004  0.45581181  1  0  0.087994  0  0.964464  0  0  0.096586  0  1.030102  0  0  0.099444  0  1.029126  0  0.10187  0  0.093029  0.094487  0  1.030889  0
H  H18  1  0.36492020  0.14780139  0.45581364  1  0  0.088062  0  0.964381  0  0  0.09663  0  1.030044  0  0  0.099485  0  1.029076  0  0.101881  0  0.093057  0.094531  0  1.030831  0
H  H19  1  0.86492382  0.35219945  0.54418691  1  0  0.08806  0  0.964411  0  0  0.096624  0  1.030076  0  0  0.09949  0  1.029083  0  0.101874  0  0.09306  0.094525  0  1.030862  0
H  H20  1  0.63127371  0.73604292  0.45490078  1  0  0.09082  0  0.972455  0  0  0.101583  0  1.03645  0  0  0.103951  0  1.036496  0  0.061507  0  0.099216  0.099857  0  1.036519  0
H  H21  1  0.13127960  0.76395742  0.54509849  1  0  0.090812  0  0.972452  0  0  0.101576  0  1.036439  0  0  0.103944  0  1.036485  0  0.061479  0  0.099207  0.099849  0  1.036511  0
H  H22  1  0.36872165  0.26395877  0.54509986  1  0  0.090785  0  0.972473  0  0  0.101549  0  1.03646  0  0  0.103916  0  1.036507  0  0.06163  0  0.099204  0.09982  0  1.036533  0
H  H23  1  0.86871814  0.23604317  0.45490095  1  0  0.090802  0  0.972509  0  0  0.10157  0  1.036491  0  0  0.103939  0  1.036536  0  0.06148  0  0.099209  0.099844  0  1.03656  0
H  H24  1  0.43579026  0.66578602  0.34511408  1  0  0.103042  0  0.948466  0  0  0.114046  0  1.009825  0  0  0.117165  0  1.007776  0  0.100325  0  0.096832  0.111499  0  1.011762  0
H  H25  1  0.93579388  0.83421268  0.65488480  1  0  0.10304  0  0.948479  0  0  0.114056  0  1.00981  0  0  0.117175  0  1.00776  0  0.099539  0  0.096841  0.111509  0  1.011747  0
H  H26  1  0.56420986  0.33421403  0.65488477  1  0  0.103037  0  0.948495  0  0  0.114084  0  1.009809  0  0  0.117203  0  1.007758  0  0.100299  0  0.096849  0.111537  0  1.011742  0
H  H27  1  0.06420385  0.16578682  0.34511532  1  0  0.103037  0  0.94847  0  0  0.114061  0  1.009805  0  0  0.117181  0  1.007753  0  0.100204  0  0.096837  0.111515  0  1.011742  0
H  H28  1  0.11952577  0.66653830  0.24675183  1  0  0.09674  0  1.016239  0  0  0.10061  0  1.091006  0  0  0.105365  0  1.087878  0  0.112108  0  0.079354  0.096869  0  1.093779  0
H  H29  1  0.61953415  0.83346095  0.75324671  1  0  0.09675  0  1.016303  0  0  0.100631  0  1.091043  0  0  0.105384  0  1.087923  0  0.112125  0  0.079369  0.096899  0  1.093811  0
H  H30  1  0.88047434  0.33346340  0.75324740  1  0  0.096704  0  1.016259  0  0  0.100578  0  1.091025  0  0  0.105333  0  1.087897  0  0.112088  0  0.079341  0.096841  0  1.093795  0
H  H31  1  0.38047072  0.16653745  0.24675315  1  0  0.096735  0  1.016246  0  0  0.100611  0  1.091004  0  0  0.105366  0  1.087877  0  0.112111  0  0.079351  0.096877  0  1.093772  0
H  H32  1  0.80609050  0.72959334  0.18743396  1  0  0.105374  0  0.945441  0  0  0.115765  0  1.014738  0  0  0.117882  0  1.013251  0  0.084109  0  0.109119  0.114151  0  1.015969  0
H  H33  1  0.30609876  0.77040756  0.81256544  1  0  0.10536  0  0.945453  0  0  0.115754  0  1.014746  0  0  0.117871  0  1.01326  0  0.08411  0  0.109148  0.114132  0  1.015973  0
H  H34  1  0.19390962  0.27040891  0.81256587  1  0  0.105315  0  0.945422  0  0  0.115717  0  1.01473  0  0  0.117834  0  1.013243  0  0.084097  0  0.109113  0.114093  0  1.015958  0
H  H35  1  0.69390849  0.22959139  0.18743548  1  0  0.105349  0  0.945452  0  0  0.115747  0  1.014729  0  0  0.117863  0  1.013243  0  0.083825  0  0.109133  0.114127  0  1.015964  0
H  H36  1  0.64787980  0.81811152  0.22817502  1  0  0.105771  0  0.933781  0  0  0.111095  0  1.010014  0  0  0.113286  0  1.008517  0  0.094285  0  0.118507  0.10939  0  1.011263  0
H  H37  1  0.14788568  0.68188883  0.77182518  1  0  0.105689  0  0.933809  0  0  0.110979  0  1.010112  0  0  0.113164  0  1.008615  0  0.094339  0  0.118481  0.109267  0  1.011355  0
H  H38  1  0.35211794  0.18188963  0.77182595  1  0  0.105684  0  0.933856  0  0  0.111012  0  1.010119  0  0  0.1132  0  1.008622  0  0.09433  0  0.118468  0.1093  0  1.01136  0
H  H39  1  0.85211681  0.31811122  0.22817553  1  0  0.105698  0  0.933799  0  0  0.110975  0  1.010122  0  0  0.113158  0  1.008627  0  0.094333  0  0.118483  0.109267  0  1.011368  0
H  H40  1  0.19167725  0.73586378  0.09198673  1  0  0.148324  0  0.949342  0  0  0.157086  0  1.010676  0  0  0.161492  0  1.006663  0  0.180932  0  0.133865  0.153783  0  1.013791  0
H  H41  1  0.69168325  0.76413711  0.90801360  1  0  0.148337  0  0.949385  0  0  0.157102  0  1.010706  0  0  0.161508  0  1.006692  0  0.181232  0  0.133866  0.153798  0  1.013821  0
H  H42  1  0.80831811  0.26413956  0.90801382  1  0  0.148206  0  0.949484  0  0  0.157098  0  1.010659  0  0  0.161506  0  1.006644  0  0.181169  0  0.133894  0.153793  0  1.013772  0
H  H43  1  0.30831924  0.23586019  0.09198693  1  0  0.148218  0  0.94949  0  0  0.157086  0  1.010696  0  0  0.161494  0  1.006682  0  0.181172  0  0.133894  0.153781  0  1.013813  0
H  H44  1  0.71381915  0.80394408  0.03294066  1  0  0.110731  0  0.933714  0  0  0.123905  0  0.995775  0  0  0.125515  0  0.995017  0  0.088933  0  0.102498  0.122747  0  0.996344  0
H  H45  1  0.21382028  0.69605736  0.96706026  1  0  0.110698  0  0.933752  0  0  0.123905  0  0.995799  0  0  0.125517  0  0.995037  0  0.088988  0  0.102496  0.122746  0  0.996367  0
H  H46  1  0.28617621  0.19605871  0.96706023  1  0  0.110673  0  0.93371  0  0  0.12391  0  0.995732  0  0  0.12552  0  0.994974  0  0.088939  0  0.1025  0.122753  0  0.996298  0
H  H47  1  0.78617746  0.30394049  0.03293946  1  0  0.110726  0  0.933732  0  0  0.123957  0  0.995738  0  0  0.125566  0  0.994981  0  0.088911  0  0.10252  0.1228  0  0.996305  0
H  H48  1  0.80534400  0.89459656  0.07883414  1  0  0.09729  0  0.95063  0  0  0.109171  0  1.019103  0  0  0.109598  0  1.020211  0  0.053684  0  0.097918  0.108761  0  1.018437  0
H  H49  1  0.30534988  0.60540434  0.92116665  1  0  0.097275  0  0.950642  0  0  0.109164  0  1.01912  0  0  0.109592  0  1.020229  0  0.053894  0  0.09791  0.108754  0  1.018452  0
H  H50  1  0.19465137  0.10540569  0.92116616  1  0  0.097269  0  0.950649  0  0  0.109193  0  1.019106  0  0  0.10962  0  1.020214  0  0.053698  0  0.097903  0.108781  0  1.018443  0
H  H51  1  0.69465261  0.39459351  0.07883354  1  0  0.097283  0  0.950654  0  0  0.109213  0  1.019105  0  0  0.109641  0  1.020213  0  0.053721  0  0.097913  0.108801  0  1.018443  0
H  H52  1  0.31544667  0.93966398  0.03076701  1  0  0.034084  0  0.942854  0  0  0.045473  0  1.016723  0  0  0.046914  0  1.014943  0  0.059882  0  0.082781  0.044262  0  1.018152  0
H  H53  1  0.81545267  0.56033692  0.96923285  1  0  0.034058  0  0.942764  0  0  0.045449  0  1.016643  0  0  0.046891  0  1.014863  0  0.059904  0  0.082758  0.044239  0  1.018071  0
H  H54  1  0.68454870  0.06033772  0.96923176  1  0  0.03404  0  0.942798  0  0  0.045451  0  1.016646  0  0  0.046892  0  1.014866  0  0.059786  0  0.082764  0.044241  0  1.018073  0
H  H55  1  0.18454983  0.43966148  0.03076840  1  0  0.034059  0  0.942819  0  0  0.045461  0  1.016661  0  0  0.046902  0  1.014881  0  0.059796  0  0.082773  0.044252  0  1.018087  0
H  H56  1  0.64284924  0.90773916  0.97804850  1  0  0.031597  0  0.953012  0  0  0.043325  0  1.025205  0  0  0.044356  0  1.024435  0  0.01896  0  0.080797  0.042295  0  1.026163  0
H  H57  1  0.14284799  0.59226064  0.02195157  1  0  0.031578  0  0.95302  0  0  0.043312  0  1.025217  0  0  0.044343  0  1.024446  0  0.018958  0  0.080789  0.042283  0  1.026174  0
H  H58  1  0.35715326  0.09226144  0.02195094  1  0  0.031611  0  0.953017  0  0  0.043337  0  1.025202  0  0  0.044368  0  1.024432  0  0.018983  0  0.080802  0.042303  0  1.026163  0
H  H59  1  0.85715450  0.40773831  0.97804935  1  0  0.031642  0  0.953006  0  0  0.043364  0  1.025179  0  0  0.044396  0  1.024409  0  0.019  0  0.080819  0.042331  0  1.026139  0
H  H60  1  0.16992649  0.85794267  0.93222151  1  0  0.316443  0  0.973711  0  0  0.295967  0  1.054344  0  0  0.305033  0  1.044185  0  0.568407  0  0.254584  0.289598  0  1.061374  0
H  H61  1  0.66992773  0.64205658  0.06777843  1  0  0.316415  0  0.973772  0  0  0.295938  0  1.05441  0  0  0.305005  0  1.044251  0  0.568397  0  0.254565  0.289569  0  1.061441  0
H  H62  1  0.83007363  0.14205683  0.06777814  1  0  0.316475  0  0.973674  0  0  0.29599  0  1.054323  0  0  0.305055  0  1.044166  0  0.568406  0  0.254583  0.28962  0  1.061355  0
H  H63  1  0.33007476  0.35794292  0.93222168  1  0  0.31647  0  0.973667  0  0  0.295983  0  1.054322  0  0  0.305051  0  1.044161  0  0.568403  0  0.254584  0.289615  0  1.061351  0
C  C64  1  0.21974236  0.91278475  0.43211600  1  0  -0.142798  0  3.725838  0  0  -0.160781  0  3.972654  0  0  -0.165527  0  3.991596  0  -0.014357  0  -0.091382  -0.157892  0  3.960418  0
C  C65  1  0.71974837  0.58721450  0.56788394  1  0  -0.142803  0  3.725919  0  0  -0.160825  0  3.972737  0  0  -0.165573  0  3.991679  0  -0.014264  0  -0.091412  -0.157939  0  3.960501  0
C  C66  1  0.78025300  0.08721530  0.56788471  1  0  -0.142929  0  3.725863  0  0  -0.160942  0  3.972708  0  0  -0.165698  0  3.991643  0  -0.014419  0  -0.091449  -0.158058  0  3.960468  0
C  C67  1  0.28025651  0.41278500  0.43211664  1  0  -0.142809  0  3.725958  0  0  -0.160825  0  3.972762  0  0  -0.165569  0  3.991708  0  -0.014367  0  -0.091406  -0.157939  0  3.960525  0
C  C68  1  0.36359361  0.91314358  0.49009090  1  0  -0.047327  0  3.755376  0  0  -0.058929  0  3.995714  0  0  -0.059229  0  4.017206  0  -0.079378  0  -0.086977  -0.058619  0  3.981418  0
C  C69  1  0.86359724  0.58685622  0.50990871  1  0  -0.047323  0  3.755428  0  0  -0.058925  0  3.995783  0  0  -0.059226  0  4.017277  0  -0.079278  0  -0.086978  -0.058613  0  3.981482  0
C  C70  1  0.63640650  0.08685757  0.50990914  1  0  -0.047261  0  3.755433  0  0  -0.058856  0  3.995755  0  0  -0.059155  0  4.017248  0  -0.079324  0  -0.086962  -0.058535  0  3.981446  0
C  C71  1  0.13640526  0.41314328  0.49009094  1  0  -0.047272  0  3.755417  0  0  -0.058869  0  3.995755  0  0  -0.059172  0  4.017251  0  -0.079397  0  -0.086972  -0.058558  0  3.981454  0
C  C72  1  0.51799573  0.84970828  0.49823260  1  0  -0.068314  0  3.774202  0  0  -0.081123  0  4.023457  0  0  -0.083749  0  4.044344  0  -0.070518  0  -0.091315  -0.079547  0  4.009598  0
C  C73  1  0.01799686  0.65029152  0.50176654  1  0  -0.068293  0  3.77422  0  0  -0.081102  0  4.023482  0  0  -0.083728  0  4.04437  0  -0.070532  0  -0.091311  -0.079525  0  4.009619  0
C  C74  1  0.48200677  0.15029287  0.50176744  1  0  -0.068325  0  3.774206  0  0  -0.081121  0  4.023473  0  0  -0.083749  0  4.04436  0  -0.070495  0  -0.091309  -0.079544  0  4.009607  0
C  C75  1  0.98200088  0.34970798  0.49823264  1  0  -0.06832  0  3.774201  0  0  -0.081106  0  4.023463  0  0  -0.083731  0  4.044355  0  -0.070511  0  -0.09132  -0.079529  0  4.009601  0
C  C76  1  0.51634106  0.78556631  0.44897070  1  0  -0.100346  0  3.735188  0  0  -0.120015  0  3.980913  0  0  -0.121715  0  4.002313  0  0.006625  0  -0.086804  -0.118668  0  3.966453  0
C  C77  1  0.01633982  0.71443459  0.55102823  1  0  -0.100267  0  3.735116  0  0  -0.119931  0  3.980807  0  0  -0.12163  0  4.002206  0  0.006627  0  -0.086746  -0.118584  0  3.966346  0
C  C78  1  0.48365430  0.21443484  0.55102887  1  0  -0.100293  0  3.735144  0  0  -0.119951  0  3.980827  0  0  -0.12165  0  4.002228  0  0.006472  0  -0.086778  -0.118605  0  3.966367  0
C  C79  1  0.98365554  0.28556546  0.44897108  1  0  -0.100355  0  3.735173  0  0  -0.120016  0  3.980873  0  0  -0.121716  0  4.002272  0  0.006617  0  -0.086785  -0.118669  0  3.966411  0
C  C80  1  0.35781180  0.78233465  0.38987502  1  0  0.015997  0  3.779854  0  0  0.034372  0  4.006128  0  0  0.030168  0  4.030385  0  -0.03079  0  -0.005686  0.036934  0  3.989944  0
C  C81  1  0.85781780  0.71766350  0.61012419  1  0  0.015967  0  3.779888  0  0  0.034357  0  4.006133  0  0  0.030151  0  4.030392  0  -0.031191  0  -0.005663  0.03692  0  3.989944  0
C  C82  1  0.64218357  0.21766595  0.61012488  1  0  0.016021  0  3.779782  0  0  0.034402  0  4.006048  0  0  0.030197  0  4.030306  0  -0.030778  0  -0.005649  0.036962  0  3.989859  0
C  C83  1  0.14218232  0.28233600  0.38987546  1  0  0.016069  0  3.779724  0  0  0.034434  0  4.006017  0  0  0.03023  0  4.030274  0  -0.031132  0  -0.005635  0.036996  0  3.989831  0
C  C84  1  0.21387971  0.84766356  0.38078781  1  0  0.207407  0  3.74308  0  0  0.205804  0  3.976993  0  0  0.211891  0  3.998313  0  0.401063  0  0.105866  0.201802  0  3.96286  0
C  C85  1  0.71388809  0.65233514  0.61921246  1  0  0.20737  0  3.743311  0  0  0.205788  0  3.977201  0  0  0.211874  0  3.998524  0  0.401452  0  0.105882  0.201788  0  3.963066  0
C  C86  1  0.78611565  0.15233704  0.61921303  1  0  0.207445  0  3.743085  0  0  0.205858  0  3.976991  0  0  0.211945  0  3.998313  0  0.401077  0  0.105928  0.201856  0  3.962854  0
C  C87  1  0.28611915  0.34766436  0.38078765  1  0  0.207376  0  3.74316  0  0  0.205785  0  3.977083  0  0  0.211872  0  3.998405  0  0.401416  0  0.105876  0.201784  0  3.962949  0
C  C88  1  0.32795650  0.71647107  0.33987923  1  0  -0.032039  0  3.688123  0  0  -0.055813  0  3.932983  0  0  -0.049172  0  3.947697  0  -0.038377  0  -0.070014  -0.060286  0  3.923446  0
C  C89  1  0.82796251  0.78352763  0.66012012  1  0  -0.032002  0  3.688071  0  0  -0.055774  0  3.932896  0  0  -0.049132  0  3.94761  0  -0.037795  0  -0.070019  -0.060253  0  3.923362  0
C  C90  1  0.67203886  0.28352953  0.66012068  1  0  -0.032089  0  3.688153  0  0  -0.055894  0  3.932992  0  0  -0.049253  0  3.947707  0  -0.038629  0  -0.070068  -0.060364  0  3.923446  0
C  C91  1  0.17203999  0.21647132  0.33987987  1  0  -0.032042  0  3.687992  0  0  -0.055821  0  3.932843  0  0  -0.04918  0  3.947556  0  -0.038501  0  -0.070026  -0.060296  0  3.923308  0
C  C92  1  0.15723597  0.71690848  0.28510290  1  0  -0.159263  0  3.736612  0  0  -0.173621  0  3.982006  0  0  -0.183443  0  4.003349  0  -0.01696  0  -0.097732  -0.167471  0  3.968434  0
C  C93  1  0.65724197  0.78309077  0.71489703  1  0  -0.159381  0  3.736623  0  0  -0.173731  0  3.982063  0  0  -0.183556  0  4.003401  0  -0.016664  0  -0.097759  -0.167592  0  3.968485  0
C  C94  1  0.84276177  0.28309212  0.71489700  1  0  -0.15926  0  3.736597  0  0  -0.173592  0  3.982008  0  0  -0.183416  0  4.003353  0  -0.016672  0  -0.097721  -0.16745  0  3.968426  0
C  C95  1  0.34276290  0.21690763  0.28510329  1  0  -0.159343  0  3.736534  0  0  -0.173686  0  3.981956  0  0  -0.183509  0  4.003302  0  -0.016684  0  -0.097761  -0.167543  0  3.968381  0
C  C96  1  0.03523771  0.78377161  0.27815684  1  0  0.237587  0  3.703818  0  0  0.235966  0  3.953004  0  0  0.245247  0  3.971229  0  0.480563  0  0.111973  0.229687  0  3.941098  0
C  C97  1  0.53524846  0.71622818  0.72184276  1  0  0.237828  0  3.703648  0  0  0.236139  0  3.952931  0  0  0.245425  0  3.971148  0  0.480542  0  0.112018  0.22985  0  3.941018  0
C  C98  1  0.96475765  0.21623008  0.72184332  1  0  0.237717  0  3.703749  0  0  0.236039  0  3.95305  0  0  0.245322  0  3.971269  0  0.480511  0  0.112013  0.229752  0  3.941128  0
C  C99  1  0.46475641  0.28377076  0.27815769  1  0  0.237758  0  3.703643  0  0  0.236079  0  3.952909  0  0  0.245359  0  3.971134  0  0.480546  0  0.112044  0.229798  0  3.940999  0
C  C100  1  0.86579395  0.78526573  0.21623148  1  0  -0.09898  0  3.627449  0  0  -0.173796  0  3.875186  0  0  -0.171369  0  3.881731  0  0.318352  0  -0.046444  -0.175399  0  3.871203  0
C  C101  1  0.36579983  0.71473462  0.78376825  1  0  -0.0989  0  3.627393  0  0  -0.173673  0  3.875199  0  0  -0.171237  0  3.881739  0  0.318316  0  -0.046481  -0.17524  0  3.871168  0
C  C102  1  0.13420141  0.21473542  0.78376809  1  0  -0.09887  0  3.627393  0  0  -0.173697  0  3.875266  0  0  -0.171261  0  3.881806  0  0.318311  0  -0.046456  -0.175259  0  3.871227  0
C  C103  1  0.63420028  0.28526488  0.21623187  1  0  -0.098967  0  3.627503  0  0  -0.173714  0  3.875289  0  0  -0.171274  0  3.881825  0  0.318609  0  -0.0465  -0.175303  0  3.871287  0
C  C104  1  0.22267131  0.79219888  0.12037595  1  0  -0.081173  0  3.561338  0  0  -0.144809  0  3.819461  0  0  -0.141343  0  3.832244  0  0.330224  0  0.034553  -0.147078  0  3.811263  0
C  C105  1  0.72267494  0.70780201  0.87962391  1  0  -0.081133  0  3.561476  0  0  -0.144761  0  3.819545  0  0  -0.141292  0  3.832322  0  0.329884  0  0.034601  -0.147032  0  3.811346  0
C  C106  1  0.77732405  0.20780446  0.87962367  1  0  -0.081012  0  3.561489  0  0  -0.144737  0  3.819532  0  0  -0.141271  0  3.832309  0  0.330153  0  0.034548  -0.147006  0  3.811331  0
C  C107  1  0.27732518  0.29219529  0.12037662  1  0  -0.081005  0  3.561473  0  0  -0.144727  0  3.819521  0  0  -0.141263  0  3.832298  0  0.330155  0  0.034536  -0.146997  0  3.811323  0
C  C108  1  0.39448545  0.85080675  0.11014810  1  0  0.178347  0  3.70693  0  0  0.175292  0  3.977601  0  0  0.176555  0  3.998555  0  0.457144  0  0.098506  0.174062  0  3.963816  0
C  C109  1  0.89448907  0.64919415  0.88985223  1  0  0.178302  0  3.706963  0  0  0.17531  0  3.977526  0  0  0.17658  0  3.998472  0  0.457122  0  0.098488  0.174081  0  3.963737  0
C  C110  1  0.60551229  0.14919660  0.88985246  1  0  0.178229  0  3.707068  0  0  0.175294  0  3.977593  0  0  0.176562  0  3.998538  0  0.457204  0  0.098475  0.174065  0  3.963801  0
C  C111  1  0.10551104  0.35080260  0.11014770  1  0  0.178228  0  3.707063  0  0  0.175304  0  3.977571  0  0  0.176574  0  3.998513  0  0.457353  0  0.098472  0.174077  0  3.96378  0
C  C112  1  0.61006024  0.85759868  0.05692380  1  0  -0.211993  0  3.719026  0  0  -0.252  0  3.963196  0  0  -0.254095  0  3.975208  0  0.012112  0  -0.16474  -0.25037  0  3.955073  0
C  C113  1  0.11006375  0.64240222  0.94307653  1  0  -0.211948  0  3.718953  0  0  -0.252018  0  3.963137  0  0  -0.254117  0  3.975152  0  0.011815  0  -0.164728  -0.250387  0  3.955009  0
C  C114  1  0.38993274  0.14240412  0.94307663  1  0  -0.211849  0  3.718859  0  0  -0.252008  0  3.963037  0  0  -0.254104  0  3.97505  0  0.01172  0  -0.164696  -0.250379  0  3.954911  0
C  C115  1  0.88993399  0.35759453  0.05692340  1  0  -0.211938  0  3.718909  0  0  -0.252119  0  3.9631  0  0  -0.254215  0  3.975109  0  0.011552  0  -0.164742  -0.250489  0  3.954974  0
C  C116  1  0.45459781  0.89031753  0.00662968  1  0  0.152515  0  3.650319  0  0  0.097088  0  3.921819  0  0  0.10411  0  3.926799  0  0.428344  0  -0.08411  0.092382  0  3.918485  0
C  C117  1  0.95460143  0.60968226  0.99336992  1  0  0.152573  0  3.650133  0  0  0.097135  0  3.921675  0  0  0.104156  0  3.926656  0  0.428319  0  -0.08408  0.092427  0  3.918342  0
C  C118  1  0.54539755  0.10968361  0.99336942  1  0  0.15249  0  3.650177  0  0  0.097041  0  3.921756  0  0  0.104062  0  3.926735  0  0.428416  0  -0.084155  0.092337  0  3.918423  0
C  C119  1  0.04539868  0.39031558  0.00663074  1  0  0.152426  0  3.650127  0  0  0.097006  0  3.921683  0  0  0.104028  0  3.92666  0  0.428426  0  -0.084174  0.092303  0  3.918349  0
I  I120  1  0.53972272  0.02755622  0.31669740  1  0  -0.416239  0  1.761883  0  0  -0.355962  0  2.263972  0  0  -0.372423  0  2.218628  0  -0.415967  0  -0.175691  -0.343995  0  2.295116  0
I  I121  1  0.03972385  0.47244408  0.68330349  1  0  -0.416208  0  1.761873  0  0  -0.35589  0  2.263956  0  0  -0.372361  0  2.218607  0  -0.41528  0  -0.175665  -0.343938  0  2.295113  0
I  I122  1  0.46027978  0.97244657  0.68330583  1  0  -0.416241  0  1.761943  0  0  -0.355963  0  2.264037  0  0  -0.372422  0  2.218687  0  -0.415319  0  -0.175689  -0.34398  0  2.295149  0
I  I123  1  0.96028578  0.52755432  0.31669357  1  0  -0.416228  0  1.761935  0  0  -0.35593  0  2.264006  0  0  -0.372402  0  2.218667  0  -0.415935  0  -0.175681  -0.343961  0  2.295164  0
I  I124  1  0.95515299  0.07510632  0.14953583  1  0  -0.469734  0  1.625125  0  0  -0.408659  0  2.072804  0  0  -0.426308  0  2.030521  0  -0.46674  0  -0.194844  -0.395674  0  2.103139  0
I  I125  1  0.45515174  0.42489398  0.85046459  1  0  -0.469744  0  1.62516  0  0  -0.408599  0  2.072797  0  0  -0.426275  0  2.030531  0  -0.466562  0  -0.194836  -0.395629  0  2.103154  0
I  I126  1  0.04484950  0.92489428  0.85046408  1  0  -0.469725  0  1.625114  0  0  -0.408629  0  2.072773  0  0  -0.426288  0  2.030495  0  -0.466511  0  -0.194846  -0.395643  0  2.10312  0
I  I127  1  0.54485075  0.57510552  0.14953552  1  0  -0.469738  0  1.625157  0  0  -0.408636  0  2.072815  0  0  -0.426302  0  2.030543  0  -0.466682  0  -0.194854  -0.395653  0  2.103173  0
N  N128  1  0.06728971  0.84792402  0.32337742  1  0  -0.357619  0  3.272034  0  0  -0.297548  0  3.563183  0  0  -0.308767  0  3.569741  0  -1.218037  0  -0.351207  -0.290698  0  3.558515  0
N  N129  1  0.56729809  0.65207522  0.67662299  1  0  -0.357767  0  3.27216  0  0  -0.297684  0  3.563314  0  0  -0.308901  0  3.56986  0  -1.218043  0  -0.351253  -0.290846  0  3.55866  0
N  N130  1  0.93270565  0.15207712  0.67662309  1  0  -0.357649  0  3.272138  0  0  -0.297585  0  3.563327  0  0  -0.308805  0  3.569883  0  -1.217995  0  -0.351226  -0.290735  0  3.558638  0
N  N131  1  0.43270678  0.34792372  0.32337746  1  0  -0.357657  0  3.272047  0  0  -0.297595  0  3.563237  0  0  -0.308815  0  3.569796  0  -1.218049  0  -0.351247  -0.29075  0  3.558572  0
N  N132  1  0.06245172  0.82013371  0.17669173  1  0  0.078113  0  3.563064  0  0  0.190225  0  3.746328  0  0  0.183545  0  3.768127  0  -0.77365  0  -0.133435  0.194502  0  3.731951  0
N  N133  1  0.56245534  0.67986718  0.82330860  1  0  0.078021  0  3.563093  0  0  0.190092  0  3.746399  0  0  0.183399  0  3.768225  0  -0.773681  0  -0.133476  0.194358  0  3.732013  0
N  N134  1  0.93754602  0.17986908  0.82330917  1  0  0.078068  0  3.562915  0  0  0.190101  0  3.746347  0  0  0.183415  0  3.768163  0  -0.773214  0  -0.133445  0.194363  0  3.731959  0
N  N135  1  0.43754715  0.32013067  0.17669113  1  0  0.078088  0  3.562967  0  0  0.190133  0  3.74634  0  0  0.18345  0  3.76815  0  -0.773332  0  -0.133433  0.194407  0  3.731958  0
N  N136  1  0.12891885  0.89170339  0.20121941  1  0  -0.086933  0  3.182225  0  0  -0.068101  0  3.492761  0  0  -0.062077  0  3.490307  0  -0.183885  0  -0.154011  -0.07301  0  3.494981  0
N  N137  1  0.62892010  0.60829750  0.79878185  1  0  -0.086849  0  3.182122  0  0  -0.068025  0  3.492639  0  0  -0.062012  0  3.490202  0  -0.183819  0  -0.15397  -0.072944  0  3.494872  0
N  N138  1  0.87108602  0.10829940  0.79878288  1  0  -0.086786  0  3.182079  0  0  -0.068023  0  3.492691  0  0  -0.062013  0  3.490256  0  -0.184373  0  -0.153963  -0.072924  0  3.494882  0
N  N139  1  0.37108240  0.39170035  0.20121741  1  0  -0.086774  0  3.182059  0  0  -0.068011  0  3.492648  0  0  -0.062002  0  3.490216  0  -0.184277  0  -0.153962  -0.072922  0  3.494868  0
N  N140  1  0.33319152  0.91033669  0.16140769  1  0  -0.216547  0  3.301022  0  0  -0.172093  0  3.623081  0  0  -0.176275  0  3.624737  0  -0.630868  0  -0.260643  -0.169513  0  3.622228  0
N  N141  1  0.83319277  0.58966421  0.83859357  1  0  -0.216592  0  3.301035  0  0  -0.172079  0  3.622972  0  0  -0.176267  0  3.62465  0  -0.630833  0  -0.260652  -0.169508  0  3.622138  0
N  N142  1  0.66680860  0.08966666  0.83859379  1  0  -0.216657  0  3.30123  0  0  -0.17214  0  3.623178  0  0  -0.176322  0  3.624842  0  -0.630734  0  -0.260653  -0.169564  0  3.622322  0
N  N143  1  0.16680973  0.41033309  0.16140556  1  0  -0.216644  0  3.301269  0  0  -0.172128  0  3.623214  0  0  -0.176312  0  3.624882  0  -0.630709  0  -0.260636  -0.169551  0  3.622366  0
O  O144  1  0.25671557  0.83547600  0.96522428  1  0  -0.549714  0  2.061797  0  0  -0.496395  0  2.284391  0  0  -0.514006  0  2.27664  0  -1.134257  0  -0.418513  -0.483693  0  2.289408  0
O  O145  1  0.75671681  0.66452380  0.03477532  1  0  -0.549686  0  2.061842  0  0  -0.496367  0  2.284452  0  0  -0.513979  0  2.276702  0  -1.134223  0  -0.41849  -0.483664  0  2.28947  0
O  O146  1  0.74328217  0.16452460  0.03477563  1  0  -0.549689  0  2.061724  0  0  -0.496388  0  2.284343  0  0  -0.514  0  2.276595  0  -1.134245  0  -0.418466  -0.483684  0  2.289359  0
O  O147  1  0.24328330  0.33547515  0.96522420  1  0  -0.549658  0  2.061702  0  0  -0.496367  0  2.284319  0  0  -0.513979  0  2.276568  0  -1.134262  0  -0.41847  -0.483664  0  2.289333  0
