# generated using pymatgen
data_BaH8(CO2)4
_symmetry_space_group_name_H-M   'P 1'
_cell_length_a   6.51204349
_cell_length_b   8.05284006
_cell_length_c   16.28654693
_cell_angle_alpha   89.99998460
_cell_angle_beta   95.25425143
_cell_angle_gamma   89.99996644
_symmetry_Int_Tables_number   1
_chemical_formula_structural   BaH8(CO2)4
_chemical_formula_sum   'Ba4 H32 C16 O32'
_cell_volume   850.48506091
_cell_formula_units_Z   4
loop_
 _symmetry_equiv_pos_site_id
 _symmetry_equiv_pos_as_xyz
  1  'x, y, z'
loop_
 _atom_site_type_symbol
 _atom_site_label
 _atom_site_symmetry_multiplicity
 _atom_site_fract_x
 _atom_site_fract_y
 _atom_site_fract_z
 _atom_site_occupancy
 _atom_site_hle17_bader_spin_density
 _atom_site_hle17_ddec_charge
 _atom_site_hle17_ddec_spin_density
 _atom_site_hle17_ddec_sum_bond_order
 _atom_site_hle17_magmom
 _atom_site_hse06_10hf_bader_spin_density
 _atom_site_hse06_10hf_ddec_charge
 _atom_site_hse06_10hf_ddec_spin_density
 _atom_site_hse06_10hf_ddec_sum_bond_order
 _atom_site_hse06_10hf_magmom
 _atom_site_hse06_bader_spin_density
 _atom_site_hse06_ddec_charge
 _atom_site_hse06_ddec_spin_density
 _atom_site_hse06_ddec_sum_bond_order
 _atom_site_hse06_magmom
 _atom_site_pbe_bader_spin_density
 _atom_site_pbe_cm5_charge
 _atom_site_pbe_ddec_charge
 _atom_site_pbe_ddec_spin_density
 _atom_site_pbe_ddec_sum_bond_order
 _atom_site_pbe_magmom
Ba  Ba0  1  0.99681632  0.24501515  0.14458353  1  0  1.623707  0  1.110253  0  0  1.465648  0  1.503656  0  0  1.507462  0  1.458207  0  0  0.942642  1.434884  0  1.535911  0
Ba  Ba1  1  0.00318449  0.74501656  0.35541609  1  0  1.62372  0  1.110261  0  0  1.465659  0  1.503664  0  0  1.507475  0  1.458213  0  0  0.942656  1.434898  0  1.535921  0
Ba  Ba2  1  0.00318457  0.75498310  0.85541550  1  0  1.623704  0  1.110249  0  0  1.465643  0  1.503659  0  0  1.507458  0  1.458209  0  0  0.942647  1.434882  0  1.535917  0
Ba  Ba3  1  0.99681486  0.25498417  0.64458411  1  0  1.623729  0  1.110236  0  0  1.465676  0  1.503638  0  0  1.50749  0  1.458188  0  0  0.942658  1.434916  0  1.535894  0
H  H4  1  0.54960664  0.72352838  0.29315675  1  0  0.367507  0  0.942695  0  0  0.342446  0  1.015933  0  0  0.353752  0  1.00209  0  0  0.300803  0.334509  0  1.024565  0
H  H5  1  0.45039419  0.22352719  0.20684288  1  0  0.367562  0  0.942627  0  0  0.342502  0  1.015861  0  0  0.353809  0  1.002016  0  0  0.30083  0.334563  0  1.024497  0
H  H6  1  0.45039271  0.27647359  0.70684284  1  0  0.367553  0  0.942625  0  0  0.342491  0  1.015866  0  0  0.353799  0  1.002029  0  0  0.300818  0.334553  0  1.024503  0
H  H7  1  0.54960670  0.77647106  0.79315799  1  0  0.367517  0  0.942659  0  0  0.34246  0  1.015893  0  0  0.353768  0  1.002069  0  0  0.300817  0.334523  0  1.024528  0
H  H8  1  0.92690697  0.64402720  0.08078315  1  0  0.38164  0  0.911783  0  0  0.358685  0  0.979596  0  0  0.369607  0  0.967155  0  0  0.306869  0.350964  0  0.988331  0
H  H9  1  0.07309237  0.14402732  0.41921643  1  0  0.381637  0  0.911779  0  0  0.358696  0  0.979569  0  0  0.369619  0  0.967126  0  0  0.306867  0.350975  0  0.988303  0
H  H10  1  0.07309237  0.35597229  0.91921705  1  0  0.381656  0  0.911791  0  0  0.358728  0  0.979562  0  0  0.369654  0  0.967113  0  0  0.306868  0.351006  0  0.988299  0
H  H11  1  0.92690544  0.85597341  0.58078371  1  0  0.381658  0  0.911753  0  0  0.358712  0  0.979552  0  0  0.369635  0  0.967109  0  0  0.306874  0.350991  0  0.988288  0
H  H12  1  0.28001517  0.05053117  0.00080959  1  0  0.422297  0  0.883213  0  0  0.391906  0  0.946695  0  0  0.402208  0  0.931751  0  0  0.301453  0.384637  0  0.957231  0
H  H13  1  0.71998424  0.55053093  0.49919000  1  0  0.422318  0  0.883182  0  0  0.391921  0  0.946675  0  0  0.402223  0  0.931731  0  0  0.30145  0.384652  0  0.957211  0
H  H14  1  0.71998418  0.94946831  0.99918999  1  0  0.422313  0  0.883188  0  0  0.391923  0  0.946672  0  0  0.402224  0  0.93173  0  0  0.301444  0.384654  0  0.957208  0
H  H15  1  0.28001510  0.44946856  0.50080958  1  0  0.422313  0  0.883188  0  0  0.39192  0  0.946675  0  0  0.402222  0  0.931731  0  0  0.301454  0.384651  0  0.957211  0
H  H16  1  0.42077769  0.02685003  0.08243115  1  0  0.425087  0  0.87611  0  0  0.391818  0  0.944421  0  0  0.402556  0  0.928735  0  0  0.299453  0.384178  0  0.955575  0
H  H17  1  0.57922328  0.52684990  0.41756789  1  0  0.425073  0  0.876133  0  0  0.391831  0  0.944409  0  0  0.40257  0  0.92872  0  0  0.299459  0.384189  0  0.955562  0
H  H18  1  0.57922320  0.97314821  0.91756788  1  0  0.425079  0  0.876123  0  0  0.391836  0  0.9444  0  0  0.402576  0  0.92871  0  0  0.299458  0.384196  0  0.955552  0
H  H19  1  0.42077761  0.47315083  0.58243175  1  0  0.425121  0  0.876064  0  0  0.391856  0  0.944369  0  0  0.402593  0  0.928684  0  0  0.299466  0.384216  0  0.955523  0
H  H20  1  0.83080832  0.16030945  0.94930235  1  0  0.414545  0  0.890222  0  0  0.384458  0  0.953503  0  0  0.395606  0  0.937188  0  0  0.296125  0.376547  0  0.965064  0
H  H21  1  0.16919273  0.66031095  0.55069733  1  0  0.414491  0  0.890294  0  0  0.384401  0  0.953586  0  0  0.395549  0  0.93727  0  0  0.296106  0.37649  0  0.965147  0
H  H22  1  0.16919411  0.83968879  0.05069674  1  0  0.414524  0  0.890247  0  0  0.384431  0  0.953545  0  0  0.395579  0  0.937229  0  0  0.296104  0.37652  0  0.965106  0
H  H23  1  0.83080662  0.33968978  0.44930225  1  0  0.41454  0  0.890235  0  0  0.384447  0  0.953528  0  0  0.395596  0  0.937211  0  0  0.296123  0.376535  0  0.96509  0
H  H24  1  0.79415222  0.35846191  0.94557049  1  0  0.41795  0  0.891049  0  0  0.384449  0  0.960075  0  0  0.396202  0  0.942988  0  0  0.296454  0.376143  0  0.972123  0
H  H25  1  0.20584713  0.85846464  0.55442848  1  0  0.417923  0  0.891076  0  0  0.384422  0  0.960103  0  0  0.396176  0  0.943016  0  0  0.296452  0.376117  0  0.972151  0
H  H26  1  0.20584713  0.64153509  0.05442786  1  0  0.417975  0  0.891023  0  0  0.384483  0  0.960032  0  0  0.396237  0  0.942946  0  0  0.296471  0.376178  0  0.97208  0
H  H27  1  0.79415221  0.14153609  0.44557172  1  0  0.417939  0  0.891059  0  0  0.384436  0  0.960088  0  0  0.39619  0  0.943002  0  0  0.29645  0.37613  0  0.972137  0
H  H28  1  0.43912013  0.78261070  0.16676166  1  0  0.067453  0  0.915191  0  0  0.07835  0  0.974283  0  0  0.080612  0  0.972117  0  0  0.123485  0.076679  0  0.975995  0
H  H29  1  0.56088065  0.28260939  0.33323795  1  0  0.067468  0  0.915168  0  0  0.078342  0  0.974285  0  0  0.080605  0  0.972119  0  0  0.123476  0.076675  0  0.975992  0
H  H30  1  0.56088076  0.21739003  0.83323798  1  0  0.067459  0  0.915172  0  0  0.078339  0  0.974282  0  0  0.080601  0  0.972117  0  0  0.123476  0.076671  0  0.975991  0
H  H31  1  0.43911870  0.71739010  0.66676286  1  0  0.067459  0  0.915171  0  0  0.078346  0  0.974292  0  0  0.080609  0  0.972128  0  0  0.123475  0.076677  0  0.976001  0
H  H32  1  0.58477307  0.66703408  0.04774741  1  0  0.062143  0  0.924079  0  0  0.068979  0  0.989347  0  0  0.071505  0  0.986957  0  0  0.117206  0.067113  0  0.991263  0
H  H33  1  0.41522625  0.16703402  0.45225217  1  0  0.062116  0  0.924046  0  0  0.068963  0  0.989317  0  0  0.071488  0  0.98693  0  0  0.117192  0.067098  0  0.991234  0
H  H34  1  0.41522782  0.33296416  0.95225162  1  0  0.062123  0  0.924091  0  0  0.068975  0  0.989353  0  0  0.071493  0  0.98697  0  0  0.117214  0.06711  0  0.991269  0
H  H35  1  0.58477155  0.83296671  0.54774859  1  0  0.062112  0  0.924087  0  0  0.06896  0  0.989322  0  0  0.07148  0  0.986935  0  0  0.117187  0.067095  0  0.991238  0
C  C36  1  0.73792360  0.89252341  0.16340165  1  0  0.648699  0  3.871523  0  0  0.595726  0  4.177205  0  0  0.628625  0  4.168987  0  0  0.217209  0.573316  0  4.182173  0
C  C37  1  0.26207555  0.39252099  0.33659666  1  0  0.648648  0  3.871614  0  0  0.595653  0  4.177319  0  0  0.628562  0  4.169084  0  0  0.217194  0.573242  0  4.182288  0
C  C38  1  0.26207575  0.10747857  0.83659671  1  0  0.648769  0  3.871386  0  0  0.595747  0  4.177139  0  0  0.628647  0  4.16892  0  0  0.217244  0.573338  0  4.18211  0
C  C39  1  0.73792071  0.60747725  0.66340281  1  0  0.648798  0  3.871341  0  0  0.595783  0  4.177106  0  0  0.628681  0  4.168888  0  0  0.217242  0.573372  0  4.182078  0
C  C40  1  0.60093495  0.74090860  0.17606988  1  0  0.061664  0  3.650724  0  0  0.034719  0  3.907392  0  0  0.036716  0  3.913375  0  0  0.001592  0.033217  0  3.903488  0
C  C41  1  0.39906740  0.24090613  0.32392980  1  0  0.061597  0  3.650685  0  0  0.03468  0  3.907337  0  0  0.036671  0  3.91332  0  0  0.001559  0.03318  0  3.903425  0
C  C42  1  0.39906748  0.25909461  0.82392982  1  0  0.061585  0  3.650748  0  0  0.034674  0  3.907408  0  0  0.036663  0  3.913396  0  0  0.001583  0.033174  0  3.903506  0
C  C43  1  0.60093349  0.75909336  0.67607107  1  0  0.061702  0  3.65065  0  0  0.03471  0  3.907404  0  0  0.036699  0  3.913393  0  0  0.001625  0.033215  0  3.90349  0
C  C44  1  0.63620367  0.61199509  0.10818700  1  0  0.068366  0  3.65763  0  0  0.04136  0  3.914086  0  0  0.043142  0  3.920281  0  0  0.00428  0.039886  0  3.910234  0
C  C45  1  0.36379723  0.11199384  0.39181325  1  0  0.06849  0  3.657421  0  0  0.041447  0  3.913919  0  0  0.043232  0  3.920117  0  0  0.004305  0.039969  0  3.910073  0
C  C46  1  0.36379721  0.38800440  0.89181387  1  0  0.068489  0  3.657516  0  0  0.041454  0  3.913983  0  0  0.043252  0  3.920181  0  0  0.004258  0.039972  0  3.910147  0
C  C47  1  0.63620057  0.88800565  0.60818750  1  0  0.06843  0  3.657597  0  0  0.041492  0  3.913947  0  0  0.043292  0  3.920144  0  0  0.004286  0.040012  0  3.910106  0
C  C48  1  0.50127686  0.46039394  0.12154307  1  0  0.668853  0  3.843277  0  0  0.613536  0  4.153654  0  0  0.647136  0  4.144531  0  0  0.230158  0.590689  0  4.159228  0
C  C49  1  0.49872377  0.96039263  0.37845774  1  0  0.668833  0  3.843184  0  0  0.613527  0  4.153566  0  0  0.647125  0  4.144444  0  0  0.230158  0.590681  0  4.159141  0
C  C50  1  0.49872556  0.53960803  0.87845786  1  0  0.668739  0  3.843385  0  0  0.613442  0  4.153752  0  0  0.647034  0  4.144639  0  0  0.230141  0.590599  0  4.159325  0
C  C51  1  0.50127403  0.03960686  0.62154301  1  0  0.668865  0  3.843155  0  0  0.613528  0  4.153541  0  0  0.64712  0  4.144426  0  0  0.23018  0.590684  0  4.159115  0
O  O52  1  0.68628953  0.98282946  0.09973101  1  0  -0.711308  0  2.038031  0  0  -0.643782  0  2.26807  0  0  -0.670234  0  2.256992  0  0  -0.340703  -0.625219  0  2.275299  0
O  O53  1  0.31370802  0.48282823  0.40026723  1  0  -0.711295  0  2.038051  0  0  -0.643756  0  2.268097  0  0  -0.670214  0  2.257012  0  0  -0.340698  -0.625192  0  2.275324  0
O  O54  1  0.31370828  0.01717127  0.90026730  1  0  -0.711344  0  2.037983  0  0  -0.643793  0  2.268037  0  0  -0.670246  0  2.256957  0  0  -0.340712  -0.625227  0  2.275266  0
O  O55  1  0.68628670  0.51717125  0.59973157  1  0  -0.711402  0  2.037955  0  0  -0.643832  0  2.267995  0  0  -0.670282  0  2.256916  0  0  -0.340753  -0.625267  0  2.275226  0
O  O56  1  0.89344372  0.92203965  0.21318236  1  0  -0.679771  0  1.958731  0  0  -0.61788  0  2.194166  0  0  -0.644102  0  2.184662  0  0  -0.368491  -0.5995  0  2.200243  0
O  O57  1  0.10655541  0.42203485  0.28681717  1  0  -0.679756  0  1.958803  0  0  -0.617858  0  2.194243  0  0  -0.644084  0  2.184733  0  0  -0.368508  -0.599479  0  2.200321  0
O  O58  1  0.10655563  0.07796605  0.78681723  1  0  -0.679818  0  1.958731  0  0  -0.61791  0  2.194186  0  0  -0.644131  0  2.184681  0  0  -0.368546  -0.599531  0  2.200266  0
O  O59  1  0.89344239  0.57796091  0.71318235  1  0  -0.679807  0  1.958721  0  0  -0.617902  0  2.194185  0  0  -0.644124  0  2.184681  0  0  -0.368486  -0.599523  0  2.200264  0
O  O60  1  0.64127286  0.66644664  0.25474021  1  0  -0.58688  0  2.105407  0  0  -0.536849  0  2.33583  0  0  -0.553691  0  2.323427  0  0  -0.426453  -0.524771  0  2.343358  0
O  O61  1  0.35873263  0.16644175  0.24526021  1  0  -0.586873  0  2.10528  0  0  -0.536837  0  2.335678  0  0  -0.553675  0  2.323268  0  0  -0.426415  -0.524758  0  2.343202  0
O  O62  1  0.35873111  0.33355781  0.74526016  1  0  -0.586886  0  2.105327  0  0  -0.53686  0  2.335743  0  0  -0.553696  0  2.323338  0  0  -0.426424  -0.524779  0  2.34327  0
O  O63  1  0.64127134  0.83355401  0.75474139  1  0  -0.586909  0  2.105348  0  0  -0.536868  0  2.335782  0  0  -0.553706  0  2.323391  0  0  -0.426459  -0.52479  0  2.343308  0
O  O64  1  0.84551534  0.56300238  0.11148175  1  0  -0.592523  0  2.137704  0  0  -0.538039  0  2.368963  0  0  -0.554881  0  2.357281  0  0  -0.427894  -0.525897  0  2.37688  0
O  O65  1  0.15448560  0.06300248  0.38851790  1  0  -0.592581  0  2.137677  0  0  -0.538096  0  2.368927  0  0  -0.55494  0  2.357244  0  0  -0.427909  -0.525952  0  2.376846  0
O  O66  1  0.15448555  0.43699711  0.88851850  1  0  -0.592534  0  2.137609  0  0  -0.538095  0  2.368896  0  0  -0.554947  0  2.357212  0  0  -0.427888  -0.525949  0  2.376818  0
O  O67  1  0.84551220  0.93699825  0.61148224  1  0  -0.592587  0  2.137683  0  0  -0.538131  0  2.368909  0  0  -0.554982  0  2.357227  0  0  -0.427912  -0.525986  0  2.376831  0
O  O68  1  0.58939789  0.33107432  0.15240668  1  0  -0.658462  0  2.040023  0  0  -0.596707  0  2.278  0  0  -0.623087  0  2.267767  0  0  -0.345385  -0.57826  0  2.284375  0
O  O69  1  0.41060285  0.83107555  0.34759354  1  0  -0.658437  0  2.040042  0  0  -0.596677  0  2.278  0  0  -0.623056  0  2.267768  0  0  -0.345378  -0.57823  0  2.284375  0
O  O70  1  0.41060454  0.66892268  0.84759302  1  0  -0.658399  0  2.040125  0  0  -0.596627  0  2.278049  0  0  -0.623004  0  2.267823  0  0  -0.345371  -0.57818  0  2.284423  0
O  O71  1  0.58939495  0.16892642  0.65240660  1  0  -0.658463  0  2.039993  0  0  -0.5967  0  2.277964  0  0  -0.623079  0  2.267735  0  0  -0.345389  -0.578252  0  2.284339  0
O  O72  1  0.30845069  0.47510557  0.10273269  1  0  -0.670982  0  1.982296  0  0  -0.61085  0  2.220711  0  0  -0.638074  0  2.210838  0  0  -0.333431  -0.591799  0  2.226977  0
O  O73  1  0.69154994  0.97510540  0.39726689  1  0  -0.670986  0  1.982256  0  0  -0.610853  0  2.220674  0  0  -0.638076  0  2.2108  0  0  -0.333434  -0.591807  0  2.226956  0
O  O74  1  0.69155019  0.52489516  0.89726695  1  0  -0.670965  0  1.982323  0  0  -0.610831  0  2.220728  0  0  -0.638054  0  2.210859  0  0  -0.333434  -0.591782  0  2.227  0
O  O75  1  0.30844787  0.02489533  0.60273325  1  0  -0.671005  0  1.982252  0  0  -0.610872  0  2.220678  0  0  -0.638095  0  2.210808  0  0  -0.33345  -0.591827  0  2.22696  0
O  O76  1  0.27269384  0.03990385  0.06146939  1  0  -0.862342  0  1.819783  0  0  -0.800262  0  1.99162  0  0  -0.821922  0  1.960876  0  0  -0.596654  -0.784859  0  2.013144  0
O  O77  1  0.72730712  0.53990364  0.43853026  1  0  -0.862367  0  1.819797  0  0  -0.8003  0  1.991578  0  0  -0.821962  0  1.960832  0  0  -0.596656  -0.784895  0  2.013104  0
O  O78  1  0.72730705  0.96009688  0.93853025  1  0  -0.862364  0  1.819776  0  0  -0.800307  0  1.991558  0  0  -0.821968  0  1.960813  0  0  -0.596651  -0.784902  0  2.013084  0
O  O79  1  0.27269376  0.46009585  0.56146999  1  0  -0.862376  0  1.819715  0  0  -0.800306  0  1.991552  0  0  -0.821964  0  1.96081  0  0  -0.59666  -0.784902  0  2.013076  0
O  O80  1  0.88937742  0.26874819  0.96979247  1  0  -0.86765  0  1.854462  0  0  -0.807732  0  2.028276  0  0  -0.829162  0  1.995659  0  0  -0.598714  -0.792486  0  2.051083  0
O  O81  1  0.11062355  0.76874849  0.53020719  1  0  -0.867572  0  1.854529  0  0  -0.807647  0  2.02834  0  0  -0.829076  0  1.995726  0  0  -0.598701  -0.7924  0  2.051145  0
O  O82  1  0.11062347  0.73125005  0.03020656  1  0  -0.867663  0  1.854472  0  0  -0.807741  0  2.028291  0  0  -0.82917  0  1.995678  0  0  -0.598722  -0.792496  0  2.051096  0
O  O83  1  0.88937734  0.23125100  0.46979307  1  0  -0.867632  0  1.85447  0  0  -0.807712  0  2.028295  0  0  -0.829142  0  1.99568  0  0  -0.598717  -0.792465  0  2.051102  0
