# generated using pymatgen
data_Cu2H9C16N5O8
_symmetry_space_group_name_H-M   'P 1'
_cell_length_a   8.53449239
_cell_length_b   9.14911184
_cell_length_c   15.60740908
_cell_angle_alpha   107.07988003
_cell_angle_beta   109.06694254
_cell_angle_gamma   90.00429068
_symmetry_Int_Tables_number   1
_chemical_formula_structural   Cu2H9C16N5O8
_chemical_formula_sum   'Cu4 H18 C32 N10 O16'
_cell_volume   1094.77888378
_cell_formula_units_Z   2
loop_
 _symmetry_equiv_pos_site_id
 _symmetry_equiv_pos_as_xyz
  1  'x, y, z'
loop_
 _atom_site_type_symbol
 _atom_site_label
 _atom_site_symmetry_multiplicity
 _atom_site_fract_x
 _atom_site_fract_y
 _atom_site_fract_z
 _atom_site_occupancy
 _atom_site_pbe_cm5_charge
 _atom_site_pbe_ddec_charge
 _atom_site_pbe_ddec_spin_density
 _atom_site_pbe_ddec_sum_bond_order
 _atom_site_pbe_magmom
Cu  Cu0  1  0.92569475  0.77455272  0.57154750  1  0.707654  0.806868  0.000205  2.224458  0.0
Cu  Cu1  1  0.57477899  0.20290709  0.42866324  1  0.707393  0.806221  -0.000109  2.225057  0.0
Cu  Cu2  1  0.07426791  0.22548074  0.42845448  1  0.707236  0.806381  -0.000199  2.223841  0.0
Cu  Cu3  1  0.42517799  0.79705604  0.57131376  1  0.708145  0.806852  0.000107  2.227768  0.0
H  H4  1  0.75020064  0.97633532  0.00014630  1  0.339448  0.300244  -0.0  0.910697  0.0
H  H5  1  0.24982692  0.02367520  0.99986312  1  0.339352  0.300188  0.0  0.910805  0.0
H  H6  1  0.88387887  0.69908610  0.73011974  1  0.1293  0.113293  1e-06  0.972322  0.0
H  H7  1  0.61675936  0.96861286  0.27001590  1  0.129051  0.112163  1e-06  0.971941  0.0
H  H8  1  0.11614684  0.30090341  0.26986721  1  0.129275  0.113234  -1e-06  0.972437  0.0
H  H9  1  0.38320056  0.03138924  0.72996237  1  0.128987  0.11225  -1e-06  0.97162  0.0
H  H10  1  0.80845225  0.83087462  0.87220950  1  0.107094  0.111647  0.0  0.998029  0.0
H  H11  1  0.69270740  0.95879622  0.12819023  1  0.107118  0.111472  -0.0  0.997087  0.0
H  H12  1  0.19160965  0.16910552  0.12780037  1  0.107084  0.111606  -0.0  0.998031  0.0
H  H13  1  0.30733553  0.04120296  0.87181242  1  0.107104  0.111416  0.0  0.997121  0.0
H  H14  1  0.88885362  0.26153596  0.82173414  1  0.1225  0.136846  0.0  0.977592  0.0
H  H15  1  0.61051697  0.43964902  0.17865288  1  0.122529  0.13696  1e-06  0.97562  0.0
H  H16  1  0.11118790  0.73844811  0.17825612  1  0.122493  0.136942  -0.0  0.977347  0.0
H  H17  1  0.38949944  0.56037620  0.82135613  1  0.122394  0.136695  -1e-06  0.97574  0.0
H  H18  1  0.95679607  0.10918810  0.67946049  1  0.1295  0.106333  1e-06  0.972407  0.0
H  H19  1  0.54211786  0.42913430  0.32063738  1  0.129889  0.107141  1e-06  0.972821  0.0
H  H20  1  0.04320730  0.89079987  0.32052361  1  0.129544  0.106439  -1e-06  0.972446  0.0
H  H21  1  0.45783586  0.57082770  0.67934345  1  0.129915  0.107241  -1e-06  0.972707  0.0
C  C22  1  0.79234397  0.14646466  0.93859289  1  0.214624  0.246343  0.0  4.046643  0.0
C  C23  1  0.70788352  0.20802059  0.06180097  1  0.215035  0.247767  -1e-06  4.04372  0.0
C  C24  1  0.20770826  0.85354853  0.06141799  1  0.214706  0.24628  -0.0  4.046505  0.0
C  C25  1  0.29216283  0.79199125  0.93820241  1  0.215099  0.247967  1e-06  4.043296  0.0
C  C26  1  0.88470712  0.82355456  0.75387132  1  0.05471  0.114795  -0.0  3.922386  0.0
C  C27  1  0.61555759  0.06934950  0.24630600  1  0.055201  0.117031  0.0  3.921133  0.0
C  C28  1  0.11529852  0.17644962  0.24612165  1  0.054778  0.114765  0.0  3.922498  0.0
C  C29  1  0.38441003  0.93063091  0.75366842  1  0.05511  0.116766  -0.0  3.921122  0.0
C  C30  1  0.84349317  0.89935137  0.83344925  1  -0.0899  -0.178956  2e-06  3.96988  0.0
C  C31  1  0.65712586  0.06587189  0.16689822  1  -0.09026  -0.179619  -1e-06  3.969383  0.0
C  C32  1  0.15653238  0.10063957  0.16655526  1  -0.089935  -0.178915  -2e-06  3.970249  0.0
C  C33  1  0.34290075  0.93412455  0.83309197  1  -0.090216  -0.179523  1e-06  3.969487  0.0
C  C34  1  0.84264011  0.05977863  0.85939929  1  0.006863  0.049239  -1e-06  4.04393  0.0
C  C35  1  0.65756855  0.20036726  0.14094607  1  0.006963  0.049706  -0.0  4.045214  0.0
C  C36  1  0.15739439  0.94021704  0.14060604  1  0.006884  0.049476  1e-06  4.044149  0.0
C  C37  1  0.34246905  0.79963761  0.85905935  1  0.007003  0.049547  0.0  4.045502  0.0
C  C38  1  0.88836622  0.13730619  0.80429017  1  -0.070187  -0.141125  2e-06  3.907025  0.0
C  C39  1  0.61130696  0.33278636  0.19601780  1  -0.069777  -0.14066  -0.0  3.905089  0.0
C  C40  1  0.11166198  0.86268806  0.19570438  1  -0.070248  -0.141452  -2e-06  3.9069  0.0
C  C41  1  0.38871864  0.66723195  0.80398110  1  -0.069558  -0.139989  0.0  3.905154  0.0
C  C42  1  0.92666627  0.05288055  0.72546954  1  0.059338  0.111061  -0.0  3.925037  0.0
C  C43  1  0.57269068  0.32694300  0.27468819  1  0.057303  0.108332  1e-06  3.92721  0.0
C  C44  1  0.07333130  0.94711095  0.27452459  1  0.05932  0.110968  0.0  3.925003  0.0
C  C45  1  0.42728518  0.67304447  0.72528991  1  0.057148  0.107737  -1e-06  3.927231  0.0
C  C46  1  0.03693165  0.49311152  0.55021009  1  0.201867  0.470335  0.0  4.232377  0.0
C  C47  1  0.46291268  0.94286002  0.44978241  1  0.201349  0.468689  0.0  4.236008  0.0
C  C48  1  0.96303574  0.50696328  0.44979640  1  0.201672  0.469445  1e-06  4.232856  0.0
C  C49  1  0.53701984  0.05709093  0.55023970  1  0.201522  0.469117  -0.0  4.235551  0.0
C  C50  1  0.09603001  0.99560707  0.51685731  1  0.19929  0.471655  3e-06  4.197065  0.0
C  C51  1  0.40393222  0.47869818  0.48305059  1  0.20056  0.473078  -1e-06  4.19619  0.0
C  C52  1  0.90394832  0.00438887  0.48314571  1  0.199346  0.471929  -2e-06  4.197727  0.0
C  C53  1  0.59607025  0.52132126  0.51696698  1  0.200746  0.472897  1e-06  4.194983  0.0
N  N54  1  0.92373842  0.89853306  0.69996837  1  -0.343371  -0.230977  1.7e-05  3.600345  0.0
N  N55  1  0.57582043  0.19805096  0.30007029  1  -0.34238  -0.230407  -7e-06  3.601727  0.0
N  N56  1  0.07624190  0.10145459  0.30001619  1  -0.343357  -0.230944  -1.8e-05  3.599783  0.0
N  N57  1  0.42410420  0.80191579  0.69987888  1  -0.342343  -0.230022  7e-06  3.601775  0.0
N  N58  1  0.77631406  0.29690346  0.96196094  1  -0.218012  -0.228148  -1e-06  3.161835  0.0
N  N59  1  0.72365924  0.33513342  0.03848112  1  -0.219326  -0.231135  -0.0  3.161199  0.0
N  N60  1  0.22375199  0.70310644  0.03804561  1  -0.217958  -0.228092  1e-06  3.161595  0.0
N  N61  1  0.27639873  0.66487755  0.96152829  1  -0.219461  -0.231242  0.0  3.160932  0.0
N  N62  1  0.75016266  0.08709107  0.00018345  1  -0.374266  -0.33776  -0.0  3.635909  0.0
N  N63  1  0.24987297  0.91291837  0.99982310  1  -0.374252  -0.337835  0.0  3.635951  0.0
O  O64  1  0.03566772  0.60763650  0.61945736  1  -0.293007  -0.46619  1.5e-05  2.347392  0.0
O  O65  1  0.46422187  0.98806843  0.38056525  1  -0.293058  -0.465167  -7e-06  2.348994  0.0
O  O66  1  0.96431091  0.39242361  0.38055019  1  -0.292914  -0.465732  -1.8e-05  2.34701  0.0
O  O67  1  0.53563470  0.01178655  0.61939935  1  -0.293384  -0.465594  7e-06  2.349893  0.0
O  O68  1  0.09585465  0.36922672  0.55813275  1  -0.293345  -0.441545  -1.7e-05  2.280503  0.0
O  O69  1  0.40386562  0.81100822  0.44177724  1  -0.292182  -0.440211  7e-06  2.282435  0.0
O  O70  1  0.90410991  0.63085009  0.44185954  1  -0.293125  -0.441208  1.4e-05  2.280903  0.0
O  O71  1  0.59609483  0.18896130  0.55830280  1  -0.292132  -0.440241  -6e-06  2.281088  0.0
O  O72  1  0.15375962  0.91021601  0.56718047  1  -0.302926  -0.553185  -6e-06  2.393277  0.0
O  O73  1  0.34630080  0.34295339  0.43268437  1  -0.303994  -0.554092  2e-06  2.391424  0.0
O  O74  1  0.84627095  0.08979043  0.43285566  1  -0.302892  -0.552985  5e-06  2.393934  0.0
O  O75  1  0.65368708  0.65711183  0.56734593  1  -0.304239  -0.554305  -2e-06  2.390663  0.0
O  O76  1  0.18352953  0.07508885  0.49052853  1  -0.30463  -0.479347  -2.2e-05  2.397135  0.0
O  O77  1  0.31630979  0.58452584  0.50933076  1  -0.304008  -0.478504  9e-06  2.396187  0.0
O  O78  1  0.81645152  0.92489907  0.50947159  1  -0.304646  -0.479603  2.2e-05  2.397559  0.0
O  O79  1  0.68373378  0.41551021  0.49068532  1  -0.304152  -0.478649  -9e-06  2.395355  0.0
