# generated using pymatgen
data_MnH7C10N3O5
_symmetry_space_group_name_H-M   'P 1'
_cell_length_a   7.62672340
_cell_length_b   10.18973061
_cell_length_c   15.74579897
_cell_angle_alpha   89.99964909
_cell_angle_beta   90.00108506
_cell_angle_gamma   89.99974321
_symmetry_Int_Tables_number   1
_chemical_formula_structural   MnH7C10N3O5
_chemical_formula_sum   'Mn4 H28 C40 N12 O20'
_cell_volume   1223.67306526
_cell_formula_units_Z   4
loop_
 _symmetry_equiv_pos_site_id
 _symmetry_equiv_pos_as_xyz
  1  'x, y, z'
loop_
 _atom_site_type_symbol
 _atom_site_label
 _atom_site_symmetry_multiplicity
 _atom_site_fract_x
 _atom_site_fract_y
 _atom_site_fract_z
 _atom_site_occupancy
 _atom_site_pbe_bader_charge
 _atom_site_pbe_bader_spin_density
 _atom_site_pbe_cm5_charge
 _atom_site_pbe_ddec_charge
 _atom_site_pbe_ddec_spin_density
 _atom_site_pbe_ddec_sum_bond_order
 _atom_site_pbe_magmom
Mn  Mn0  1  0.34364035  0.02195167  0.46622555  1  1.517706  4.516597  0.605112  0.963248  4.650186  2.381545  4.441
Mn  Mn1  1  0.65636095  0.97804766  0.96623400  1  1.517823  4.516605  0.605146  0.96328  4.650189  2.381489  4.441
Mn  Mn2  1  0.84363482  0.47804827  0.46622945  1  1.517605  4.516685  0.605119  0.963233  4.65025  2.381462  4.441
Mn  Mn3  1  0.15635731  0.52194811  0.96623518  1  1.517711  4.516641  0.605104  0.963195  4.650199  2.381546  4.441
H  H4  1  0.25501570  0.79176571  0.54582137  1  0.658353  0.001512  0.287267  0.383751  0.000938  0.958784  0.002
H  H5  1  0.74498337  0.20823074  0.04583360  1  0.658348  0.001512  0.287264  0.383683  0.000938  0.958883  0.002
H  H6  1  0.75501442  0.70823175  0.54582761  1  0.658342  0.001513  0.287292  0.383791  0.000938  0.958722  0.002
H  H7  1  0.24498466  0.29176077  0.04583180  1  0.658315  0.001513  0.28728  0.38373  0.000938  0.958811  0.002
H  H8  1  0.07534713  0.87417056  0.54189363  1  0.620801  0.002163  0.291687  0.38655  0.001324  0.94662  0.003
H  H9  1  0.92465310  0.12582887  0.04190146  1  0.620805  0.002163  0.291674  0.38648  0.001325  0.946724  0.003
H  H10  1  0.57534241  0.62583146  0.54189130  1  0.620766  0.002164  0.291742  0.38666  0.001324  0.946493  0.003
H  H11  1  0.42465258  0.37416698  0.04189998  1  0.620795  0.002163  0.291684  0.386505  0.001325  0.946696  0.003
H  H12  1  0.56435647  0.53157471  0.15187439  1  0.499935  0.000969  0.345756  0.305582  0.000741  0.892514  0.0
H  H13  1  0.43564680  0.46842957  0.65187524  1  0.499902  0.000969  0.345705  0.305585  0.000741  0.892403  0.0
H  H14  1  0.06435932  0.96842517  0.15187063  1  0.500015  0.000968  0.345757  0.305615  0.000741  0.892494  0.0
H  H15  1  0.93565052  0.03157518  0.65186948  1  0.499956  0.000968  0.345801  0.305611  0.000741  0.892592  0.0
H  H16  1  0.41901224  0.09740093  0.28276856  1  0.17515  0.001247  0.126911  0.108655  0.00037  0.984062  0.0
H  H17  1  0.58098049  0.90260014  0.78277853  1  0.175154  0.001247  0.126965  0.108663  0.00037  0.98411  0.0
H  H18  1  0.91900979  0.40260247  0.28277149  1  0.175218  0.001247  0.126935  0.108654  0.00037  0.984053  0.0
H  H19  1  0.08097638  0.59739958  0.78277560  1  0.17515  0.001247  0.126934  0.10866  0.00037  0.984077  0.0
H  H20  1  0.56679922  0.99623662  0.15707424  1  0.125461  0.001411  0.115411  0.125765  0.001117  1.014928  0.0
H  H21  1  0.43320427  0.00376172  0.65707690  1  0.125326  0.001411  0.115419  0.125805  0.001116  1.014914  0.0
H  H22  1  0.06680092  0.50376516  0.15707739  1  0.125353  0.001412  0.115425  0.125756  0.001117  1.014963  0.0
H  H23  1  0.93319470  0.49623808  0.65707628  1  0.125264  0.001411  0.115445  0.12582  0.001116  1.014867  0.0
H  H24  1  0.44629994  0.61648239  0.26735402  1  0.075456  0.000839  0.115864  0.125341  0.000348  0.979111  0.0
H  H25  1  0.55370266  0.38351981  0.76735500  1  0.07542  0.000839  0.11589  0.125431  0.000348  0.979163  0.0
H  H26  1  0.94630416  0.88352296  0.26735512  1  0.075395  0.000838  0.115912  0.125439  0.000348  0.979136  0.0
H  H27  1  0.05371287  0.11648119  0.76735199  1  0.075458  0.000838  0.115897  0.125365  0.000348  0.979147  0.0
H  H28  1  0.31075098  0.73339289  0.38796820  1  0.112292  0.001437  0.123168  0.094829  0.00071  0.99964  0.001
H  H29  1  0.68925772  0.26660915  0.88797151  1  0.112179  0.001436  0.123284  0.094983  0.00071  0.999464  0.001
H  H30  1  0.81075065  0.76661178  0.38796977  1  0.111927  0.001437  0.123218  0.094868  0.00071  0.999574  0.001
H  H31  1  0.18925017  0.23339026  0.88797248  1  0.112178  0.001436  0.123224  0.094882  0.00071  0.999598  0.001
C  C32  1  0.42669685  0.99119298  0.27579608  1  0.387561  0.011785  0.05257  0.102496  0.009016  3.923946  0.007
C  C33  1  0.57329822  0.00880816  0.77580316  1  0.387408  0.011783  0.052568  0.102553  0.009014  3.923891  0.007
C  C34  1  0.92669546  0.50881138  0.27579929  1  0.38738  0.011783  0.052533  0.102477  0.009014  3.92382  0.007
C  C35  1  0.07329437  0.49119073  0.77580185  1  0.38757  0.01178  0.052533  0.102483  0.009013  3.923913  0.007
C  C36  1  0.50843717  0.93477755  0.20617608  1  0.059121  0.001232  -0.080758  -0.163083  0.000392  3.934358  0.0
C  C37  1  0.49156170  0.06522425  0.70618030  1  0.05935  0.001234  -0.080807  -0.163195  0.000394  3.93447  0.0
C  C38  1  0.00844244  0.56522494  0.20617900  1  0.059322  0.001234  -0.080774  -0.163052  0.000395  3.934245  0.0
C  C39  1  0.99155381  0.43477882  0.70617802  1  0.058959  0.001233  -0.080865  -0.163237  0.000394  3.934348  0.0
C  C40  1  0.51725646  0.79741083  0.20063396  1  -0.072937  0.011811  0.008122  0.046548  0.008873  4.045115  0.007
C  C41  1  0.48274612  0.20258906  0.70063375  1  -0.072866  0.011808  0.008127  0.046593  0.008871  4.045137  0.007
C  C42  1  0.01725960  0.70259169  0.20063506  1  -0.072636  0.011806  0.008158  0.046608  0.008869  4.044975  0.007
C  C43  1  0.98274692  0.29740820  0.70063201  1  -0.072212  0.011806  0.008142  0.046548  0.00887  4.04515  0.007
C  C44  1  0.44294299  0.72341751  0.26675300  1  -0.042345  0.000849  -0.082654  -0.168173  -0.000222  3.948215  0.0
C  C45  1  0.55705959  0.27658469  0.76675443  1  -0.042311  0.00085  -0.082784  -0.168396  -0.00022  3.948495  0.0
C  C46  1  0.94294654  0.77658590  0.26675452  1  -0.042327  0.000851  -0.08273  -0.168349  -0.00022  3.94834  0.0
C  C47  1  0.05706522  0.22341729  0.76675291  1  -0.042342  0.00085  -0.082738  -0.168235  -0.00022  3.948366  0.0
C  C48  1  0.36674498  0.78822178  0.33499930  1  0.541401  0.011914  0.054817  0.100271  0.009666  3.951204  0.008
C  C49  1  0.63325638  0.21178076  0.83500295  1  0.541301  0.011911  0.054804  0.100164  0.009664  3.951272  0.008
C  C50  1  0.86674760  0.71178320  0.33499917  1  0.541687  0.011907  0.054808  0.100302  0.009661  3.951328  0.008
C  C51  1  0.13325506  0.28822032  0.83500180  1  0.541346  0.01191  0.054827  0.100268  0.009663  3.95118  0.008
C  C52  1  0.60647180  0.73679705  0.12950758  1  1.01034  0.008864  0.221437  0.284044  0.006883  4.030855  0.006
C  C53  1  0.39353060  0.26320646  0.62950695  1  1.010313  0.008864  0.221442  0.284012  0.006883  4.030832  0.006
C  C54  1  0.10647194  0.76320192  0.12950653  1  1.010102  0.008863  0.221409  0.283971  0.006883  4.030843  0.006
C  C55  1  0.89353570  0.23679864  0.62950355  1  1.009886  0.008863  0.221475  0.283995  0.006882  4.030798  0.006
C  C56  1  0.77691907  0.70537840  0.02011860  1  0.407181  0.007136  0.090232  0.000613  0.005239  3.984057  0.003
C  C57  1  0.22308293  0.29462517  0.52011503  1  0.407053  0.007135  0.09024  0.000566  0.005239  3.984166  0.003
C  C58  1  0.27692164  0.79461809  0.02011870  1  0.407161  0.007136  0.090134  0.00046  0.00524  3.984046  0.003
C  C59  1  0.72308035  0.20537762  0.52011493  1  0.407605  0.007135  0.090177  0.00051  0.00524  3.984135  0.003
C  C60  1  0.73184827  0.58106297  0.05073252  1  0.420914  0.008457  0.101511  0.02028  0.006331  3.90542  0.004
C  C61  1  0.26815100  0.41893441  0.55073078  1  0.420984  0.008449  0.101475  0.020324  0.006326  3.905408  0.004
C  C62  1  0.23185272  0.91893142  0.05073023  1  0.420943  0.008454  0.101566  0.02039  0.006329  3.905308  0.004
C  C63  1  0.76815311  0.08106400  0.55072672  1  0.421094  0.008458  0.101549  0.020375  0.006332  3.905317  0.004
C  C64  1  0.77498344  0.44252449  0.02988299  1  1.639114  0.009263  0.221617  0.56526  0.008862  4.248242  0.008
C  C65  1  0.22500976  0.55747799  0.52987395  1  1.639576  0.00926  0.221742  0.565332  0.008861  4.248362  0.008
C  C66  1  0.27498220  0.05747393  0.02988275  1  1.639123  0.009265  0.221684  0.565287  0.008864  4.248212  0.008
C  C67  1  0.72502280  0.94252365  0.52987926  1  1.638956  0.009267  0.221667  0.565247  0.008866  4.248326  0.008
C  C68  1  0.88585168  0.74742400  0.94639909  1  1.650473  0.023511  0.217396  0.582637  0.023544  4.215643  0.02
C  C69  1  0.11414359  0.25257944  0.44639274  1  1.65061  0.023503  0.21744  0.582584  0.023538  4.215943  0.02
C  C70  1  0.38585058  0.75257021  0.94639682  1  1.650484  0.023508  0.217428  0.582592  0.023541  4.2158  0.02
C  C71  1  0.61414863  0.24743127  0.44639374  1  1.650302  0.023517  0.217484  0.582671  0.023549  4.215718  0.02
N  N72  1  0.35854326  0.92004861  0.34025374  1  -1.271968  0.057648  -0.318582  -0.253292  0.038753  3.473994  0.022
N  N73  1  0.64145568  0.07995388  0.84026116  1  -1.27178  0.057647  -0.318631  -0.253309  0.038754  3.473891  0.022
N  N74  1  0.85854012  0.57995733  0.34025604  1  -1.271791  0.057637  -0.3186  -0.253365  0.038753  3.473949  0.022
N  N75  1  0.14145095  0.42004810  0.84025949  1  -1.271857  0.057634  -0.318547  -0.253234  0.03875  3.473825  0.022
N  N76  1  0.69621405  0.79994704  0.06871196  1  -1.200287  0.040065  -0.319645  -0.386706  0.030963  3.382176  0.016
N  N77  1  0.30378724  0.20005508  0.56871013  1  -1.200072  0.040052  -0.319638  -0.38662  0.030957  3.382061  0.016
N  N78  1  0.19621458  0.70005024  0.06871244  1  -1.200262  0.040061  -0.319548  -0.38647  0.030959  3.381946  0.016
N  N79  1  0.80378803  0.29994697  0.56870839  1  -1.200624  0.040061  -0.319625  -0.386591  0.030962  3.381977  0.016
N  N80  1  0.62233330  0.60471409  0.11815885  1  -1.263166  0.01009  -0.3642  -0.264798  0.006848  3.651353  0.007
N  N81  1  0.37766077  0.39528461  0.61815502  1  -1.26315  0.010086  -0.36413  -0.26481  0.006845  3.651436  0.007
N  N82  1  0.12233658  0.89528689  0.11815728  1  -1.263244  0.010089  -0.364211  -0.264898  0.006847  3.651296  0.007
N  N83  1  0.87767585  0.10470887  0.61815658  1  -1.262919  0.010091  -0.364283  -0.264838  0.006849  3.651161  0.007
O  O84  1  0.87390473  0.86724967  0.92409635  1  -1.187398  0.076469  -0.317074  -0.542612  0.053024  2.254344  0.04
O  O85  1  0.12609884  0.13275104  0.42408866  1  -1.187422  0.076463  -0.31708  -0.542596  0.053021  2.254433  0.04
O  O86  1  0.37390172  0.63274774  0.92409264  1  -1.187508  0.076462  -0.317083  -0.542625  0.053023  2.254536  0.04
O  O87  1  0.62609136  0.36724610  0.42409046  1  -1.187427  0.076453  -0.317036  -0.542548  0.053024  2.25469  0.04
O  O88  1  0.20494276  0.88324320  0.54305578  1  -1.286107  0.066489  -0.577792  -0.774429  0.048089  2.125066  0.029
O  O89  1  0.79505883  0.11675524  0.04306311  1  -1.286159  0.066506  -0.577754  -0.774282  0.048092  2.125235  0.029
O  O90  1  0.70493547  0.61675544  0.54305476  1  -1.286083  0.066503  -0.577839  -0.774574  0.048096  2.124884  0.029
O  O91  1  0.29505957  0.38323907  0.04305968  1  -1.286115  0.06651  -0.577773  -0.774314  0.04809  2.125162  0.029
O  O92  1  0.98596631  0.66441984  0.91118651  1  -1.202652  0.0621  -0.308712  -0.558007  0.042832  2.361264  0.028
O  O93  1  0.01403150  0.33557706  0.41118273  1  -1.202839  0.062107  -0.308744  -0.557958  0.042832  2.361433  0.028
O  O94  1  0.48596471  0.83557731  0.91118391  1  -1.202623  0.062102  -0.308732  -0.55796  0.042831  2.361166  0.028
O  O95  1  0.51403048  0.16441567  0.41117707  1  -1.202508  0.062109  -0.308812  -0.558083  0.042834  2.360974  0.028
O  O96  1  0.92282895  0.41453364  0.99800670  1  -1.190413  0.054521  -0.303551  -0.537598  0.037801  2.316218  0.022
O  O97  1  0.07715394  0.58546441  0.49800377  1  -1.190641  0.054521  -0.303622  -0.537635  0.037803  2.316146  0.022
O  O98  1  0.42284066  0.08546394  0.99800763  1  -1.19044  0.054521  -0.303627  -0.537615  0.037803  2.315857  0.022
O  O99  1  0.57716190  0.91453705  0.49800030  1  -1.190434  0.054521  -0.303527  -0.537547  0.037801  2.315971  0.022
O  O100  1  0.65875332  0.35772745  0.04996925  1  -1.184054  0.011599  -0.305948  -0.547184  0.007355  2.181373  0.008
O  O101  1  0.34124593  0.64227386  0.54994823  1  -1.184245  0.011597  -0.305953  -0.54721  0.007353  2.181981  0.008
O  O102  1  0.15876074  0.14226724  0.04996742  1  -1.183974  0.011599  -0.305984  -0.547229  0.007355  2.18172  0.008
O  O103  1  0.84124112  0.85772916  0.54996341  1  -1.184036  0.0116  -0.306011  -0.547223  0.007355  2.181697  0.008
