# generated using pymatgen
data_ZnH9C13NO5
_symmetry_space_group_name_H-M   'P 1'
_cell_length_a   10.43798462
_cell_length_b   18.39460926
_cell_length_c   18.39969545
_cell_angle_alpha   116.53048956
_cell_angle_beta   100.89060791
_cell_angle_gamma   100.89333615
_symmetry_Int_Tables_number   1
_chemical_formula_structural   ZnH9C13NO5
_chemical_formula_sum   'Zn6 H54 C78 N6 O30'
_cell_volume   2949.77442570
_cell_formula_units_Z   6
loop_
 _symmetry_equiv_pos_site_id
 _symmetry_equiv_pos_as_xyz
  1  'x, y, z'
loop_
 _atom_site_type_symbol
 _atom_site_label
 _atom_site_symmetry_multiplicity
 _atom_site_fract_x
 _atom_site_fract_y
 _atom_site_fract_z
 _atom_site_occupancy
 _atom_site_pbe_bader_charge
 _atom_site_pbe_bader_spin_density
 _atom_site_pbe_cm5_charge
 _atom_site_pbe_ddec_charge
 _atom_site_pbe_ddec_spin_density
 _atom_site_pbe_ddec_sum_bond_order
 _atom_site_pbe_magmom
Zn  Zn0  1  0.83254078  0.70311822  0.35025308  1  1.344972  0  0.679481  0.909235  0  2.272593  0
Zn  Zn1  1  0.12960570  0.64712799  0.29679369  1  1.348994  0  0.679208  0.909421  0  2.272659  0
Zn  Zn2  1  0.48215154  0.64959542  0.35280448  1  1.344463  0  0.679176  0.909108  0  2.273998  0
Zn  Zn3  1  0.16745877  0.29688151  0.64974753  1  1.345036  0  0.679453  0.909152  0  2.272696  0
Zn  Zn4  1  0.87039384  0.35287174  0.70320638  1  1.34899  0  0.67921  0.909451  0  2.27263  0
Zn  Zn5  1  0.51784769  0.35040367  0.64719581  1  1.344316  0  0.679163  0.909084  0  2.274002  0
H  H6  1  0.95995513  0.74894130  0.50418509  1  0.649632  0  0.285467  0.38006  0  0.961808  0
H  H7  1  0.21138533  0.75523357  0.25101070  1  0.647976  0  0.284283  0.376888  0  0.966025  0
H  H8  1  0.45601824  0.49573640  0.24447562  1  0.652186  0  0.285463  0.378693  0  0.963765  0
H  H9  1  0.04004507  0.25105779  0.49581586  1  0.649653  0  0.285453  0.380057  0  0.961806  0
H  H10  1  0.78861519  0.24476616  0.74898948  1  0.647972  0  0.284276  0.376902  0  0.966001  0
H  H11  1  0.54398196  0.50426269  0.75552533  1  0.65219  0  0.285452  0.37869  0  0.96376  0
H  H12  1  0.08390129  0.75439566  0.46142200  1  0.634943  0  0.295658  0.389963  0  0.94041  0
H  H13  1  0.32974737  0.70685250  0.24548892  1  0.625695  0  0.294913  0.38794  0  0.943272  0
H  H14  1  0.62264432  0.53853689  0.29287808  1  0.641611  0  0.294144  0.38653  0  0.94541  0
H  H15  1  0.91609891  0.24560343  0.53857894  1  0.634944  0  0.295669  0.389953  0  0.940422  0
H  H16  1  0.67025088  0.29314659  0.75451073  1  0.625663  0  0.294929  0.387986  0  0.943209  0
H  H17  1  0.37735490  0.46146220  0.70712168  1  0.641606  0  0.294141  0.386522  0  0.945416  0
H  H18  1  0.06897652  0.96401781  0.34290708  1  0.126621  0  0.118612  0.131045  0  0.983235  0
H  H19  1  0.10465324  0.37859338  0.03572495  1  0.115957  0  0.116985  0.128022  0  0.985244  0
H  H20  1  0.72590848  0.65693341  0.62097007  1  0.112978  0  0.118009  0.130073  0  0.983931  0
H  H21  1  0.93102205  0.03598192  0.65709343  1  0.126591  0  0.118604  0.131045  0  0.983257  0
H  H22  1  0.89534695  0.62140570  0.96427654  1  0.115964  0  0.116977  0.128052  0  0.985223  0
H  H23  1  0.27408975  0.34306760  0.37903098  1  0.112896  0  0.117995  0.130072  0  0.983895  0
H  H24  1  0.90802098  0.04917662  0.39034311  1  0.107146  0  0.115562  0.124169  0  0.978161  0
H  H25  1  0.85865714  0.34105646  0.95070298  1  0.126944  0  0.115835  0.123921  0  0.977555  0
H  H26  1  0.51762282  0.60924630  0.65859813  1  0.105966  0  0.115235  0.124072  0  0.977723  0
H  H27  1  0.09197630  0.95082247  0.60965589  1  0.107126  0  0.115555  0.124141  0  0.978167  0
H  H28  1  0.14134403  0.65894263  0.04929807  1  0.126936  0  0.115841  0.123918  0  0.9775  0
H  H29  1  0.48237510  0.39075407  0.34140259  1  0.105972  0  0.115227  0.124071  0  0.97771  0
H  H30  1  0.65947595  0.83236913  0.38977626  1  0.175078  0  0.119887  0.103965  0  1.030259  0
H  H31  1  0.82711906  0.55733555  0.16767253  1  0.16433  0  0.118915  0.10057  0  1.031458  0
H  H32  1  0.26942786  0.61005720  0.44264266  1  0.176006  0  0.119859  0.102347  0  1.030763  0
H  H33  1  0.34052230  0.16762996  0.61022339  1  0.175105  0  0.119889  0.103967  0  1.03022  0
H  H34  1  0.17288179  0.44266481  0.83232634  1  0.164313  0  0.118911  0.10055  0  1.031503  0
H  H35  1  0.73057135  0.38994381  0.55735740  1  0.17602  0  0.119872  0.102388  0  1.030748  0
H  H36  1  0.80634697  0.11227317  0.50117267  1  0.083844  0  0.101274  0.106847  0  1.049081  0
H  H37  1  0.69447569  0.38902639  0.88776977  1  0.070378  0  0.100541  0.10564  0  1.048012  0
H  H38  1  0.30531590  0.49864677  0.61118497  1  0.093464  0  0.101153  0.106648  0  1.048018  0
H  H39  1  0.19365128  0.88772592  0.49882589  1  0.083844  0  0.101262  0.106814  0  1.049006  0
H  H40  1  0.30552548  0.61097462  0.11222996  1  0.070401  0  0.100543  0.105634  0  1.047984  0
H  H41  1  0.69468528  0.50135232  0.38881445  1  0.093489  0  0.101167  0.106681  0  1.047978  0
H  H42  1  0.38169403  0.09890937  0.46118296  1  0.090716  0  0.103862  0.105669  0  1.003957  0
H  H43  1  0.28306773  0.36235095  0.90094144  1  0.080464  0  0.103827  0.10506  0  1.003518  0
H  H44  1  0.92057441  0.53868908  0.63770387  1  0.08623  0  0.103171  0.10489  0  1.003742  0
H  H45  1  0.61830616  0.90109164  0.53881775  1  0.090744  0  0.103869  0.105669  0  1.003936  0
H  H46  1  0.71693279  0.63764878  0.09905874  1  0.080488  0  0.103821  0.105044  0  1.00352  0
H  H47  1  0.07942580  0.46131001  0.36229544  1  0.086222  0  0.103167  0.104895  0  1.003727  0
H  H48  1  0.31250210  0.94365973  0.34988272  1  0.137093  0  0.099036  0.107624  0  1.046483  0
H  H49  1  0.36877647  0.40636310  0.05616412  1  0.126479  0  0.097827  0.10582  0  1.047529  0
H  H50  1  0.96246666  0.64976791  0.59350183  1  0.109147  0  0.099057  0.107311  0  1.045674  0
H  H51  1  0.68749646  0.05634192  0.65011647  1  0.1371  0  0.099056  0.107688  0  1.046537  0
H  H52  1  0.63122503  0.59363663  0.94383617  1  0.126424  0  0.097821  0.105813  0  1.047532  0
H  H53  1  0.03753191  0.35023182  0.40649868  1  0.109268  0  0.09903  0.107281  0  1.045683  0
H  H54  1  0.49104983  0.87344768  0.31879025  1  0.035926  0  0.103844  0.105043  0  1.001757  0
H  H55  1  0.61744562  0.44549087  0.12642269  1  0.062309  0  0.103925  0.105111  0  1.002785  0
H  H56  1  0.17204175  0.68066590  0.55429338  1  0.065612  0  0.104027  0.104902  0  1.00223  0
H  H57  1  0.50894971  0.12655396  0.68120851  1  0.035999  0  0.103823  0.105022  0  1.001798  0
H  H58  1  0.38255554  0.55451014  0.87357813  1  0.06234  0  0.103935  0.105122  0  1.002832  0
H  H59  1  0.82795585  0.31933383  0.44570648  1  0.065628  0  0.104025  0.104866  0  1.002208  0
C  C60  1  0.03264925  0.79821747  0.30590836  1  1.580222  0  0.22012  0.556763  0  4.17152  0
C  C61  1  0.23432528  0.50751705  0.20151082  1  1.60713  0  0.219227  0.553446  0  4.175468  0
C  C62  1  0.72641914  0.69399974  0.49229205  1  1.579481  0  0.219462  0.554877  0  4.172901  0
C  C63  1  0.96734998  0.20178162  0.69409248  1  1.580227  0  0.220152  0.556771  0  4.171447  0
C  C64  1  0.76567262  0.49248524  0.79849238  1  1.607077  0  0.219267  0.553555  0  4.175603  0
C  C65  1  0.27358333  0.30599999  0.50770888  1  1.579737  0  0.219456  0.554904  0  4.172859  0
C  C66  1  0.94639843  0.85470828  0.34056845  1  0.483949  0  0.111051  0.092992  0  3.969475  0
C  C67  1  0.09157177  0.48565766  0.14510084  1  0.484278  0  0.110322  0.093061  0  3.967623  0
C  C68  1  0.60554598  0.65929632  0.51409568  1  0.489519  0  0.110614  0.092693  0  3.967818  0
C  C69  1  0.05360079  0.14529081  0.65943293  1  0.483928  0  0.111085  0.092993  0  3.969497  0
C  C70  1  0.90842908  0.51434270  0.85490020  1  0.484317  0  0.110305  0.093073  0  3.967574  0
C  C71  1  0.39445355  0.34070533  0.48590579  1  0.489475  0  0.110571  0.092581  0  3.967828  0
C  C72  1  0.97701985  0.93786059  0.35416590  1  0.046128  0  -0.071161  -0.124016  0  3.959156  0
C  C73  1  0.03895855  0.41608483  0.06195807  1  -0.047752  0  -0.069599  -0.120773  0  3.955951  0
C  C74  1  0.62266759  0.64563035  0.58358329  1  -0.047557  0  -0.070711  -0.122933  0  3.954983  0
C  C75  1  0.02297970  0.06213913  0.64583472  1  0.046113  0  -0.071162  -0.124023  0  3.959147  0
C  C76  1  0.96104294  0.58391489  0.93804330  1  -0.047728  0  -0.06959  -0.120829  0  3.956022  0
C  C77  1  0.37733096  0.35437130  0.41641861  1  -0.047381  0  -0.070687  -0.122927  0  3.954877  0
C  C78  1  0.88717075  0.98419096  0.37968778  1  -0.094146  0  -0.05994  -0.07263  0  3.911497  0
C  C79  1  0.90282292  0.39536047  0.01570400  1  -0.034925  0  -0.058477  -0.06992  0  3.909052  0
C  C80  1  0.50735236  0.61999307  0.60434879  1  0.010797  0  -0.058626  -0.071168  0  3.907306  0
C  C81  1  0.11282848  0.01580813  0.62031197  1  -0.094137  0  -0.059935  -0.072594  0  3.911357  0
C  C82  1  0.09717760  0.60463926  0.98429617  1  -0.035051  0  -0.058493  -0.069917  0  3.909087  0
C  C83  1  0.49264653  0.38000730  0.39565150  1  0.010365  0  -0.05869  -0.071239  0  3.907287  0
C  C84  1  0.76628827  0.94578701  0.38895066  1  0.020848  0  0.008691  0.043799  0  3.980846  0
C  C85  1  0.82044622  0.44310686  0.05417400  1  -0.016879  0  0.008342  0.040395  0  3.984039  0
C  C86  1  0.37719107  0.61073956  0.55673708  1  -0.019053  0  0.006914  0.040035  0  3.982929  0
C  C87  1  0.23371063  0.05421335  0.61104854  1  0.020474  0  0.008717  0.043807  0  3.980787  0
C  C88  1  0.17955494  0.55689414  0.94582573  1  -0.016768  0  0.00833  0.04038  0  3.984084  0
C  C89  1  0.62280815  0.38926145  0.44326244  1  -0.018913  0  0.00695  0.040119  0  3.982903  0
C  C90  1  0.74765129  0.86367409  0.37878804  1  0.451172  0  0.055682  0.050477  0  3.868621  0
C  C91  1  0.88394890  0.51501284  0.13630139  1  0.495654  0  0.057798  0.056751  0  3.869157  0
C  C92  1  0.36862603  0.62099475  0.48485698  1  0.449078  0  0.057794  0.056057  0  3.867752  0
C  C93  1  0.25234696  0.13632500  0.62121215  1  0.451691  0  0.055667  0.050461  0  3.868629  0
C  C94  1  0.11605195  0.48498753  0.86369748  1  0.495651  0  0.057818  0.056802  0  3.869206  0
C  C95  1  0.63137416  0.37900626  0.51514265  1  0.449089  0  0.057769  0.055945  0  3.867877  0
C  C96  1  0.66081036  0.98815488  0.40779255  1  0.025142  0  -0.011366  0.053191  0  4.036265  0
C  C97  1  0.67270430  0.41971546  0.01178496  1  -0.021796  0  -0.011644  0.052877  0  4.036527  0
C  C98  1  0.25296156  0.59187808  0.58028538  1  -0.010765  0  -0.010766  0.052599  0  4.038576  0
C  C99  1  0.33918919  0.01184485  0.59220589  1  0.025138  0  -0.01137  0.053259  0  4.036151  0
C  C100  1  0.32729718  0.58028619  0.98821455  1  -0.021771  0  -0.011644  0.052814  0  4.036568  0
C  C101  1  0.74703638  0.40812037  0.41971286  1  -0.01073  0  -0.010744  0.052655  0  4.038553  0
C  C102  1  0.69835186  0.07538690  0.46763322  1  -0.042916  0  -0.083555  -0.139891  0  3.928685  0
C  C103  1  0.62322570  0.39233082  0.92457869  1  -0.000517  0  -0.082581  -0.138351  0  3.925257  0
C  C104  1  0.23081228  0.53217354  0.60781074  1  -0.010705  0  -0.083701  -0.139879  0  3.928572  0
C  C105  1  0.30164963  0.92461475  0.53236683  1  -0.043003  0  -0.083543  -0.139872  0  3.92855  0
C  C106  1  0.37677449  0.60767019  0.07542094  1  -0.000529  0  -0.082552  -0.138276  0  3.925239  0
C  C107  1  0.76918922  0.46782619  0.39218846  1  -0.010655  0  -0.083709  -0.139932  0  3.928478  0
C  C108  1  0.59780409  0.11468415  0.48735685  1  0.005318  0  -0.021469  -0.037063  0  3.997575  0
C  C109  1  0.48343513  0.37272394  0.88524570  1  -0.015406  0  -0.022048  -0.037264  0  3.996796  0
C  C110  1  0.11060277  0.51254598  0.62744504  1  -0.021452  0  -0.020808  -0.037436  0  3.994743  0
C  C111  1  0.40219708  0.88531685  0.51264289  1  0.005572  0  -0.021434  -0.037003  0  3.997483  0
C  C112  1  0.51656506  0.62727707  0.11475393  1  -0.015398  0  -0.022034  -0.037279  0  3.99686  0
C  C113  1  0.88939809  0.48745246  0.37255297  1  -0.021204  0  -0.020839  -0.037432  0  3.994671  0
C  C114  1  0.45862746  0.06720012  0.44476555  1  -0.06712  0  -0.080572  -0.085527  0  3.962517  0
C  C115  1  0.39164169  0.37761571  0.93267668  1  -0.050629  0  -0.080984  -0.086121  0  3.963144  0
C  C116  1  0.01393452  0.55508657  0.62244028  1  -0.061105  0  -0.080377  -0.085399  0  3.959113  0
C  C117  1  0.54137144  0.93280025  0.55523365  1  -0.067299  0  -0.080616  -0.085537  0  3.962521  0
C  C118  1  0.60836013  0.62238465  0.06732392  1  -0.050684  0  -0.08098  -0.086098  0  3.963143  0
C  C119  1  0.98606537  0.44491188  0.37755872  1  -0.061055  0  -0.080378  -0.085393  0  3.959086  0
C  C120  1  0.42042779  0.98101849  0.38338354  1  -0.022417  0  -0.091645  -0.081144  0  4.004831  0
C  C121  1  0.43942411  0.40247303  0.01883972  1  -0.013078  0  -0.090955  -0.0788  0  4.003414  0
C  C122  1  0.03694878  0.61630655  0.59745884  1  0.012465  0  -0.091799  -0.081122  0  4.00359  0
C  C123  1  0.57957272  0.01898316  0.61661641  1  -0.022153  0  -0.091657  -0.081238  0  4.004956  0
C  C124  1  0.56057771  0.59752734  0.98116034  1  -0.013035  0  -0.090968  -0.078818  0  4.003362  0
C  C125  1  0.96304947  0.38369253  0.40254080  1  0.012362  0  -0.091769  -0.081115  0  4.003586  0
C  C126  1  0.52090234  0.94128157  0.36587171  1  -0.075927  0  -0.078878  -0.104932  0  3.938876  0
C  C127  1  0.57956802  0.42469106  0.05860428  1  -0.083961  0  -0.079111  -0.105399  0  3.939677  0
C  C128  1  0.15489819  0.63373596  0.57521220  1  -0.080045  0  -0.079586  -0.103815  0  3.940337  0
C  C129  1  0.47909590  0.05871944  0.63412662  1  -0.076269  0  -0.078849  -0.10493  0  3.938878  0
C  C130  1  0.42043445  0.57531058  0.94139588  1  -0.084019  0  -0.079136  -0.10538  0  3.939618  0
C  C131  1  0.84509941  0.36626377  0.42478712  1  -0.079961  0  -0.079616  -0.103819  0  3.940303  0
C  C132  1  0.63711406  0.20554838  0.55698716  1  1.545318  0  0.216465  0.591591  0  4.174961  0
C  C133  1  0.43190829  0.35148215  0.79442359  1  1.551436  0  0.214985  0.587655  0  4.170649  0
C  C134  1  0.08037559  0.44293474  0.64866586  1  1.556957  0  0.217603  0.592845  0  4.170222  0
C  C135  1  0.36288776  0.79445199  0.44301290  1  1.545277  0  0.216401  0.591492  0  4.174975  0
C  C136  1  0.56809125  0.64851758  0.20557594  1  1.551151  0  0.21499  0.58766  0  4.170789  0
C  C137  1  0.91962430  0.55706371  0.35133205  1  1.556616  0  0.217593  0.592757  0  4.170135  0
N  N138  1  0.83611925  0.82043288  0.35610922  1  -1.252158  0  -0.316038  -0.235674  0  3.562227  0
N  N139  1  0.01562934  0.53552700  0.17946946  1  -1.23985  0  -0.316911  -0.236811  0  3.563965  0
N  N140  1  0.47970565  0.64373296  0.46429750  1  -1.247129  0  -0.316574  -0.236876  0  3.563979  0
N  N141  1  0.16388062  0.17956748  0.64389226  1  -1.252277  0  -0.316041  -0.235663  0  3.562199  0
N  N142  1  0.98437150  0.46447337  0.82053104  1  -1.239836  0  -0.316907  -0.236824  0  3.564003  0
N  N143  1  0.52029485  0.35626868  0.53570353  1  -1.247084  0  -0.316482  -0.236699  0  3.563924  0
O  O144  1  0.13284912  0.82723613  0.28764927  1  -1.166193  0  -0.29734  -0.508961  0  2.174463  0
O  O145  1  0.30571470  0.46037617  0.17238138  1  -1.167203  0  -0.296115  -0.50753  0  2.176477  0
O  O146  1  0.84486576  0.71228598  0.53955813  1  -1.164991  0  -0.297202  -0.509467  0  2.174099  0
O  O147  1  0.86715043  0.17276359  0.71235135  1  -1.166238  0  -0.297397  -0.509004  0  2.174495  0
O  O148  1  0.69428745  0.53962292  0.82761869  1  -1.167262  0  -0.296144  -0.507569  0  2.176808  0
O  O149  1  0.15513476  0.28771375  0.46044205  1  -1.16536  0  -0.297163  -0.509437  0  2.174037  0
O  O150  1  0.00036801  0.77025114  0.46915108  1  -1.268789  0  -0.582444  -0.774092  0  2.132496  0
O  O151  1  0.23038629  0.69884189  0.22975414  1  -1.260124  0  -0.581013  -0.769606  0  2.138264  0
O  O152  1  0.53129295  0.53076748  0.30088500  1  -1.280171  0  -0.581031  -0.76912  0  2.137704  0
O  O153  1  0.99963153  0.22974859  0.53085008  1  -1.268866  0  -0.58244  -0.774073  0  2.132521  0
O  O154  1  0.76961326  0.30115784  0.77024593  1  -1.260059  0  -0.581012  -0.769656  0  2.138235  0
O  O155  1  0.46870628  0.46923161  0.69911475  1  -1.280156  0  -0.581011  -0.769107  0  2.137714  0
O  O156  1  0.99418925  0.72234014  0.29601484  1  -1.169523  0  -0.309083  -0.553771  0  2.418606  0
O  O157  1  0.27159982  0.57339328  0.27744910  1  -1.183971  0  -0.309764  -0.553766  0  2.42103  0
O  O158  1  0.69783446  0.70386744  0.42631527  1  -1.171621  0  -0.309644  -0.553261  0  2.419888  0
O  O159  1  0.00580932  0.27765959  0.70398567  1  -1.169488  0  -0.309078  -0.553732  0  2.418505  0
O  O160  1  0.72840069  0.42660645  0.72255216  1  -1.183891  0  -0.309759  -0.553836  0  2.420922  0
O  O161  1  0.30216672  0.29613165  0.57368523  1  -1.171509  0  -0.309669  -0.553274  0  2.419885  0
O  O162  1  0.76075720  0.25341638  0.58029646  1  -1.198616  0  -0.317304  -0.570182  0  2.368206  0
O  O163  1  0.50769624  0.32689830  0.74654269  1  -1.188677  0  -0.31721  -0.56909  0  2.367472  0
O  O164  1  0.18083793  0.41976252  0.67333945  1  -1.186393  0  -0.318928  -0.571081  0  2.367149  0
O  O165  1  0.23924235  0.74658335  0.41970362  1  -1.198596  0  -0.317258  -0.570127  0  2.368157  0
O  O166  1  0.49230203  0.67309887  0.25345610  1  -1.188778  0  -0.317189  -0.569044  0  2.367466  0
O  O167  1  0.81916130  0.58023657  0.32665921  1  -1.186394  0  -0.318904  -0.571043  0  2.367046  0
O  O168  1  0.54571212  0.22945016  0.58986395  1  -1.18514  0  -0.312888  -0.563402  0  2.37495  0
O  O169  1  0.31663150  0.36046208  0.77054805  1  -1.183166  0  -0.311182  -0.559739  0  2.372219  0
O  O170  1  0.95612967  0.40988645  0.63952007  1  -1.186084  0  -0.312277  -0.562692  0  2.374917  0
O  O171  1  0.45428873  0.77055021  0.41013601  1  -1.185137  0  -0.312887  -0.563389  0  2.374936  0
O  O172  1  0.68336708  0.63953765  0.22945138  1  -1.182873  0  -0.311195  -0.559762  0  2.372271  0
O  O173  1  0.04387151  0.59011263  0.36047935  1  -1.186056  0  -0.312271  -0.562656  0  2.374924  0
