# generated using pymatgen
data_CdH15C20N5O7
_symmetry_space_group_name_H-M   'P 1'
_cell_length_a   10.24111066
_cell_length_b   10.71528605
_cell_length_c   11.66041572
_cell_angle_alpha   115.69845804
_cell_angle_beta   104.01935143
_cell_angle_gamma   102.28941895
_symmetry_Int_Tables_number   1
_chemical_formula_structural   CdH15C20N5O7
_chemical_formula_sum   'Cd2 H30 C40 N10 O14'
_cell_volume   1042.08740386
_cell_formula_units_Z   2
loop_
 _symmetry_equiv_pos_site_id
 _symmetry_equiv_pos_as_xyz
  1  'x, y, z'
loop_
 _atom_site_type_symbol
 _atom_site_label
 _atom_site_symmetry_multiplicity
 _atom_site_fract_x
 _atom_site_fract_y
 _atom_site_fract_z
 _atom_site_occupancy
 _atom_site_hle17_bader_spin_density
 _atom_site_hle17_ddec_charge
 _atom_site_hle17_ddec_spin_density
 _atom_site_hle17_ddec_sum_bond_order
 _atom_site_hle17_magmom
 _atom_site_hse06_10hf_bader_spin_density
 _atom_site_hse06_10hf_ddec_charge
 _atom_site_hse06_10hf_ddec_spin_density
 _atom_site_hse06_10hf_ddec_sum_bond_order
 _atom_site_hse06_10hf_magmom
 _atom_site_hse06_bader_spin_density
 _atom_site_hse06_ddec_charge
 _atom_site_hse06_ddec_spin_density
 _atom_site_hse06_ddec_sum_bond_order
 _atom_site_hse06_magmom
 _atom_site_pbe_bader_spin_density
 _atom_site_pbe_cm5_charge
 _atom_site_pbe_ddec_charge
 _atom_site_pbe_ddec_spin_density
 _atom_site_pbe_ddec_sum_bond_order
 _atom_site_pbe_magmom
Cd  Cd0  1  0.90169676  0.23419332  0.18711931  1  0  1.125635  0  1.676265  0  0  0.938058  0  2.113821  0  0  0.994604  0  2.06218  0  0  0.779902  0.894095  0  2.151628  0
Cd  Cd1  1  0.09830090  0.76580236  0.81287987  1  0  1.12562  0  1.676192  0  0  0.938071  0  2.113756  0  0  0.994622  0  2.062107  0  0  0.779932  0.894107  0  2.151561  0
H  H2  1  0.80887360  0.90983925  0.99285589  1  0  0.435648  0  0.858992  0  0  0.402366  0  0.926346  0  0  0.413815  0  0.909698  0  0  0.28795  0.394001  0  0.938481  0
H  H3  1  0.19111873  0.09015853  0.00714300  1  0  0.435605  0  0.859052  0  0  0.402327  0  0.9264  0  0  0.413777  0  0.909752  0  0  0.287933  0.393963  0  0.938534  0
H  H4  1  0.70113342  0.96653052  0.06463083  1  0  0.417768  0  0.850198  0  0  0.392364  0  0.920802  0  0  0.402036  0  0.906473  0  0  0.298191  0.385337  0  0.929187  0
H  H5  1  0.29885904  0.03347061  0.93536774  1  0  0.417728  0  0.850337  0  0  0.392346  0  0.920888  0  0  0.402017  0  0.906499  0  0  0.29817  0.385317  0  0.929283  0
H  H6  1  0.40309803  0.20103021  0.18346742  1  0  0.099951  0  0.967114  0  0  0.106459  0  1.03768  0  0  0.110914  0  1.033007  0  0  0.108429  0.103252  0  1.041157  0
H  H7  1  0.59689442  0.79897091  0.81653200  1  0  0.100002  0  0.96713  0  0  0.106511  0  1.037678  0  0  0.110968  0  1.033002  0  0  0.108445  0.103303  0  1.041156  0
H  H8  1  0.74175107  0.35119176  0.56574995  1  0  0.120677  0  0.948544  0  0  0.122297  0  1.023696  0  0  0.127018  0  1.018589  0  0  0.113719  0.118943  0  1.027263  0
H  H9  1  0.25824552  0.64880958  0.43424360  1  0  0.120676  0  0.948514  0  0  0.122304  0  1.023664  0  0  0.127006  0  1.018583  0  0  0.113738  0.118951  0  1.02723  0
H  H10  1  0.32597969  0.37912876  0.55974495  1  0  0.13096  0  0.938185  0  0  0.13367  0  1.007181  0  0  0.138183  0  1.003188  0  0  0.116114  0.130187  0  1.010464  0
H  H11  1  0.67402038  0.62087697  0.44025544  1  0  0.130991  0  0.938143  0  0  0.133657  0  1.00719  0  0  0.138169  0  1.003199  0  0  0.116107  0.130175  0  1.010471  0
H  H12  1  0.00611995  0.61761070  0.43352142  1  0  0.119654  0  0.948155  0  0  0.126956  0  1.013102  0  0  0.130723  0  1.008249  0  0  0.138721  0.124062  0  1.016769  0
H  H13  1  0.99389069  0.38239070  0.56648548  1  0  0.119604  0  0.94811  0  0  0.126906  0  1.013059  0  0  0.13067  0  1.008215  0  0  0.138689  0.124011  0  1.016729  0
H  H14  1  0.73282581  0.67321590  0.13467038  1  0  0.121229  0  0.940529  0  0  0.13281  0  0.995856  0  0  0.136336  0  0.992875  0  0  0.129087  0.13036  0  0.997912  0
H  H15  1  0.26718969  0.32678789  0.86533426  1  0  0.121273  0  0.940527  0  0  0.132834  0  0.99588  0  0  0.136359  0  0.992902  0  0  0.129126  0.130383  0  0.997933  0
H  H16  1  0.99471198  0.82536786  0.58682365  1  0  0.120484  0  0.992176  0  0  0.12805  0  1.056635  0  0  0.1314  0  1.054659  0  0  0.107485  0.125273  0  1.058822  0
H  H17  1  0.00530671  0.17463045  0.41318030  1  0  0.120331  0  0.992257  0  0  0.127927  0  1.056698  0  0  0.131277  0  1.054721  0  0  0.10745  0.125152  0  1.058885  0
H  H18  1  0.89534506  0.90653387  0.24885416  1  0  0.118983  0  0.972686  0  0  0.127397  0  1.035584  0  0  0.130539  0  1.033944  0  0  0.105388  0.125027  0  1.037104  0
H  H19  1  0.10467540  0.09346670  0.75115024  1  0  0.118967  0  0.972703  0  0  0.127377  0  1.035607  0  0  0.13052  0  1.033964  0  0  0.10536  0.125006  0  1.037125  0
H  H20  1  0.71047112  0.38052373  0.02056847  1  0  0.10046  0  0.962158  0  0  0.108264  0  1.023899  0  0  0.110842  0  1.022664  0  0  0.115643  0.106289  0  1.024972  0
H  H21  1  0.28953543  0.61947752  0.97944091  1  0  0.100363  0  0.962251  0  0  0.108191  0  1.023977  0  0  0.110769  0  1.022742  0  0  0.115626  0.106237  0  1.025027  0
H  H22  1  0.04786793  0.32416777  0.99455623  1  0  0.115412  0  0.951299  0  0  0.121603  0  1.016367  0  0  0.124261  0  1.015269  0  0  0.120654  0.119593  0  1.017432  0
H  H23  1  0.95212692  0.67582559  0.00544396  1  0  0.115423  0  0.951295  0  0  0.121606  0  1.016373  0  0  0.124264  0  1.015274  0  0  0.120665  0.119595  0  1.017439  0
H  H24  1  0.61755601  0.04585393  0.86444335  1  0  0.105431  0  0.950946  0  0  0.111351  0  1.021794  0  0  0.114214  0  1.018194  0  0  0.136376  0.109159  0  1.024469  0
H  H25  1  0.38243255  0.95415051  0.13555230  1  0  0.105405  0  0.951071  0  0  0.11135  0  1.021899  0  0  0.114216  0  1.018293  0  0  0.136376  0.109159  0  1.024576  0
H  H26  1  0.89091012  0.26172847  0.73215703  1  0  0.111589  0  0.978815  0  0  0.118945  0  1.044079  0  0  0.121361  0  1.043092  0  0  0.122654  0.117359  0  1.044478  0
H  H27  1  0.10909032  0.73826948  0.26784283  1  0  0.111538  0  0.978846  0  0  0.118892  0  1.044117  0  0  0.121307  0  1.043132  0  0  0.122626  0.117305  0  1.044515  0
H  H28  1  0.75147184  0.01957515  0.51816215  1  0  0.108839  0  0.966311  0  0  0.117561  0  1.029921  0  0  0.119311  0  1.031186  0  0  0.10826  0.116233  0  1.029468  0
H  H29  1  0.24852268  0.98042606  0.48183518  1  0  0.108847  0  0.966243  0  0  0.11757  0  1.029854  0  0  0.11932  0  1.031124  0  0  0.108259  0.116239  0  1.029399  0
H  H30  1  0.44371733  0.09746066  0.71125381  1  0  0.116357  0  0.923463  0  0  0.131462  0  0.97352  0  0  0.13424  0  0.972714  0  0  0.116865  0.129332  0  0.974319  0
H  H31  1  0.55627923  0.90254062  0.28874227  1  0  0.11641  0  0.923349  0  0  0.131482  0  0.973472  0  0  0.13426  0  0.972666  0  0  0.116877  0.129352  0  0.974272  0
C  C32  1  0.67392004  0.21624369  0.28628655  1  0  0.625723  0  3.959539  0  0  0.578271  0  4.248717  0  0  0.612036  0  4.244523  0  0  0.187891  0.555458  0  4.25014  0
C  C33  1  0.32606996  0.78375304  0.71370625  1  0  0.625855  0  3.95946  0  0  0.578396  0  4.24865  0  0  0.612165  0  4.244452  0  0  0.187978  0.555583  0  4.250071  0
C  C34  1  0.19667750  0.26212774  0.28015977  1  0  0.636141  0  3.935026  0  0  0.585599  0  4.225225  0  0  0.6197  0  4.220592  0  0  0.196956  0.562389  0  4.22729  0
C  C35  1  0.80331874  0.73787565  0.71984141  1  0  0.636091  0  3.935279  0  0  0.585525  0  4.225531  0  0  0.619626  0  4.220897  0  0  0.196923  0.562316  0  4.227591  0
C  C36  1  0.34718133  0.28622366  0.36194638  1  0  -0.059184  0  3.743171  0  0  -0.033873  0  3.983648  0  0  -0.044642  0  4.007527  0  0  -0.017301  -0.027178  0  3.968326  0
C  C37  1  0.65281595  0.71377979  0.63805333  1  0  -0.059057  0  3.743268  0  0  -0.033695  0  3.983672  0  0  -0.044463  0  4.007553  0  0  -0.017251  -0.027003  0  3.968349  0
C  C38  1  0.43975490  0.24635989  0.29393568  1  0  -0.048586  0  3.689852  0  0  -0.094082  0  3.947681  0  0  -0.090014  0  3.965524  0  0  -0.06731  -0.096728  0  3.936918  0
C  C39  1  0.56023986  0.75363908  0.70606250  1  0  -0.04876  0  3.689993  0  0  -0.094259  0  3.947812  0  0  -0.090193  0  3.965658  0  0  -0.067366  -0.096909  0  3.937056  0
C  C40  1  0.58029636  0.26567886  0.36505097  1  0  -0.047753  0  3.730522  0  0  -0.019496  0  3.964123  0  0  -0.029935  0  3.98719  0  0  -0.01167  -0.013264  0  3.95023  0
C  C41  1  0.41969537  0.73432009  0.63494483  1  0  -0.047743  0  3.7307  0  0  -0.019467  0  3.964281  0  0  -0.029909  0  3.987351  0  0  -0.011654  -0.013234  0  3.950383  0
C  C42  1  0.63114979  0.33020113  0.50779172  1  0  -0.071607  0  3.682294  0  0  -0.11299  0  3.941994  0  0  -0.107577  0  3.957522  0  0  -0.064677  -0.116297  0  3.932013  0
C  C43  1  0.36884748  0.66980233  0.49220798  1  0  -0.071617  0  3.682307  0  0  -0.113015  0  3.942022  0  0  -0.107588  0  3.957567  0  0  -0.064679  -0.116319  0  3.93203  0
C  C44  1  0.53760646  0.36799453  0.57463576  1  0  0.047076  0  3.718661  0  0  0.045062  0  3.976474  0  0  0.039118  0  4.000489  0  0  0.07162  0.049122  0  3.959813  0
C  C45  1  0.46239260  0.63200230  0.42536333  1  0  0.04716  0  3.718449  0  0  0.045135  0  3.976282  0  0  0.039192  0  4.000293  0  0  0.071625  0.049193  0  3.95962  0
C  C46  1  0.39597119  0.34694684  0.50453916  1  0  -0.078002  0  3.660523  0  0  -0.116994  0  3.918885  0  0  -0.112215  0  3.935232  0  0  -0.066431  -0.119726  0  3.908047  0
C  C47  1  0.60402798  0.65305330  0.49546132  1  0  -0.078062  0  3.660546  0  0  -0.117028  0  3.918926  0  0  -0.112248  0  3.93527  0  0  -0.066432  -0.119762  0  3.90809  0
C  C48  1  0.92764524  0.58961015  0.33622287  1  0  0.16658  0  3.61055  0  0  0.109095  0  3.875561  0  0  0.123003  0  3.886445  0  0  0.144198  0.099958  0  3.868027  0
C  C49  1  0.07236782  0.41039241  0.66378417  1  0  0.166651  0  3.610386  0  0  0.109159  0  3.8754  0  0  0.12306  0  3.886288  0  0  0.144287  0.100023  0  3.867863  0
C  C50  1  0.78642673  0.61817960  0.17831951  1  0  -0.048144  0  3.662208  0  0  -0.088563  0  3.922162  0  0  -0.086866  0  3.939047  0  0  0.005267  -0.089636  0  3.910537  0
C  C51  1  0.21358429  0.38182290  0.82168792  1  0  -0.048313  0  3.662284  0  0  -0.088723  0  3.922254  0  0  -0.087033  0  3.939145  0  0  0.005267  -0.089793  0  3.910627  0
C  C52  1  0.93841166  0.84764293  0.40769644  1  0  0.156573  0  3.811667  0  0  0.146009  0  4.064407  0  0  0.150652  0  4.087316  0  0  0.086507  0.142556  0  4.049137  0
C  C53  1  0.06160332  0.15235638  0.59230883  1  0  0.156386  0  3.811921  0  0  0.14586  0  4.064594  0  0  0.150496  0  4.087512  0  0  0.086452  0.142407  0  4.049324  0
C  C54  1  0.99843358  0.90182169  0.54881367  1  0  -0.1341  0  3.735165  0  0  -0.155207  0  3.987985  0  0  -0.157958  0  4.007678  0  0  -0.091927  -0.152625  0  3.974772  0
C  C55  1  0.00157623  0.09817422  0.45118824  1  0  -0.133865  0  3.735181  0  0  -0.155007  0  3.987963  0  0  -0.157755  0  4.00766  0  0  -0.091883  -0.152429  0  3.974753  0
C  C56  1  0.93952341  0.94579307  0.35843141  1  0  -0.143471  0  3.747989  0  0  -0.161682  0  3.998518  0  0  -0.164807  0  4.018805  0  0  -0.092388  -0.160147  0  3.985365  0
C  C57  1  0.06049898  0.05420426  0.64157036  1  0  -0.14343  0  3.748178  0  0  -0.16163  0  3.998656  0  0  -0.164748  0  4.018936  0  0  -0.092346  -0.160095  0  3.985499  0
C  C58  1  0.77620126  0.47315099  0.12355066  1  0  0.01995  0  3.750266  0  0  -0.01343  0  4.016551  0  0  -0.011226  0  4.036891  0  0  0.000142  -0.014844  0  4.002605  0
C  C59  1  0.22380787  0.52685483  0.87645601  1  0  0.020183  0  3.750243  0  0  -0.013211  0  4.016503  0  0  -0.011005  0  4.036843  0  0  0.000167  -0.014643  0  4.002548  0
C  C60  1  0.93605298  0.25512323  0.92726491  1  0  0.017134  0  3.715643  0  0  -0.016529  0  3.98074  0  0  -0.015051  0  4.001406  0  0  0.005903  -0.017577  0  3.966463  0
C  C61  1  0.06394416  0.74487687  0.07273511  1  0  0.017039  0  3.715762  0  0  -0.016625  0  3.980868  0  0  -0.015147  0  4.001534  0  0  0.005848  -0.017674  0  3.966589  0
C  C62  1  0.71475603  0.11230412  0.86558925  1  0  0.160115  0  3.64073  0  0  0.10027  0  3.907907  0  0  0.113793  0  3.920654  0  0  0.142745  0.091463  0  3.898826  0
C  C63  1  0.28523453  0.88770031  0.13440940  1  0  0.160164  0  3.640542  0  0  0.100285  0  3.907716  0  0  0.113806  0  3.920464  0  0  0.142786  0.091476  0  3.89864  0
C  C64  1  0.86144808  0.22372256  0.79751839  1  0  -0.044733  0  3.663679  0  0  -0.087283  0  3.927471  0  0  -0.085337  0  3.946138  0  0  0.003299  -0.088252  0  3.9145  0
C  C65  1  0.13854998  0.77627426  0.20247962  1  0  -0.044645  0  3.663707  0  0  -0.087191  0  3.927503  0  0  -0.085249  0  3.946177  0  0  0.003376  -0.088159  0  3.914529  0
C  C66  1  0.60914436  0.06573037  0.62823492  1  0  0.175746  0  3.782819  0  0  0.166337  0  4.032981  0  0  0.170755  0  4.056675  0  0  0.096618  0.163298  0  4.017207  0
C  C67  1  0.39085245  0.93426869  0.37176117  1  0  0.175807  0  3.782942  0  0  0.1665  0  4.032944  0  0  0.170923  0  4.056633  0  0  0.096752  0.16346  0  4.017171  0
C  C68  1  0.64160467  0.01236271  0.51000940  1  0  -0.118646  0  3.718  0  0  -0.136129  0  3.968097  0  0  -0.138893  0  3.989411  0  0  -0.081754  -0.134184  0  3.953946  0
C  C69  1  0.35839251  0.98763745  0.48998808  1  0  -0.118707  0  3.71819  0  0  -0.136229  0  3.968292  0  0  -0.138997  0  3.989608  0  0  -0.081812  -0.134279  0  3.954135  0
C  C70  1  0.46777510  0.05343129  0.61853001  1  0  -0.129052  0  3.737149  0  0  -0.152355  0  3.992448  0  0  -0.156042  0  4.013946  0  0  -0.085035  -0.149687  0  3.978217  0
C  C71  1  0.53221945  0.94656999  0.38146392  1  0  -0.129111  0  3.736891  0  0  -0.15243  0  3.992186  0  0  -0.156119  0  4.013682  0  0  -0.085104  -0.14976  0  3.977958  0
N  N72  1  0.84355766  0.18419148  0.96730543  1  0  -0.375626  0  3.29129  0  0  -0.298785  0  3.570845  0  0  -0.319999  0  3.588782  0  0  -0.355241  -0.283538  0  3.557305  0
N  N73  1  0.15643365  0.81580627  0.03269408  1  0  -0.375567  0  3.291139  0  0  -0.298709  0  3.570697  0  0  -0.319923  0  3.588637  0  0  -0.35522  -0.283462  0  3.557157  0
N  N74  1  0.86474760  0.45686967  0.22222842  1  0  -0.384589  0  3.232663  0  0  -0.313128  0  3.511654  0  0  -0.334016  0  3.530289  0  0  -0.349413  -0.298548  0  3.498246  0
N  N75  1  0.13525899  0.54313163  0.77777842  1  0  -0.384674  0  3.232665  0  0  -0.313217  0  3.51167  0  0  -0.334103  0  3.530302  0  0  -0.349418  -0.298638  0  3.498269  0
N  N76  1  0.88257651  0.69198523  0.31394760  1  0  -0.098791  0  3.60641  0  0  -0.008667  0  3.819313  0  0  -0.023565  0  3.845343  0  0  -0.230685  0.00119  0  3.801676  0
N  N77  1  0.11743897  0.30801852  0.68605874  1  0  -0.098663  0  3.606398  0  0  -0.008541  0  3.81925  0  0  -0.023431  0  3.845284  0  0  -0.230766  0.001318  0  3.801612  0
N  N78  1  0.72142727  0.13253378  0.75873309  1  0  -0.097604  0  3.608838  0  0  -0.008713  0  3.822542  0  0  -0.023619  0  3.848346  0  0  -0.227132  0.001059  0  3.805033  0
N  N79  1  0.27856823  0.86746741  0.24126617  1  0  -0.097661  0  3.608961  0  0  -0.008796  0  3.822651  0  0  -0.023701  0  3.848453  0  0  -0.22726  0.000977  0  3.805143  0
N  N80  1  0.59169578  0.43414342  0.72501347  1  0  0.498178  0  3.903955  0  0  0.528026  0  4.200914  0  0  0.548854  0  4.209389  0  0  0.055187  0.513924  0  4.195405  0
N  N81  1  0.40830469  0.56585457  0.27498469  1  0  0.498107  0  3.904035  0  0  0.527963  0  4.200993  0  0  0.548788  0  4.209472  0  0  0.055178  0.513859  0  4.195483  0
O  O82  1  0.14902562  0.18983908  0.15017666  1  0  -0.629059  0  1.951491  0  0  -0.571266  0  2.173334  0  0  -0.597721  0  2.164653  0  0  -0.316176  -0.551767  0  2.178279  0
O  O83  1  0.85096466  0.81015861  0.84982432  1  0  -0.629103  0  1.951533  0  0  -0.571305  0  2.1734  0  0  -0.597758  0  2.164707  0  0  -0.31624  -0.551806  0  2.178343  0
O  O84  1  0.12266503  0.31740879  0.34927942  1  0  -0.630968  0  1.986313  0  0  -0.562901  0  2.231938  0  0  -0.592676  0  2.222193  0  0  -0.330359  -0.540807  0  2.239067  0
O  O85  1  0.87733020  0.68259458  0.65072153  1  0  -0.630873  0  1.986344  0  0  -0.562848  0  2.232021  0  0  -0.592624  0  2.222278  0  0  -0.330288  -0.540754  0  2.239146  0
O  O86  1  0.50819342  0.46840669  0.78416774  1  0  -0.360442  0  1.727676  0  0  -0.346348  0  1.926727  0  0  -0.357917  0  1.924048  0  0  -0.133567  -0.338406  0  1.9286  0
O  O87  1  0.49180413  0.53158568  0.21583005  1  0  -0.3604  0  1.727731  0  0  -0.346295  0  1.926775  0  0  -0.357864  0  1.924099  0  0  -0.133532  -0.338354  0  1.928649  0
O  O88  1  0.71843558  0.45208732  0.78496439  1  0  -0.369281  0  1.745736  0  0  -0.352907  0  1.955694  0  0  -0.36488  0  1.952806  0  0  -0.133444  -0.34495  0  1.957844  0
O  O89  1  0.28156718  0.54791742  0.21503359  1  0  -0.369307  0  1.745828  0  0  -0.352933  0  1.955784  0  0  -0.364896  0  1.952882  0  0  -0.13348  -0.344982  0  1.957944  0
O  O90  1  0.79898986  0.96428062  0.08277824  1  0  -0.816944  0  1.823901  0  0  -0.756814  0  2.006544  0  0  -0.77747  0  1.973509  0  0  -0.576007  -0.742015  0  2.028544  0
O  O91  1  0.20100170  0.03571491  0.91722127  1  0  -0.816862  0  1.824082  0  0  -0.756762  0  2.006715  0  0  -0.77742  0  1.973616  0  0  -0.575986  -0.741967  0  2.028717  0
O  O92  1  0.80896633  0.26148132  0.35646906  1  0  -0.641188  0  1.987601  0  0  -0.577306  0  2.229274  0  0  -0.607321  0  2.221274  0  0  -0.333038  -0.554632  0  2.234809  0
O  O93  1  0.19101920  0.73850527  0.64352463  1  0  -0.641245  0  1.987596  0  0  -0.577363  0  2.22925  0  0  -0.607381  0  2.221249  0  0  -0.333103  -0.554691  0  2.234781  0
O  O94  1  0.61448431  0.13500524  0.15641457  1  0  -0.644514  0  1.887829  0  0  -0.592832  0  2.10665  0  0  -0.617961  0  2.096971  0  0  -0.338186  -0.574098  0  2.111679  0
O  O95  1  0.38551002  0.86499829  0.84357766  1  0  -0.644571  0  1.887824  0  0  -0.592897  0  2.106665  0  0  -0.618026  0  2.09698  0  0  -0.338226  -0.574164  0  2.111696  0
