# generated using pymatgen
data_NaH9(C5O3)2
_symmetry_space_group_name_H-M   'P 1'
_cell_length_a   7.27971526
_cell_length_b   9.87416900
_cell_length_c   15.85159093
_cell_angle_alpha   74.76962368
_cell_angle_beta   76.70815508
_cell_angle_gamma   68.37007292
_symmetry_Int_Tables_number   1
_chemical_formula_structural   NaH9(C5O3)2
_chemical_formula_sum   'Na4 H36 C40 O24'
_cell_volume   1010.68326322
_cell_formula_units_Z   4
loop_
 _symmetry_equiv_pos_site_id
 _symmetry_equiv_pos_as_xyz
  1  'x, y, z'
loop_
 _atom_site_type_symbol
 _atom_site_label
 _atom_site_symmetry_multiplicity
 _atom_site_fract_x
 _atom_site_fract_y
 _atom_site_fract_z
 _atom_site_occupancy
 _atom_site_hle17_bader_spin_density
 _atom_site_hle17_ddec_charge
 _atom_site_hle17_ddec_spin_density
 _atom_site_hle17_ddec_sum_bond_order
 _atom_site_hle17_magmom
 _atom_site_hse06_10hf_bader_spin_density
 _atom_site_hse06_10hf_ddec_charge
 _atom_site_hse06_10hf_ddec_spin_density
 _atom_site_hse06_10hf_ddec_sum_bond_order
 _atom_site_hse06_10hf_magmom
 _atom_site_hse06_bader_spin_density
 _atom_site_hse06_ddec_charge
 _atom_site_hse06_ddec_spin_density
 _atom_site_hse06_ddec_sum_bond_order
 _atom_site_hse06_magmom
 _atom_site_pbe_bader_spin_density
 _atom_site_pbe_cm5_charge
 _atom_site_pbe_ddec_charge
 _atom_site_pbe_ddec_spin_density
 _atom_site_pbe_ddec_sum_bond_order
 _atom_site_pbe_magmom
Na  Na0  1  0.45449238  0.67891992  0.92451471  1  0  0.898864  0  0.415601  0  0  0.845348  0  0.582716  0  0  0.857605  0  0.559982  0  0  0.733379  0.83643  0  0.598859  0
Na  Na1  1  0.05798884  0.82100601  0.57579498  1  0  0.899004  0  0.415166  0  0  0.845097  0  0.582777  0  0  0.857482  0  0.559888  0  0  0.73281  0.836266  0  0.598695  0
Na  Na2  1  0.54551312  0.32107938  0.07548424  1  0  0.898859  0  0.415627  0  0  0.845348  0  0.582714  0  0  0.85761  0  0.559984  0  0  0.733392  0.836434  0  0.598858  0
Na  Na3  1  0.94201429  0.17899441  0.42420290  1  0  0.899014  0  0.41514  0  0  0.845081  0  0.582807  0  0  0.857465  0  0.559909  0  0  0.732804  0.836251  0  0.598724  0
H  H4  1  0.03458258  0.22015507  0.82382564  1  0  0.083908  0  0.992479  0  0  0.09467  0  1.061419  0  0  0.096936  0  1.060338  0  0  0.0953  0.092934  0  1.062454  0
H  H5  1  0.07799739  0.27961453  0.67633192  1  0  0.084211  0  0.993273  0  0  0.095577  0  1.061446  0  0  0.097832  0  1.060373  0  0  0.095309  0.093881  0  1.062391  0
H  H6  1  0.96541294  0.77984533  0.17617557  1  0  0.083917  0  0.992461  0  0  0.094685  0  1.061393  0  0  0.096952  0  1.060311  0  0  0.0953  0.09295  0  1.062421  0
H  H7  1  0.92200423  0.72038921  0.32366841  1  0  0.084238  0  0.993251  0  0  0.095607  0  1.06142  0  0  0.097863  0  1.060343  0  0  0.095304  0.093901  0  1.062368  0
H  H8  1  0.93911522  0.40841214  0.91721057  1  0  0.098488  0  0.970337  0  0  0.107703  0  1.033798  0  0  0.11164  0  1.031032  0  0  0.104979  0.104815  0  1.035891  0
H  H9  1  0.26432001  0.09146214  0.58289873  1  0  0.098306  0  0.969668  0  0  0.107139  0  1.033596  0  0  0.111206  0  1.030696  0  0  0.105238  0.104285  0  1.035652  0
H  H10  1  0.06087685  0.59158603  0.08279248  1  0  0.098495  0  0.970274  0  0  0.10773  0  1.033714  0  0  0.111669  0  1.030952  0  0  0.105025  0.104845  0  1.035806  0
H  H11  1  0.73568019  0.90854048  0.41710361  1  0  0.098303  0  0.969625  0  0  0.10711  0  1.033601  0  0  0.111195  0  1.030683  0  0  0.105219  0.104253  0  1.035649  0
H  H12  1  0.05661950  0.33452236  0.06486648  1  0  0.103811  0  0.957584  0  0  0.115659  0  1.014509  0  0  0.118906  0  1.012745  0  0  0.10802  0.113377  0  1.015702  0
H  H13  1  0.45555775  0.16546951  0.43520651  1  0  0.104  0  0.95737  0  0  0.115857  0  1.014227  0  0  0.119013  0  1.012599  0  0  0.108145  0.113651  0  1.015333  0
H  H14  1  0.94337496  0.66547470  0.93513622  1  0  0.10384  0  0.957655  0  0  0.115699  0  1.014546  0  0  0.118944  0  1.012784  0  0  0.108043  0.113415  0  1.015739  0
H  H15  1  0.54444016  0.83452978  0.56479434  1  0  0.104012  0  0.957375  0  0  0.11587  0  1.014229  0  0  0.119025  0  1.012603  0  0  0.10817  0.113664  0  1.015335  0
H  H16  1  0.25793288  0.07672733  0.11799626  1  0  0.111722  0  0.953657  0  0  0.122651  0  1.016832  0  0  0.126479  0  1.013603  0  0  0.1095  0.119853  0  1.019336  0
H  H17  1  0.45231860  0.42330746  0.38217868  1  0  0.112021  0  0.953184  0  0  0.122821  0  1.016539  0  0  0.1266  0  1.013358  0  0  0.10954  0.120043  0  1.01902  0
H  H18  1  0.74206855  0.92326975  0.88200374  1  0  0.111716  0  0.953684  0  0  0.122642  0  1.016862  0  0  0.126468  0  1.013636  0  0  0.109506  0.119844  0  1.019371  0
H  H19  1  0.54767856  0.57669072  0.61782074  1  0  0.112034  0  0.953094  0  0  0.122812  0  1.016479  0  0  0.126591  0  1.013297  0  0  0.109529  0.120036  0  1.018955  0
H  H20  1  0.70712601  0.16978831  0.83575802  1  0  0.084709  0  0.941598  0  0  0.090615  0  1.015241  0  0  0.092723  0  1.012709  0  0  0.106988  0.089035  0  1.017203  0
H  H21  1  0.71266449  0.33021327  0.66387622  1  0  0.084282  0  0.940665  0  0  0.089828  0  1.014955  0  0  0.092021  0  1.012442  0  0  0.107148  0.088301  0  1.016706  0
H  H22  1  0.29287458  0.83021210  0.16424097  1  0  0.084702  0  0.941623  0  0  0.090616  0  1.015271  0  0  0.092725  0  1.012739  0  0  0.106988  0.089036  0  1.01723  0
H  H23  1  0.28734037  0.66978602  0.33612336  1  0  0.084325  0  0.940638  0  0  0.089882  0  1.014925  0  0  0.092077  0  1.012412  0  0  0.10717  0.088354  0  1.016677  0
H  H24  1  0.46750105  0.15377319  0.88108504  1  0  0.093584  0  0.958659  0  0  0.100195  0  1.026035  0  0  0.101071  0  1.027109  0  0  0.11121  0.099422  0  1.025614  0
H  H25  1  0.50226429  0.34658876  0.61853375  1  0  0.092326  0  0.960763  0  0  0.099146  0  1.027877  0  0  0.100126  0  1.028894  0  0  0.11066  0.098671  0  1.027169  0
H  H26  1  0.53249939  0.84622610  0.11891471  1  0  0.093612  0  0.958621  0  0  0.100236  0  1.025999  0  0  0.101113  0  1.027073  0  0  0.111231  0.099462  0  1.025575  0
H  H27  1  0.49774121  0.65341054  0.38146520  1  0  0.092349  0  0.960816  0  0  0.099148  0  1.02795  0  0  0.100129  0  1.028968  0  0  0.110652  0.098673  0  1.027242  0
H  H28  1  0.04102047  0.02139353  0.78597666  1  0  0.075369  0  0.936943  0  0  0.08641  0  1.005174  0  0  0.087694  0  1.003714  0  0  0.105686  0.085481  0  1.006308  0
H  H29  1  0.84760150  0.47861850  0.71433167  1  0  0.076114  0  0.935882  0  0  0.087544  0  1.00364  0  0  0.088872  0  1.002191  0  0  0.106325  0.086549  0  1.004771  0
H  H30  1  0.95897393  0.97860797  0.21402505  1  0  0.075377  0  0.936895  0  0  0.086436  0  1.005151  0  0  0.087721  0  1.00369  0  0  0.105703  0.085504  0  1.006282  0
H  H31  1  0.15240197  0.52137969  0.28566710  1  0  0.076147  0  0.935881  0  0  0.087532  0  1.003669  0  0  0.088856  0  1.002216  0  0  0.106325  0.086541  0  1.004796  0
H  H32  1  0.28275801  0.03883753  0.74051597  1  0  0.088558  0  0.934926  0  0  0.100084  0  0.999135  0  0  0.101334  0  0.998239  0  0  0.110289  0.099154  0  0.999925  0
H  H33  1  0.06141752  0.46111721  0.75969644  1  0  0.089441  0  0.936709  0  0  0.10107  0  1.000615  0  0  0.102373  0  0.999721  0  0  0.110429  0.100103  0  1.001405  0
H  H34  1  0.71723591  0.96116509  0.25948420  1  0  0.088515  0  0.934905  0  0  0.100067  0  0.999134  0  0  0.101316  0  0.998242  0  0  0.110272  0.099135  0  0.999917  0
H  H35  1  0.93858510  0.53888431  0.24030273  1  0  0.08946  0  0.936706  0  0  0.101078  0  1.000607  0  0  0.102376  0  0.999712  0  0  0.110425  0.100111  0  1.001402  0
H  H36  1  0.38003521  0.55251463  0.78983120  1  0  0.412017  0  0.886812  0  0  0.378419  0  0.965827  0  0  0.392473  0  0.946283  0  0  0.299793  0.368578  0  0.978117  0
H  H37  1  0.72189836  0.94784668  0.71004667  1  0  0.412698  0  0.885682  0  0  0.378781  0  0.965291  0  0  0.392836  0  0.945753  0  0  0.299932  0.369015  0  0.977536  0
H  H38  1  0.61996473  0.44748577  0.21016983  1  0  0.412008  0  0.886834  0  0  0.378409  0  0.965846  0  0  0.392464  0  0.946301  0  0  0.299784  0.368567  0  0.978156  0
H  H39  1  0.27810489  0.05215484  0.28995186  1  0  0.412685  0  0.885645  0  0  0.37877  0  0.96529  0  0  0.392825  0  0.945752  0  0  0.299923  0.369004  0  0.9775  0
C  C40  1  0.25594771  0.99932950  0.00286351  1  0  0.167122  0  3.790762  0  0  0.1558  0  4.055899  0  0  0.16276  0  4.072576  0  0  0.07363  0.150934  0  4.044792  0
C  C41  1  0.25779039  0.50055073  0.49737467  1  0  0.165853  0  3.789775  0  0  0.154118  0  4.054895  0  0  0.160941  0  4.071573  0  0  0.073106  0.149171  0  4.043911  0
C  C42  1  0.74405338  0.00066980  0.99713560  1  0  0.167064  0  3.790652  0  0  0.155779  0  4.055754  0  0  0.162738  0  4.072436  0  0  0.073615  0.150899  0  4.044661  0
C  C43  1  0.74221097  0.49945079  0.50262434  1  0  0.16586  0  3.789738  0  0  0.154117  0  4.054847  0  0  0.160938  0  4.071527  0  0  0.073089  0.149169  0  4.04387  0
C  C44  1  0.19467881  0.04085361  0.91833090  1  0  0.164609  0  3.802091  0  0  0.155358  0  4.061654  0  0  0.162482  0  4.077943  0  0  0.071837  0.150299  0  4.050951  0
C  C45  1  0.15330293  0.45897902  0.58189493  1  0  0.167699  0  3.80098  0  0  0.15844  0  4.060351  0  0  0.165688  0  4.076451  0  0  0.072268  0.153264  0  4.049711  0
C  C46  1  0.80531861  0.95914679  0.08166982  1  0  0.164597  0  3.802093  0  0  0.155413  0  4.061574  0  0  0.162531  0  4.077858  0  0  0.071914  0.150364  0  4.050859  0
C  C47  1  0.84669679  0.54102471  0.41810587  1  0  0.167828  0  3.80094  0  0  0.158547  0  4.060319  0  0  0.165793  0  4.07642  0  0  0.072339  0.153365  0  4.049686  0
C  C48  1  0.08163350  0.18770526  0.88864329  1  0  -0.191322  0  3.807415  0  0  -0.214009  0  4.065826  0  0  -0.217464  0  4.086301  0  0  -0.115914  -0.211649  0  4.052208  0
C  C49  1  0.15743268  0.31211899  0.61152431  1  0  -0.193939  0  3.809615  0  0  -0.21737  0  4.067775  0  0  -0.220865  0  4.088316  0  0  -0.116021  -0.214935  0  4.054101  0
C  C50  1  0.91836379  0.81229404  0.11135678  1  0  -0.191312  0  3.807454  0  0  -0.214022  0  4.065869  0  0  -0.217475  0  4.086344  0  0  -0.115918  -0.211659  0  4.05224  0
C  C51  1  0.84256852  0.68788141  0.38847687  1  0  -0.193998  0  3.809681  0  0  -0.217421  0  4.067824  0  0  -0.220914  0  4.08837  0  0  -0.116028  -0.21498  0  4.054156  0
C  C52  1  0.02902226  0.29413372  0.94142478  1  0  -0.083305  0  3.79173  0  0  -0.100614  0  4.051599  0  0  -0.101334  0  4.069781  0  0  -0.100702  -0.100092  0  4.039188  0
C  C53  1  0.26410664  0.20575333  0.55870478  1  0  -0.081046  0  3.788528  0  0  -0.098037  0  4.048376  0  0  -0.098832  0  4.066437  0  0  -0.100943  -0.09757  0  4.036115  0
C  C54  1  0.97097250  0.70586557  0.05857640  1  0  -0.083391  0  3.791672  0  0  -0.100717  0  4.05158  0  0  -0.101434  0  4.069747  0  0  -0.100779  -0.100204  0  4.039177  0
C  C55  1  0.73589315  0.79424595  0.44129701  1  0  -0.081062  0  3.788553  0  0  -0.098044  0  4.048415  0  0  -0.098842  0  4.066445  0  0  -0.100931  -0.097571  0  4.036144  0
C  C56  1  0.09246435  0.25340106  0.02349020  1  0  -0.054403  0  3.766556  0  0  -0.075797  0  4.029901  0  0  -0.074828  0  4.04666  0  0  -0.091831  -0.076451  0  4.018453  0
C  C57  1  0.36890572  0.24654024  0.47663480  1  0  -0.054817  0  3.765616  0  0  -0.076202  0  4.02873  0  0  -0.075188  0  4.045539  0  0  -0.091382  -0.076856  0  4.017391  0
C  C58  1  0.90753215  0.74659711  0.97651126  1  0  -0.054397  0  3.766769  0  0  -0.075796  0  4.030123  0  0  -0.074826  0  4.046887  0  0  -0.091829  -0.076443  0  4.018668  0
C  C59  1  0.63109343  0.75345904  0.52336762  1  0  -0.054792  0  3.765608  0  0  -0.076174  0  4.028729  0  0  -0.075161  0  4.045545  0  0  -0.091392  -0.076829  0  4.017387  0
C  C60  1  0.20654898  0.10600909  0.05422467  1  0  -0.170762  0  3.749014  0  0  -0.197897  0  4.014643  0  0  -0.199826  0  4.031288  0  0  -0.104743  -0.196599  0  4.003499  0
C  C61  1  0.36641050  0.39394072  0.44594791  1  0  -0.171924  0  3.748929  0  0  -0.198991  0  4.014482  0  0  -0.200946  0  4.031301  0  0  -0.105541  -0.197674  0  4.003379  0
C  C62  1  0.79345168  0.89398688  0.94577531  1  0  -0.170774  0  3.749142  0  0  -0.197918  0  4.014771  0  0  -0.199849  0  4.031422  0  0  -0.104771  -0.196621  0  4.003643  0
C  C63  1  0.63358881  0.60605968  0.55405234  1  0  -0.171965  0  3.748815  0  0  -0.199014  0  4.014371  0  0  -0.200971  0  4.031193  0  0  -0.10555  -0.197695  0  4.003269  0
C  C64  1  0.57848498  0.20054479  0.88759255  1  0  -0.071777  0  3.639508  0  0  -0.125457  0  3.892899  0  0  -0.123223  0  3.896003  0  0  -0.062264  -0.126946  0  3.890796  0
C  C65  1  0.66649604  0.29959620  0.61203627  1  0  -0.070382  0  3.638947  0  0  -0.123777  0  3.892804  0  0  -0.121825  0  3.896276  0  0  -0.061198  -0.125164  0  3.890106  0
C  C66  1  0.42151610  0.79945451  0.11240657  1  0  -0.071708  0  3.639452  0  0  -0.125449  0  3.892879  0  0  -0.123218  0  3.895988  0  0  -0.062292  -0.126947  0  3.890772  0
C  C67  1  0.33350722  0.70040532  0.38796226  1  0  -0.070464  0  3.638999  0  0  -0.123852  0  3.892902  0  0  -0.121907  0  3.896383  0  0  -0.06123  -0.125237  0  3.8902  0
C  C68  1  0.48677915  0.36835950  0.87427056  1  0  0.697773  0  3.782613  0  0  0.652657  0  4.081281  0  0  0.684206  0  4.073257  0  0  0.236819  0.631174  0  4.086179  0
C  C69  1  0.72899992  0.13183394  0.62536251  1  0  0.699619  0  3.780417  0  0  0.652208  0  4.082537  0  0  0.683681  0  4.07479  0  0  0.236589  0.630799  0  4.087175  0
C  C70  1  0.51322431  0.63163868  0.12572962  1  0  0.697593  0  3.782761  0  0  0.652479  0  4.081444  0  0  0.684027  0  4.073425  0  0  0.236789  0.631007  0  4.08633  0
C  C71  1  0.27100635  0.86816647  0.37463646  1  0  0.699584  0  3.780446  0  0  0.652176  0  4.082582  0  0  0.683652  0  4.074832  0  0  0.236566  0.630765  0  4.087225  0
C  C72  1  0.20340626  0.96502796  0.78476048  1  0  -0.060645  0  3.604965  0  0  -0.116723  0  3.863483  0  0  -0.112976  0  3.863778  0  0  -0.064335  -0.119331  0  3.863306  0
C  C73  1  0.95255185  0.53494347  0.71545146  1  0  -0.06198  0  3.608311  0  0  -0.118809  0  3.8662  0  0  -0.115281  0  3.866678  0  0  -0.065098  -0.121411  0  3.86595  0
C  C74  1  0.79658940  0.03497355  0.21523997  1  0  -0.060641  0  3.604776  0  0  -0.116812  0  3.863473  0  0  -0.113096  0  3.863816  0  0  -0.064379  -0.119411  0  3.863274  0
C  C75  1  0.04745126  0.46505694  0.28454784  1  0  -0.062036  0  3.608365  0  0  -0.118784  0  3.866172  0  0  -0.115236  0  3.866624  0  0  -0.0651  -0.121394  0  3.865928  0
C  C76  1  0.25696716  0.82507915  0.74698004  1  0  0.707559  0  3.873783  0  0  0.661188  0  4.175545  0  0  0.693783  0  4.166633  0  0  0.217292  0.639051  0  4.181018  0
C  C77  1  0.82856472  0.67496704  0.75320150  1  0  0.702743  0  3.88085  0  0  0.658021  0  4.180128  0  0  0.690649  0  4.171243  0  0  0.215914  0.635918  0  4.185506  0
C  C78  1  0.74302977  0.17492236  0.25302056  1  0  0.707523  0  3.873681  0  0  0.661172  0  4.175477  0  0  0.693762  0  4.166571  0  0  0.21728  0.639028  0  4.180956  0
C  C79  1  0.17143462  0.32503337  0.24679733  1  0  0.702748  0  3.880962  0  0  0.657988  0  4.180269  0  0  0.690613  0  4.17138  0  0  0.215895  0.635887  0  4.185651  0
O  O80  1  0.36339390  0.85175996  0.02665093  1  0  -0.298058  0  2.463495  0  0  -0.230421  0  2.705634  0  0  -0.247651  0  2.711328  0  0  -0.215444  -0.218313  0  2.70138  0
O  O81  1  0.24173227  0.64810461  0.47368762  1  0  -0.297746  0  2.461936  0  0  -0.228715  0  2.703033  0  0  -0.245778  0  2.708843  0  0  -0.214709  -0.216708  0  2.698628  0
O  O82  1  0.63660782  0.14823934  0.97334756  1  0  -0.297986  0  2.463535  0  0  -0.230418  0  2.705689  0  0  -0.247652  0  2.711387  0  0  -0.215458  -0.218308  0  2.701438  0
O  O83  1  0.75827197  0.35189469  0.52631117  1  0  -0.29779  0  2.461886  0  0  -0.22871  0  2.702942  0  0  -0.245773  0  2.708748  0  0  -0.21473  -0.216709  0  2.698544  0
O  O84  1  0.53927907  0.56527519  0.06556727  1  0  -0.640551  0  1.975745  0  0  -0.602577  0  2.212991  0  0  -0.621839  0  2.201613  0  0  -0.403574  -0.589326  0  2.220428  0
O  O85  1  0.17071403  0.93467573  0.43475894  1  0  -0.640514  0  1.973092  0  0  -0.601555  0  2.21135  0  0  -0.620833  0  2.200135  0  0  -0.402366  -0.588317  0  2.218558  0
O  O86  1  0.46072579  0.43472410  0.93443230  1  0  -0.640616  0  1.975737  0  0  -0.602648  0  2.212989  0  0  -0.621908  0  2.201606  0  0  -0.40357  -0.589389  0  2.220425  0
O  O87  1  0.82929285  0.06532467  0.56524082  1  0  -0.640537  0  1.97306  0  0  -0.601596  0  2.211343  0  0  -0.620873  0  2.20013  0  0  -0.4024  -0.588358  0  2.218549  0
O  O88  1  0.44159511  0.43274349  0.79429880  1  0  -0.563866  0  2.039871  0  0  -0.513064  0  2.258511  0  0  -0.537259  0  2.241922  0  0  -0.323694  -0.496235  0  2.268671  0
O  O89  1  0.66820302  0.06759096  0.70540391  1  0  -0.565059  0  2.039218  0  0  -0.513438  0  2.259046  0  0  -0.537578  0  2.242435  0  0  -0.324293  -0.496928  0  2.26938  0
O  O90  1  0.55840293  0.56725690  0.20570271  1  0  -0.563784  0  2.039945  0  0  -0.512983  0  2.25858  0  0  -0.537176  0  2.241991  0  0  -0.323652  -0.496153  0  2.268747  0
O  O91  1  0.33180184  0.93240834  0.29459567  1  0  -0.56506  0  2.039187  0  0  -0.513447  0  2.259044  0  0  -0.537586  0  2.24243  0  0  -0.324304  -0.496937  0  2.269354  0
O  O92  1  0.25414351  0.92874986  0.87188711  1  0  -0.296724  0  2.430003  0  0  -0.229371  0  2.673358  0  0  -0.244836  0  2.675003  0  0  -0.229668  -0.218521  0  2.672029  0
O  O93  1  0.05418026  0.57109522  0.62832002  1  0  -0.297471  0  2.430503  0  0  -0.230331  0  2.674417  0  0  -0.245746  0  2.675994  0  0  -0.229912  -0.219385  0  2.672804  0
O  O94  1  0.74585595  0.07125166  0.12811238  1  0  -0.296614  0  2.429956  0  0  -0.229297  0  2.673375  0  0  -0.244737  0  2.675007  0  0  -0.22967  -0.218453  0  2.67204  0
O  O95  1  0.94582236  0.42890630  0.37167915  1  0  -0.297572  0  2.430383  0  0  -0.230413  0  2.674255  0  0  -0.245832  0  2.675824  0  0  -0.229928  -0.21946  0  2.672644  0
O  O96  1  0.31257024  0.70045050  0.80025031  1  0  -0.681735  0  2.059531  0  0  -0.626246  0  2.293034  0  0  -0.651374  0  2.279624  0  0  -0.377805  -0.608621  0  2.301248  0
O  O97  1  0.81306272  0.79956465  0.69992835  1  0  -0.679868  0  2.060308  0  0  -0.624614  0  2.293092  0  0  -0.649768  0  2.279677  0  0  -0.377291  -0.607177  0  2.301248  0
O  O98  1  0.68742669  0.29955101  0.19975029  1  0  -0.681736  0  2.059489  0  0  -0.626227  0  2.292965  0  0  -0.651358  0  2.279572  0  0  -0.377799  -0.6086  0  2.30119  0
O  O99  1  0.18693649  0.20043465  0.30006983  1  0  -0.679849  0  2.060314  0  0  -0.624585  0  2.293132  0  0  -0.649738  0  2.279714  0  0  -0.37727  -0.607145  0  2.301275  0
O  O100  1  0.23738808  0.84705168  0.66770827  1  0  -0.675039  0  1.920932  0  0  -0.634554  0  2.159335  0  0  -0.657456  0  2.148024  0  0  -0.394757  -0.618624  0  2.166488  0
O  O101  1  0.75171001  0.65304050  0.83249905  1  0  -0.673397  0  1.923092  0  0  -0.633718  0  2.160624  0  0  -0.656592  0  2.149398  0  0  -0.394607  -0.61751  0  2.167711  0
O  O102  1  0.76260710  0.15295094  0.33229205  1  0  -0.675017  0  1.92096  0  0  -0.634523  0  2.159375  0  0  -0.657422  0  2.148069  0  0  -0.39473  -0.618588  0  2.166529  0
O  O103  1  0.24829197  0.34696102  0.16750074  1  0  -0.673384  0  1.923178  0  0  -0.633695  0  2.160713  0  0  -0.656571  0  2.14949  0  0  -0.394584  -0.617485  0  2.167804  0
