# generated using pymatgen
data_Zn4H12C48Br12O13
_symmetry_space_group_name_H-M   'P 1'
_cell_length_a   28.34351426
_cell_length_b   28.34424900
_cell_length_c   28.34243626
_cell_angle_alpha   119.99963104
_cell_angle_beta   90.00319963
_cell_angle_gamma   59.99253796
_symmetry_Int_Tables_number   1
_chemical_formula_structural   Zn4H12C48Br12O13
_chemical_formula_sum   'Zn8 H24 C96 Br24 O26'
_cell_volume   16099.27769709
_cell_formula_units_Z   2
loop_
 _symmetry_equiv_pos_site_id
 _symmetry_equiv_pos_as_xyz
  1  'x, y, z'
loop_
 _atom_site_type_symbol
 _atom_site_label
 _atom_site_symmetry_multiplicity
 _atom_site_fract_x
 _atom_site_fract_y
 _atom_site_fract_z
 _atom_site_occupancy
 _atom_site_pbe_bader_charge
 _atom_site_pbe_bader_spin_density
 _atom_site_pbe_cm5_charge
 _atom_site_pbe_ddec_charge
 _atom_site_pbe_ddec_spin_density
 _atom_site_pbe_ddec_sum_bond_order
 _atom_site_pbe_magmom
Zn  Zn0  1  0.52829569  0.05662505  0.02829610  1  1.317866  0  0.677586  0.983521  0  2.350961  0
Zn  Zn1  1  0.52835356  0.94341350  0.91504789  1  1.313656  0  0.677672  0.983369  0  2.3507  0
Zn  Zn2  1  0.41513028  0.05657611  0.02823506  1  1.307398  0  0.677565  0.983102  0  2.351411  0
Zn  Zn3  1  0.52829572  0.94341778  0.02826448  1  1.313605  0  0.677583  0.983207  0  2.351014  0
Zn  Zn4  1  0.97160728  0.94343579  0.47177274  1  1.319966  0  0.677479  0.982738  0  2.352028  0
Zn  Zn5  1  0.08484188  0.94337365  0.47168192  1  1.306329  0  0.677906  0.984088  0  2.349878  0
Zn  Zn6  1  0.97163994  0.05659618  0.58490392  1  1.310825  0  0.677624  0.982837  0  2.351979  0
Zn  Zn7  1  0.97162243  0.05659684  0.47170696  1  1.316401  0  0.677663  0.98333  0  2.351325  0
H  H8  1  0.80483421  0.07593146  0.30489768  1  0.105693  0  0.109809  0.128115  0  0.991623  0
H  H9  1  0.80485564  0.92394338  0.30485079  1  0.11164  0  0.109619  0.127502  0  0.991328  0
H  H10  1  0.69509238  0.07595728  0.19515182  1  0.112634  0  0.109778  0.12828  0  0.991504  0
H  H11  1  0.69504453  0.92402460  0.19514494  1  0.107684  0  0.10971  0.127848  0  0.991553  0
H  H12  1  0.27103757  0.92403429  0.61911550  1  0.061138  0  0.109871  0.128384  0  0.991441  0
H  H13  1  0.11909997  0.07606658  0.77111982  1  0.059013  0  0.109749  0.127988  0  0.991463  0
H  H14  1  0.38085035  0.92403598  0.72883907  1  0.10184  0  0.109733  0.127596  0  0.991576  0
H  H15  1  0.22891238  0.07601323  0.88084236  1  0.071305  0  0.109854  0.128156  0  0.991442  0
H  H16  1  0.27095581  0.60973988  0.30498783  1  0.119507  0  0.109774  0.128104  0  0.991626  0
H  H17  1  0.11898222  0.60976960  0.30502588  1  0.099742  0  0.10952  0.127315  0  0.991375  0
H  H18  1  0.38072346  0.39029771  0.19530049  1  0.090093  0  0.109787  0.128009  0  0.991585  0
H  H19  1  0.22881739  0.39019512  0.19521986  1  0.102558  0  0.109607  0.127625  0  0.991004  0
H  H20  1  0.80495161  0.39021706  0.61914248  1  0.102831  0  0.109822  0.128161  0  0.991413  0
H  H21  1  0.80490977  0.39026860  0.77113538  1  0.114667  0  0.109643  0.127583  0  0.991647  0
H  H22  1  0.69507545  0.60972592  0.72888929  1  0.114995  0  0.1098  0.127792  0  0.99168  0
H  H23  1  0.69507199  0.60979827  0.88089497  1  0.102979  0  0.109731  0.128005  0  0.991469  0
H  H24  1  0.80491309  0.07609163  0.77123691  1  0.08375  0  0.109446  0.127069  0  0.991233  0
H  H25  1  0.80483199  0.92415259  0.61934044  1  0.082139  0  0.109803  0.128113  0  0.991613  0
H  H26  1  0.69509759  0.07615136  0.88102882  1  0.081624  0  0.109473  0.127  0  0.99139  0
H  H27  1  0.69519999  0.92416324  0.72900283  1  0.088395  0  0.10993  0.12836  0  0.991353  0
H  H28  1  0.27104066  0.92420895  0.30502957  1  0.086503  0  0.109871  0.128157  0  0.99139  0
H  H29  1  0.11905651  0.07615796  0.30501366  1  0.090255  0  0.109636  0.127673  0  0.991686  0
H  H30  1  0.38081919  0.92409771  0.19512573  1  0.089515  0  0.109916  0.128407  0  0.99144  0
H  H31  1  0.22885681  0.07609187  0.19513532  1  0.086247  0  0.10966  0.127701  0  0.991642  0
C  C32  1  0.59043137  0.00008892  0.90964214  1  1.607649  0  0.224053  0.623203  0  4.157131  0
C  C33  1  0.40964364  0.99998705  0.90950993  1  1.611693  0  0.223826  0.623197  0  4.156722  0
C  C34  1  0.40956456  0.18082699  0.09040313  1  1.622427  0  0.223769  0.62313  0  4.156984  0
C  C35  1  0.40956178  0.00003132  0.09037395  1  1.608165  0  0.223374  0.622359  0  4.157232  0
C  C36  1  0.59042119  0.99998056  0.09038238  1  1.578552  0  0.223811  0.622852  0  4.157366  0
C  C37  1  0.59045827  0.81918765  0.90955830  1  1.601619  0  0.223761  0.622748  0  4.156607  0
C  C38  1  0.09026194  0.81918596  0.40967187  1  1.564976  0  0.223954  0.623045  0  4.157378  0
C  C39  1  0.09031560  0.99999827  0.59045070  1  1.608453  0  0.223503  0.622429  0  4.157244  0
C  C40  1  0.90955057  0.00004259  0.59049299  1  1.611716  0  0.224035  0.623548  0  4.157386  0
C  C41  1  0.90947717  0.18081816  0.59045334  1  1.600726  0  0.224086  0.622988  0  4.157071  0
C  C42  1  0.90946778  0.00000408  0.40967858  1  1.584551  0  0.223986  0.623103  0  4.156952  0
C  C43  1  0.09033312  0.00004522  0.40960223  1  1.602429  0  0.223242  0.622011  0  4.157288  0
C  C44  1  0.87195129  0.99996716  0.37209259  1  0.022767  0  -0.01935  -0.131742  0  3.848828  0
C  C45  1  0.85293642  0.04246419  0.35304598  1  -0.040072  0  -8.9e-05  0.123063  0  3.901548  0
C  C46  1  0.81824342  0.04257315  0.31832124  1  0.009024  0  -0.090205  -0.190152  0  3.935558  0
C  C47  1  0.80041101  0.99995034  0.30046817  1  0.121467  0  0.00934  0.18151  0  4.11811  0
C  C48  1  0.81825732  0.95732440  0.31829887  1  0.000535  0  -0.090015  -0.189033  0  3.936016  0
C  C49  1  0.85294823  0.95744017  0.35302321  1  -0.044865  0  -1.2e-05  0.122975  0  3.90403  0
C  C50  1  0.76516908  0.99995775  0.26522119  1  -0.082666  0  -0.030774  -0.085996  0  4.072975  0
C  C51  1  0.73473505  0.99996257  0.23480140  1  -0.256654  0  -0.03081  -0.085817  0  4.07401  0
C  C52  1  0.69949455  0.99998127  0.19956215  1  0.119996  0  0.009818  0.182941  0  4.118596  0
C  C53  1  0.68167002  0.04259743  0.18172020  1  0.005247  0  -0.090371  -0.191053  0  3.93661  0
C  C54  1  0.64697585  0.04248519  0.14699912  1  -0.043256  0  0.000366  0.123789  0  3.902349  0
C  C55  1  0.62794613  0.99997574  0.12794587  1  0.024645  0  -0.019207  -0.13137  0  3.848892  0
C  C56  1  0.64694809  0.95749363  0.14699969  1  -0.046018  0  0.000566  0.123868  0  3.902467  0
C  C57  1  0.68164585  0.95737938  0.18171791  1  0.004761  0  -0.090421  -0.190476  0  3.936887  0
C  C58  1  0.12786890  0.00001895  0.62799141  1  -0.004932  0  -0.019385  -0.132069  0  3.848636  0
C  C59  1  0.18941259  0.95750914  0.60450146  1  -0.052114  0  0.000327  0.124164  0  3.901167  0
C  C60  1  0.22425412  0.95740543  0.63908013  1  0.108184  0  -0.090687  -0.191498  0  3.935681  0
C  C61  1  0.19949539  0.00004246  0.69954407  1  0.067319  0  0.010133  0.183348  0  4.118157  0
C  C62  1  0.13903676  0.04267802  0.72433591  1  0.059877  0  -0.090617  -0.190914  0  3.936943  0
C  C63  1  0.10441991  0.04255835  0.68953503  1  -0.00642  0  0.000717  0.124113  0  3.902604  0
C  C64  1  0.23475152  0.00004315  0.73476945  1  -0.258369  0  -0.030723  -0.085621  0  4.073626  0
C  C65  1  0.26519104  0.00003022  0.76518762  1  -0.083541  0  -0.031088  -0.086587  0  4.072658  0
C  C66  1  0.30045952  0.00002175  0.80041618  1  0.073217  0  0.009754  0.182352  0  4.117674  0
C  C67  1  0.36092246  0.95739384  0.77562362  1  0.057055  0  -0.090266  -0.189474  0  3.935874  0
C  C68  1  0.39553293  0.95750045  0.81043052  1  -0.008081  0  0.000256  0.12337  0  3.902654  0
C  C69  1  0.37208088  0.00000292  0.87197327  1  -0.005047  0  -0.019305  -0.131935  0  3.848417  0
C  C70  1  0.31053804  0.04251792  0.89546206  1  -0.050252  0  0.000197  0.1237  0  3.90144  0
C  C71  1  0.27569917  0.04263926  0.86088074  1  0.046129  0  -0.090508  -0.190696  0  3.935788  0
C  C72  1  0.12780419  0.74408541  0.37215025  1  0.053533  0  -0.019547  -0.132184  0  3.848897  0
C  C73  1  0.18935134  0.70601341  0.35311565  1  -0.043367  0  0.000279  0.123805  0  3.900937  0
C  C74  1  0.22416953  0.63659310  0.31840990  1  0.003646  0  -0.090128  -0.190201  0  3.935978  0
C  C75  1  0.19939028  0.60092050  0.30058179  1  0.015855  0  0.009323  0.181878  0  4.119237  0
C  C76  1  0.13893375  0.63660242  0.31843274  1  0.136761  0  -0.090239  -0.189379  0  3.935376  0
C  C77  1  0.10433282  0.70602234  0.35313681  1  -0.140793  0  0.000517  0.12373  0  3.902957  0
C  C78  1  0.23463041  0.53043289  0.26534796  1  -0.345229  0  -0.030845  -0.086036  0  4.072966  0
C  C79  1  0.26507653  0.46956492  0.23491965  1  0.078005  0  -0.030766  -0.085955  0  4.073095  0
C  C80  1  0.30035196  0.39908083  0.19965827  1  0.083105  0  0.00967  0.18221  0  4.119351  0
C  C81  1  0.36080697  0.36343031  0.18183671  1  0.038912  0  -0.090424  -0.19032  0  3.935993  0
C  C82  1  0.39543305  0.29401215  0.14709867  1  -0.047412  0  0.000306  0.123704  0  3.901548  0
C  C83  1  0.37198758  0.25591874  0.12800994  1  0.038898  0  -0.019366  -0.132094  0  3.848794  0
C  C84  1  0.31045041  0.29396462  0.14705784  1  -0.054611  0  0.000318  0.123945  0  3.902421  0
C  C85  1  0.27560232  0.36338106  0.18179668  1  0.04317  0  -0.090218  -0.189941  0  3.93576  0
C  C86  1  0.87200110  0.25591870  0.62800122  1  0.03931  0  -0.019409  -0.131927  0  3.848642  0
C  C87  1  0.85302131  0.29397297  0.60451788  1  -0.143424  0  0.000259  0.123781  0  3.902467  0
C  C88  1  0.81833857  0.36339007  0.63909841  1  0.076255  0  -0.090652  -0.190802  0  3.93613  0
C  C89  1  0.80047951  0.39908501  0.69956022  1  0.141795  0  0.009759  0.182411  0  4.116926  0
C  C90  1  0.81831295  0.36341554  0.72435032  1  0.000585  0  -0.090431  -0.190029  0  3.936203  0
C  C91  1  0.85299684  0.29400054  0.68954353  1  -0.058473  0  0.000404  0.123627  0  3.903298  0
C  C92  1  0.76522515  0.46957862  0.73480229  1  -0.233669  0  -0.030658  -0.085795  0  4.07297  0
C  C93  1  0.73476992  0.53043107  0.76524041  1  -0.012438  0  -0.030811  -0.086011  0  4.073275  0
C  C94  1  0.69951110  0.60092327  0.80047212  1  0.082105  0  0.009757  0.182503  0  4.11738  0
C  C95  1  0.68166361  0.63658603  0.77567524  1  0.001618  0  -0.090421  -0.190012  0  3.935856  0
C  C96  1  0.64696933  0.70599998  0.81048007  1  -0.046231  0  0.000287  0.123434  0  3.903039  0
C  C97  1  0.62796272  0.74408852  0.87201874  1  0.022055  0  -0.019272  -0.131568  0  3.848497  0
C  C98  1  0.64696546  0.70604272  0.89551653  1  -0.138626  0  0.000321  0.123781  0  3.902617  0
C  C99  1  0.68166415  0.63662455  0.86093592  1  0.075943  0  -0.090443  -0.190661  0  3.936504  0
C  C100  1  0.87202049  0.00007259  0.62807199  1  -0.000619  0  -0.019516  -0.131876  0  3.849747  0
C  C101  1  0.85301773  0.04258304  0.68960568  1  -0.02713  0  0.000251  0.123113  0  3.903655  0
C  C102  1  0.81831485  0.04272284  0.72444859  1  0.062308  0  -0.090013  -0.188722  0  3.935521  0
C  C103  1  0.80046146  0.00012721  0.69969501  1  0.037265  0  0.009842  0.182312  0  4.119693  0
C  C104  1  0.81826928  0.95749838  0.63924776  1  0.092663  0  -0.090361  -0.190394  0  3.936815  0
C  C105  1  0.85297535  0.95757980  0.60462075  1  -0.060364  0  -3.5e-05  0.123047  0  3.902363  0
C  C106  1  0.76522286  0.00017575  0.73497172  1  -0.259379  0  -0.030956  -0.086192  0  4.073972  0
C  C107  1  0.73479310  0.00018580  0.76540600  1  -0.063845  0  -0.030847  -0.085839  0  4.073954  0
C  C108  1  0.69955531  0.00015636  0.80060605  1  0.062346  0  0.009755  0.182047  0  4.119875  0
C  C109  1  0.68169281  0.04277134  0.86106041  1  0.054009  0  -0.090072  -0.188763  0  3.935152  0
C  C110  1  0.64698572  0.04264017  0.89563165  1  -0.051097  0  0.000217  0.123218  0  3.903291  0
C  C111  1  0.62798064  0.00011749  0.87212793  1  0.000597  0  -0.019457  -0.131899  0  3.848796  0
C  C112  1  0.64704116  0.95760198  0.81057888  1  -0.031001  0  0.000364  0.123885  0  3.901477  0
C  C113  1  0.68174691  0.95752181  0.77578848  1  0.068565  0  -0.09066  -0.191004  0  3.936947  0
C  C114  1  0.12788560  0.00011683  0.37212080  1  -0.000948  0  -0.019271  -0.131675  0  3.848575  0
C  C115  1  0.18943182  0.95765704  0.35312253  1  -0.029603  0  0.000464  0.123963  0  3.901974  0
C  C116  1  0.22425237  0.95755604  0.31842162  1  0.07064  0  -0.090837  -0.191042  0  3.9359  0
C  C117  1  0.19948151  0.00015640  0.30055650  1  0.057556  0  0.00986  0.182788  0  4.117826  0
C  C118  1  0.13901842  0.04277529  0.31841230  1  0.053225  0  -0.090261  -0.190145  0  3.936367  0
C  C119  1  0.10442628  0.04264552  0.35310638  1  -0.052738  0  0.000389  0.123819  0  3.902875  0
C  C120  1  0.23472343  0.00015302  0.26529833  1  -0.059281  0  -0.03098  -0.086294  0  4.07212  0
C  C121  1  0.26515053  0.00012992  0.23483885  1  -0.262122  0  -0.03086  -0.08604  0  4.071915  0
C  C122  1  0.30040355  0.00010043  0.19956817  1  0.0407  0  0.009557  0.18265  0  4.117604  0
C  C123  1  0.36086800  0.95746379  0.18170824  1  0.083266  0  -0.090385  -0.191107  0  3.935999  0
C  C124  1  0.39546794  0.95755052  0.14697743  1  -0.060492  0  0.000403  0.124101  0  3.901337  0
C  C125  1  0.37199750  0.00005568  0.12793704  1  0.002673  0  -0.019384  -0.132107  0  3.848763  0
C  C126  1  0.31045835  0.04257287  0.14698510  1  -0.02953  0  0.000861  0.124345  0  3.90264  0
C  C127  1  0.27563997  0.04270562  0.18171346  1  0.061989  0  -0.090434  -0.190253  0  3.936548  0
Br  Br128  1  0.87099578  0.10480379  0.37107533  1  -0.018366  0  0.025281  -0.05307  0  1.455735  0
Br  Br129  1  0.87102582  0.89505284  0.37102318  1  -0.01893  0  0.025327  -0.053105  0  1.456824  0
Br  Br130  1  0.62895474  0.10484746  0.12895572  1  -0.017629  0  0.024971  -0.05349  0  1.455719  0
Br  Br131  1  0.62887832  0.89517097  0.12897087  1  -0.019519  0  0.025145  -0.053277  0  1.456546  0
Br  Br132  1  0.23372190  0.89512652  0.52408509  1  -0.02207  0  0.025051  -0.053447  0  1.455881  0
Br  Br133  1  0.02403180  0.10494494  0.73386462  1  -0.020844  0  0.02527  -0.053112  0  1.456631  0
Br  Br134  1  0.47592237  0.89513645  0.76609889  1  -0.014749  0  0.025154  -0.053277  0  1.45633  0
Br  Br135  1  0.26622324  0.10488572  0.97586910  1  -0.020188  0  0.025091  -0.053347  0  1.455848  0
Br  Br136  1  0.23367794  0.74207021  0.37116461  1  -0.019398  0  0.025093  -0.053303  0  1.455601  0
Br  Br137  1  0.02394033  0.74210865  0.37122075  1  -0.020464  0  0.025145  -0.053362  0  1.45689  0
Br  Br138  1  0.47582203  0.25797524  0.12913397  1  -0.018425  0  0.025203  -0.053241  0  1.456051  0
Br  Br139  1  0.26617106  0.25784255  0.12900433  1  -0.020148  0  0.025038  -0.053443  0  1.4564  0
Br  Br140  1  0.87112232  0.25787703  0.52410729  1  -0.019213  0  0.025034  -0.05344  0  1.456072  0
Br  Br141  1  0.87105771  0.25793925  0.73386566  1  -0.020371  0  0.025246  -0.053108  0  1.456959  0
Br  Br142  1  0.62889782  0.74205245  0.76614495  1  -0.02168  0  0.02506  -0.053367  0  1.45625  0
Br  Br143  1  0.62891209  0.74214394  0.97592217  1  -0.019746  0  0.025146  -0.053274  0  1.456315  0
Br  Br144  1  0.87109517  0.10490065  0.73387971  1  -0.015939  0  0.025215  -0.053182  0  1.456848  0
Br  Br145  1  0.87098984  0.89521488  0.52423212  1  -0.016108  0  0.025362  -0.052958  0  1.456146  0
Br  Br146  1  0.62889442  0.10500017  0.97604134  1  -0.01891  0  0.025092  -0.053349  0  1.456609  0
Br  Br147  1  0.62904992  0.89521838  0.76622676  1  -0.014191  0  0.025324  -0.053077  0  1.45579  0
Br  Br148  1  0.23376173  0.89537903  0.37123817  1  -0.016537  0  0.025255  -0.053239  0  1.456088  0
Br  Br149  1  0.02402475  0.10504211  0.37118595  1  -0.017989  0  0.025161  -0.053332  0  1.456292  0
Br  Br150  1  0.47587947  0.89514899  0.12891540  1  -0.016878  0  0.024988  -0.053501  0  1.455688  0
Br  Br151  1  0.26615612  0.10491473  0.12893456  1  -0.016258  0  0.025251  -0.053225  0  1.456721  0
O  O152  1  0.50002446  0.00000033  0.99995880  1  -1.189309  0  -0.572175  -1.033513  0  2.519357  0
O  O153  1  0.57580886  0.03990252  0.96409722  1  -1.182397  0  -0.314702  -0.543328  0  2.444275  0
O  O154  1  0.46410053  0.96017973  0.88429830  1  -1.179534  0  -0.314619  -0.543262  0  2.443243  0
O  O155  1  0.38438197  0.15155750  0.07572964  1  -1.192075  0  -0.314911  -0.543664  0  2.444318  0
O  O156  1  0.57580919  0.96026701  0.88440835  1  -1.181191  0  -0.314738  -0.543604  0  2.445023  0
O  O157  1  0.46401704  0.15159920  0.07577184  1  -1.187528  0  -0.314452  -0.543304  0  2.444588  0
O  O158  1  0.38443220  0.03980742  0.96396238  1  -1.186188  0  -0.314622  -0.543517  0  2.445209  0
O  O159  1  0.38436022  0.03983913  0.07572385  1  -1.176646  0  -0.314564  -0.543224  0  2.443873  0
O  O160  1  0.57582553  0.96012448  0.07571483  1  -1.168242  0  -0.31483  -0.543658  0  2.444623  0
O  O161  1  0.46402157  0.96020904  0.07576464  1  -1.189203  0  -0.314555  -0.543112  0  2.444341  0
O  O162  1  0.57578541  0.03982909  0.07577913  1  -1.16774  0  -0.314679  -0.543434  0  2.444328  0
O  O163  1  0.57592386  0.84843289  0.88434940  1  -1.175734  0  -0.314774  -0.543366  0  2.44402  0
O  O164  1  0.57579842  0.84844074  0.96401291  1  -1.184114  0  -0.314745  -0.54341  0  2.444284  0
O  O165  1  0.99994689  0.99999419  0.50000210  1  -1.189017  0  -0.572248  -1.033635  0  2.51966  0
O  O166  1  0.03580679  0.84843598  0.42431323  1  -1.164568  0  -0.31461  -0.542827  0  2.444004  0
O  O167  1  0.11550786  0.96016636  0.53599020  1  -1.185943  0  -0.314725  -0.543641  0  2.444698  0
O  O168  1  0.92415799  0.03988310  0.61568550  1  -1.177417  0  -0.314808  -0.543394  0  2.44468  0
O  O169  1  0.11547379  0.84842263  0.42426845  1  -1.190133  0  -0.314866  -0.544039  0  2.445649  0
O  O170  1  0.92416509  0.96019608  0.53604420  1  -1.189466  0  -0.314672  -0.543654  0  2.444834  0
O  O171  1  0.03586136  0.03980111  0.61567268  1  -1.179258  0  -0.314545  -0.542815  0  2.443715  0
O  O172  1  0.92407536  0.15158561  0.61567184  1  -1.175183  0  -0.314841  -0.543126  0  2.444064  0
O  O173  1  0.92410691  0.03981182  0.42427690  1  -1.173806  0  -0.314778  -0.543744  0  2.445638  0
O  O174  1  0.92403250  0.15156686  0.53599777  1  -1.183596  0  -0.314759  -0.543463  0  2.445029  0
O  O175  1  0.92401399  0.96024589  0.42437141  1  -1.166665  0  -0.314615  -0.542824  0  2.443736  0
O  O176  1  0.11553929  0.96015087  0.42416769  1  -1.178695  0  -0.31448  -0.543228  0  2.444128  0
O  O177  1  0.03587130  0.03986564  0.42421891  1  -1.182415  0  -0.314459  -0.543024  0  2.443425  0
