# generated using pymatgen
data_ZnH24C26S2N2(ClO4)2
_symmetry_space_group_name_H-M   'P 1'
_cell_length_a   11.42180179
_cell_length_b   11.31913192
_cell_length_c   14.03284290
_cell_angle_alpha   78.20195897
_cell_angle_beta   66.10289143
_cell_angle_gamma   59.69271938
_symmetry_Int_Tables_number   1
_chemical_formula_structural   ZnH24C26S2N2(ClO4)2
_chemical_formula_sum   'Zn2 H48 C52 S4 N4 Cl4 O16'
_cell_volume   1432.01483139
_cell_formula_units_Z   2
loop_
 _symmetry_equiv_pos_site_id
 _symmetry_equiv_pos_as_xyz
  1  'x, y, z'
loop_
 _atom_site_type_symbol
 _atom_site_label
 _atom_site_symmetry_multiplicity
 _atom_site_fract_x
 _atom_site_fract_y
 _atom_site_fract_z
 _atom_site_occupancy
 _atom_site_hle17_bader_spin_density
 _atom_site_hle17_ddec_charge
 _atom_site_hle17_ddec_spin_density
 _atom_site_hle17_ddec_sum_bond_order
 _atom_site_hle17_magmom
 _atom_site_hse06_10hf_bader_spin_density
 _atom_site_hse06_10hf_ddec_charge
 _atom_site_hse06_10hf_ddec_spin_density
 _atom_site_hse06_10hf_ddec_sum_bond_order
 _atom_site_hse06_10hf_magmom
 _atom_site_hse06_bader_spin_density
 _atom_site_hse06_ddec_charge
 _atom_site_hse06_ddec_spin_density
 _atom_site_hse06_ddec_sum_bond_order
 _atom_site_hse06_magmom
 _atom_site_pbe_bader_spin_density
 _atom_site_pbe_cm5_charge
 _atom_site_pbe_ddec_charge
 _atom_site_pbe_ddec_spin_density
 _atom_site_pbe_ddec_sum_bond_order
 _atom_site_pbe_magmom
Zn  Zn0  1  0.79960713  0.99994544  0.00000834  1  0  1.044085  0  1.775224  0  0  0.867707  0  2.208266  0  0  0.914906  0  2.157417  0  0  0.666394  0.835002  0  2.242785  0
Zn  Zn1  1  0.54957260  0.50008503  0.50005106  1  0  1.043682  0  1.774549  0  0  0.867479  0  2.207609  0  0  0.914692  0  2.156768  0  0  0.666436  0.83474  0  2.242122  0
H  H2  1  0.60330549  0.12059351  0.55550674  1  0  0.110424  0  0.958796  0  0  0.120401  0  1.021642  0  0  0.123764  0  1.019148  0  0  0.10508  0.118045  0  1.0233  0
H  H3  1  0.27879436  0.88005107  0.44461450  1  0  0.112347  0  0.956389  0  0  0.121342  0  1.020283  0  0  0.124668  0  1.017805  0  0  0.105747  0.119023  0  1.021883  0
H  H4  1  0.90871103  0.62009173  0.94481486  1  0  0.111722  0  0.956966  0  0  0.120904  0  1.020644  0  0  0.124334  0  1.018047  0  0  0.105145  0.118508  0  1.022333  0
H  H5  1  0.47374495  0.37944980  0.05585824  1  0  0.110467  0  0.958763  0  0  0.119877  0  1.022192  0  0  0.123205  0  1.019724  0  0  0.105142  0.117543  0  1.023833  0
H  H6  1  0.42074200  0.27853484  0.70089963  1  0  0.119791  0  0.974489  0  0  0.127772  0  1.0364  0  0  0.131897  0  1.033501  0  0  0.104706  0.124741  0  1.038625  0
H  H7  1  0.39964215  0.72226241  0.29894057  1  0  0.120983  0  0.972471  0  0  0.128257  0  1.035403  0  0  0.132293  0  1.032595  0  0  0.104621  0.125276  0  1.037584  0
H  H8  1  0.87174767  0.77797629  0.79918782  1  0  0.120733  0  0.973044  0  0  0.128049  0  1.035894  0  0  0.132129  0  1.033037  0  0  0.104486  0.125058  0  1.038067  0
H  H9  1  0.44912096  0.22157976  0.20130117  1  0  0.120226  0  0.972667  0  0  0.12772  0  1.035445  0  0  0.131769  0  1.032629  0  0  0.10418  0.124751  0  1.037593  0
H  H10  1  0.10986488  0.15400060  0.71944624  1  0  0.122349  0  0.980522  0  0  0.12693  0  1.047972  0  0  0.131062  0  1.0453  0  0  0.100767  0.123893  0  1.050091  0
H  H11  1  0.98316862  0.84552526  0.28007610  1  0  0.120174  0  0.980462  0  0  0.124551  0  1.048383  0  0  0.128681  0  1.045703  0  0  0.099486  0.121491  0  1.050551  0
H  H12  1  0.57887792  0.65445526  0.78006344  1  0  0.120479  0  0.98249  0  0  0.125753  0  1.049145  0  0  0.12979  0  1.046574  0  0  0.100239  0.122754  0  1.051234  0
H  H13  1  0.01397405  0.34551460  0.21945194  1  0  0.120019  0  0.981631  0  0  0.125056  0  1.048742  0  0  0.129192  0  1.046067  0  0  0.100288  0.122004  0  1.050887  0
H  H14  1  0.29414864  0.00098986  0.56556033  1  0  0.097261  0  0.968177  0  0  0.102587  0  1.039105  0  0  0.106161  0  1.036341  0  0  0.099457  0.100213  0  1.040643  0
H  H15  1  0.86056430  0.99852456  0.43407769  1  0  0.097783  0  0.968161  0  0  0.103857  0  1.037929  0  0  0.107399  0  1.035252  0  0  0.100264  0.101499  0  1.039454  0
H  H16  1  0.60926086  0.50150692  0.93405152  1  0  0.0974  0  0.968091  0  0  0.103079  0  1.038411  0  0  0.106736  0  1.035565  0  0  0.099659  0.100644  0  1.04003  0
H  H17  1  0.04533163  0.49839829  0.06550497  1  0  0.097267  0  0.96622  0  0  0.102679  0  1.036954  0  0  0.10624  0  1.034224  0  0  0.099879  0.100305  0  1.038495  0
H  H18  1  0.49013315  0.12765815  0.34575855  1  0  0.139669  0  0.937673  0  0  0.14833  0  1.003769  0  0  0.151736  0  1.001942  0  0  0.106764  0.145956  0  1.005251  0
H  H19  1  0.96403889  0.87192247  0.65397091  1  0  0.138717  0  0.938333  0  0  0.147342  0  1.004434  0  0  0.150834  0  1.002551  0  0  0.106349  0.144919  0  1.00592  0
H  H20  1  0.58597948  0.62799639  0.15400797  1  0  0.139301  0  0.936493  0  0  0.147783  0  1.002624  0  0  0.151248  0  1.00074  0  0  0.106478  0.145363  0  1.004123  0
H  H21  1  0.36795564  0.37209167  0.84578595  1  0  0.140121  0  0.936564  0  0  0.148196  0  1.003205  0  0  0.151694  0  1.001319  0  0  0.106612  0.145763  0  1.004713  0
H  H22  1  0.63632638  0.12449596  0.36686077  1  0  0.156067  0  0.916468  0  0  0.170659  0  0.972161  0  0  0.173967  0  0.970052  0  0  0.116362  0.168408  0  0.973641  0
H  H23  1  0.12768109  0.87560422  0.63338238  1  0  0.155214  0  0.915307  0  0  0.169701  0  0.97107  0  0  0.173003  0  0.969008  0  0  0.116132  0.167444  0  0.972532  0
H  H24  1  0.75329500  0.62431152  0.13341759  1  0  0.155822  0  0.914217  0  0  0.17033  0  0.970007  0  0  0.173626  0  0.967953  0  0  0.116316  0.168073  0  0.971465  0
H  H25  1  0.51083203  0.37553191  0.86693590  1  0  0.154521  0  0.916986  0  0  0.169035  0  0.972406  0  0  0.172356  0  0.970313  0  0  0.115817  0.166773  0  0.973864  0
H  H26  1  0.64277214  0.07154141  0.84815234  1  0  0.08654  0  0.927473  0  0  0.097747  0  0.983842  0  0  0.09985  0  0.982375  0  0  0.121125  0.096111  0  0.985041  0
H  H27  1  0.56298760  0.92844014  0.15189048  1  0  0.085995  0  0.92739  0  0  0.097429  0  0.98369  0  0  0.099521  0  0.982256  0  0  0.120888  0.095767  0  0.984911  0
H  H28  1  0.24128947  0.57180188  0.65195222  1  0  0.086496  0  0.927622  0  0  0.097693  0  0.984048  0  0  0.099884  0  0.982476  0  0  0.120658  0.096014  0  0.985314  0
H  H29  1  0.46421229  0.42876591  0.34818561  1  0  0.085953  0  0.927767  0  0  0.097239  0  0.984088  0  0  0.099434  0  0.982516  0  0  0.120878  0.095579  0  0.985302  0
H  H30  1  0.42969512  0.07005146  0.84015858  1  0  0.102021  0  0.984216  0  0  0.108487  0  1.052543  0  0  0.110973  0  1.053072  0  0  0.099682  0.106682  0  1.052429  0
H  H31  1  0.34038681  0.93027037  0.15977232  1  0  0.101809  0  0.983238  0  0  0.108705  0  1.05128  0  0  0.111189  0  1.051774  0  0  0.100215  0.106959  0  1.051106  0
H  H32  1  0.02050846  0.56997887  0.65983917  1  0  0.101934  0  0.983943  0  0  0.108884  0  1.051937  0  0  0.111371  0  1.052433  0  0  0.100097  0.107125  0  1.05179  0
H  H33  1  0.24964841  0.43011157  0.34025764  1  0  0.101416  0  0.983632  0  0  0.10808  0  1.051959  0  0  0.110557  0  1.052485  0  0  0.099745  0.106271  0  1.051866  0
H  H34  1  0.08665559  0.12336686  0.14011041  1  0  0.116388  0  0.944151  0  0  0.127115  0  1.00319  0  0  0.130161  0  1.002685  0  0  0.108935  0.124917  0  1.003755  0
H  H35  1  0.34950353  0.87682259  0.85992722  1  0  0.115403  0  0.945187  0  0  0.126724  0  1.00347  0  0  0.12971  0  1.003024  0  0  0.109001  0.124542  0  1.004034  0
H  H36  1  0.97635003  0.62322948  0.35990437  1  0  0.116178  0  0.944099  0  0  0.127624  0  1.002181  0  0  0.130658  0  1.001716  0  0  0.109494  0.125416  0  1.002745  0
H  H37  1  0.96023682  0.37663386  0.64008793  1  0  0.115383  0  0.943887  0  0  0.126237  0  1.002946  0  0  0.129248  0  1.002465  0  0  0.108657  0.124064  0  1.003473  0
H  H38  1  0.87357333  0.12236526  0.13185185  1  0  0.088728  0  0.9471  0  0  0.09547  0  1.011385  0  0  0.098332  0  1.008879  0  0  0.116771  0.093369  0  1.013245  0
H  H39  1  0.12743760  0.87743812  0.86820197  1  0  0.090333  0  0.947546  0  0  0.097318  0  1.011388  0  0  0.100201  0  1.008844  0  0  0.117941  0.095225  0  1.013236  0
H  H40  1  0.75497490  0.62239805  0.36819265  1  0  0.088799  0  0.946694  0  0  0.095813  0  1.010696  0  0  0.098586  0  1.008278  0  0  0.117227  0.09372  0  1.012569  0
H  H41  1  0.74624178  0.37746172  0.63181756  1  0  0.089165  0  0.946583  0  0  0.095739  0  1.011017  0  0  0.098549  0  1.008569  0  0  0.116828  0.093635  0  1.01287  0
H  H42  1  0.72384308  0.26434209  0.99089645  1  0  0.415632  0  0.894501  0  0  0.385056  0  0.958597  0  0  0.395561  0  0.943428  0  0  0.284851  0.377716  0  0.969174  0
H  H43  1  0.97948087  0.73549547  0.00909288  1  0  0.414725  0  0.895194  0  0  0.383745  0  0.959962  0  0  0.394249  0  0.9448  0  0  0.284257  0.376404  0  0.970535  0
H  H44  1  0.46509954  0.76442693  0.50915873  1  0  0.415032  0  0.8944  0  0  0.383833  0  0.959364  0  0  0.394332  0  0.944206  0  0  0.284687  0.376497  0  0.96993  0
H  H45  1  0.73827170  0.23565098  0.49099182  1  0  0.413341  0  0.897475  0  0  0.382911  0  0.961392  0  0  0.393419  0  0.946224  0  0  0.283881  0.375558  0  0.971981  0
H  H46  1  0.79837802  0.19537532  0.87592780  1  0  0.407983  0  0.904105  0  0  0.375483  0  0.970667  0  0  0.387436  0  0.953378  0  0  0.280651  0.367097  0  0.982764  0
H  H47  1  0.86991690  0.80434290  0.12407451  1  0  0.407567  0  0.904813  0  0  0.374928  0  0.971649  0  0  0.386875  0  0.954348  0  0  0.279665  0.366534  0  0.983778  0
H  H48  1  0.42425266  0.69567739  0.62417603  1  0  0.407309  0  0.905074  0  0  0.374885  0  0.971539  0  0  0.386834  0  0.954239  0  0  0.280359  0.366494  0  0.983649  0
H  H49  1  0.74374452  0.30460660  0.37599981  1  0  0.407447  0  0.905014  0  0  0.374979  0  0.971625  0  0  0.386956  0  0.954298  0  0  0.28  0.36658  0  0.983743  0
C  C50  1  0.45809886  0.05231937  0.55160153  1  0  -0.085183  0  3.777594  0  0  -0.059387  0  4.028522  0  0  -0.06294  0  4.052543  0  0  -0.034005  -0.057394  0  4.012786  0
C  C51  1  0.06170015  0.94777015  0.44825054  1  0  -0.083799  0  3.776942  0  0  -0.057575  0  4.027262  0  0  -0.061084  0  4.051212  0  0  -0.033022  -0.055623  0  4.011577  0
C  C52  1  0.75948309  0.55228708  0.94835964  1  0  -0.080929  0  3.778709  0  0  -0.055966  0  4.030489  0  0  -0.059509  0  4.054546  0  0  -0.031908  -0.053952  0  4.014674  0
C  C53  1  0.26045512  0.44740447  0.05175023  1  0  -0.081962  0  3.776816  0  0  -0.056604  0  4.028265  0  0  -0.060139  0  4.052287  0  0  -0.032936  -0.054638  0  4.012544  0
C  C54  1  0.49561817  0.12774021  0.59009814  1  0  -0.059587  0  3.740162  0  0  -0.082525  0  3.989768  0  0  -0.083028  0  4.00965  0  0  -0.086936  -0.082235  0  3.976551  0
C  C55  1  0.21296776  0.87271073  0.40982873  1  0  -0.064083  0  3.743446  0  0  -0.086277  0  3.993238  0  0  -0.086786  0  4.01313  0  0  -0.089899  -0.085833  0  3.979886  0
C  C56  1  0.83558205  0.62743392  0.90999521  1  0  -0.063473  0  3.744518  0  0  -0.085425  0  3.9943  0  0  -0.086003  0  4.01419  0  0  -0.088626  -0.08494  0  3.980931  0
C  C57  1  0.37324471  0.37221688  0.09039484  1  0  -0.060233  0  3.739538  0  0  -0.082657  0  3.989464  0  0  -0.083116  0  4.009321  0  0  -0.08792  -0.08239  0  3.976273  0
C  C58  1  0.39308583  0.21524660  0.67420740  1  0  -0.125923  0  3.733503  0  0  -0.146941  0  3.984125  0  0  -0.149672  0  4.002381  0  0  -0.096864  -0.144976  0  3.971948  0
C  C59  1  0.28207296  0.78528443  0.32561252  1  0  -0.127539  0  3.731464  0  0  -0.147924  0  3.982554  0  0  -0.150566  0  4.00081  0  0  -0.096629  -0.146024  0  3.970321  0
C  C60  1  0.81727152  0.71488703  0.82578304  1  0  -0.126649  0  3.733814  0  0  -0.147309  0  3.984254  0  0  -0.150003  0  4.002583  0  0  -0.096366  -0.145368  0  3.971964  0
C  C61  1  0.35822983  0.28474051  0.17453152  1  0  -0.126358  0  3.73056  0  0  -0.146828  0  3.980989  0  0  -0.149519  0  3.999338  0  0  -0.095596  -0.144906  0  3.96877  0
C  C62  1  0.25590481  0.22236492  0.72034471  1  0  0.133893  0  3.810282  0  0  0.144556  0  4.076334  0  0  0.14854  0  4.097298  0  0  0.010781  0.141666  0  4.062202  0
C  C63  1  0.19828225  0.77785195  0.27930702  1  0  0.133626  0  3.804203  0  0  0.143629  0  4.071225  0  0  0.147605  0  4.092159  0  0  0.009933  0.140675  0  4.057073  0
C  C64  1  0.72620102  0.72224349  0.77936524  1  0  0.133737  0  3.806445  0  0  0.144619  0  4.072404  0  0  0.148613  0  4.093343  0  0  0.010098  0.141654  0  4.058248  0
C  C65  1  0.22822293  0.27750377  0.22062330  1  0  0.132654  0  3.805567  0  0  0.142987  0  4.072116  0  0  0.146962  0  4.09307  0  0  0.00945  0.140104  0  4.057985  0
C  C66  1  0.21771329  0.14677216  0.68282775  1  0  -0.140986  0  3.74709  0  0  -0.160761  0  3.99598  0  0  -0.16467  0  4.016408  0  0  -0.101254  -0.158082  0  3.982373  0
C  C67  1  0.04708077  0.85301068  0.31680669  1  0  -0.135399  0  3.73905  0  0  -0.154672  0  3.98812  0  0  -0.158558  0  4.008601  0  0  -0.098074  -0.151984  0  3.974531  0
C  C68  1  0.65024022  0.64702507  0.81680080  1  0  -0.137885  0  3.741266  0  0  -0.158227  0  3.990109  0  0  -0.162058  0  4.010631  0  0  -0.100049  -0.155574  0  3.976494  0
C  C69  1  0.11452973  0.35286225  0.18294540  1  0  -0.135964  0  3.739525  0  0  -0.155843  0  3.988287  0  0  -0.159739  0  4.008734  0  0  -0.099869  -0.153169  0  3.974675  0
C  C70  1  0.32044345  0.06119985  0.59703381  1  0  -0.0631  0  3.751511  0  0  -0.083775  0  3.996587  0  0  -0.084043  0  4.016768  0  0  -0.089732  -0.08353  0  3.982916  0
C  C71  1  0.97849026  0.93852149  0.40268018  1  0  -0.064941  0  3.750118  0  0  -0.08644  0  3.995118  0  0  -0.086736  0  4.015319  0  0  -0.090909  -0.086289  0  3.981501  0
C  C72  1  0.66714818  0.56151004  0.90269001  1  0  -0.065605  0  3.750788  0  0  -0.086475  0  3.996332  0  0  -0.086818  0  4.016538  0  0  -0.091248  -0.086299  0  3.982721  0
C  C73  1  0.13177488  0.43833807  0.09708616  1  0  -0.065958  0  3.750652  0  0  -0.086768  0  3.996457  0  0  -0.087046  0  4.016635  0  0  -0.09086  -0.08651  0  3.98278  0
C  C74  1  0.60099491  0.06217182  0.34580142  1  0  -0.389726  0  3.559013  0  0  -0.42566  0  3.818438  0  0  -0.432212  0  3.820179  0  0  -0.156796  -0.421277  0  3.817234  0
C  C75  1  0.00904617  0.93765765  0.65422963  1  0  -0.388074  0  3.559796  0  0  -0.423169  0  3.817594  0  0  -0.42985  0  3.819474  0  0  -0.156405  -0.418688  0  3.816324  0
C  C76  1  0.69671174  0.56227471  0.15428479  1  0  -0.389241  0  3.559873  0  0  -0.423943  0  3.816321  0  0  -0.43061  0  3.818268  0  0  -0.156079  -0.419485  0  3.815044  0
C  C77  1  0.41313875  0.43775545  0.84584681  1  0  -0.388456  0  3.559537  0  0  -0.422372  0  3.815778  0  0  -0.429083  0  3.817683  0  0  -0.155789  -0.417879  0  3.814503  0
C  C78  1  0.70693963  0.99127731  0.24069890  1  0  0.715194  0  3.857633  0  0  0.664361  0  4.161869  0  0  0.697963  0  4.154825  0  0  0.210396  0.641626  0  4.165815  0
C  C79  1  0.93889393  0.00853865  0.75938827  1  0  0.714354  0  3.86056  0  0  0.663276  0  4.165096  0  0  0.696982  0  4.157975  0  0  0.208266  0.64054  0  4.168962  0
C  C80  1  0.69739048  0.49142623  0.25945021  1  0  0.713922  0  3.86094  0  0  0.664242  0  4.163349  0  0  0.697883  0  4.156235  0  0  0.20923  0.641494  0  4.167252  0
C  C81  1  0.44805522  0.50876211  0.74078427  1  0  0.71445  0  3.860374  0  0  0.663549  0  4.164609  0  0  0.697237  0  4.15748  0  0  0.209481  0.640752  0  4.168554  0
C  C82  1  0.57379827  0.03950196  0.91524738  1  0  0.143329  0  3.695164  0  0  0.112289  0  3.94776  0  0  0.118972  0  3.966715  0  0  0.052221  0.108003  0  3.93489  0
C  C83  1  0.52877693  0.96065867  0.08476900  1  0  0.142233  0  3.69486  0  0  0.110801  0  3.948068  0  0  0.117445  0  3.96706  0  0  0.051439  0.106541  0  3.935226  0
C  C84  1  0.23927441  0.53966720  0.58481655  1  0  0.142034  0  3.696729  0  0  0.11103  0  3.949573  0  0  0.117645  0  3.968511  0  0  0.051916  0.106766  0  3.936719  0
C  C85  1  0.36318422  0.46084635  0.41527305  1  0  0.142369  0  3.694105  0  0  0.111263  0  3.946975  0  0  0.117869  0  3.965916  0  0  0.050848  0.107005  0  3.934135  0
C  C86  1  0.45444930  0.03897429  0.91131846  1  0  -0.1615  0  3.706481  0  0  -0.179446  0  3.952549  0  0  -0.187175  0  3.974256  0  0  -0.084084  -0.174505  0  3.938114  0
C  C87  1  0.40496753  0.96131986  0.08862186  1  0  -0.160466  0  3.706678  0  0  -0.178853  0  3.953034  0  0  -0.186566  0  3.974744  0  0  -0.084333  -0.173946  0  3.938576  0
C  C88  1  0.11610448  0.53899910  0.58868884  1  0  -0.162139  0  3.708394  0  0  -0.180148  0  3.954667  0  0  -0.187871  0  3.976411  0  0  -0.085203  -0.17523  0  3.940193  0
C  C89  1  0.24334787  0.46124580  0.41138026  1  0  -0.161049  0  3.705442  0  0  -0.178865  0  3.952037  0  0  -0.186595  0  3.973813  0  0  -0.084111  -0.173918  0  3.937568  0
C  C90  1  0.36624404  0.00019545  0.99997582  1  0  0.103779  0  3.749874  0  0  0.118377  0  3.974647  0  0  0.122341  0  3.995695  0  0  0.016488  0.115921  0  3.960344  0
C  C91  1  0.11636120  0.50003526  0.50003604  1  0  0.105197  0  3.751227  0  0  0.118721  0  3.977547  0  0  0.122658  0  3.998612  0  0  0.017284  0.116294  0  3.963218  0
C  C92  1  0.23691738  0.00018293  0.99998483  1  0  0.095566  0  3.773173  0  0  0.10558  0  4.005601  0  0  0.109973  0  4.026291  0  0  0.011151  0.102921  0  3.991283  0
C  C93  1  0.98711866  0.49993599  0.49999603  1  0  0.094658  0  3.771103  0  0  0.104865  0  4.003998  0  0  0.109309  0  4.024581  0  0  0.010995  0.102168  0  3.989742  0
C  C94  1  0.10096961  0.06739340  0.07826933  1  0  -0.161199  0  3.700266  0  0  -0.181132  0  3.952691  0  0  -0.189021  0  3.974073  0  0  -0.08293  -0.1759  0  3.938093  0
C  C95  1  0.24624446  0.93280426  0.92175801  1  0  -0.158508  0  3.702298  0  0  -0.178792  0  3.95439  0  0  -0.186644  0  3.975847  0  0  -0.081603  -0.173616  0  3.939852  0
C  C96  1  0.92910946  0.56725128  0.42174449  1  0  -0.160173  0  3.69913  0  0  -0.180745  0  3.951656  0  0  -0.188651  0  3.972947  0  0  -0.082681  -0.175544  0  3.937225  0
C  C97  1  0.91857269  0.43259264  0.57823691  1  0  -0.158139  0  3.69888  0  0  -0.178035  0  3.950786  0  0  -0.185881  0  3.972185  0  0  -0.081417  -0.172847  0  3.936258  0
C  C98  1  0.98163066  0.06654567  0.07451406  1  0  0.137617  0  3.703402  0  0  0.104271  0  3.960683  0  0  0.111193  0  3.978393  0  0  0.047116  0.09983  0  3.948672  0
C  C99  1  0.12243979  0.93343783  0.92549743  1  0  0.133246  0  3.703212  0  0  0.099579  0  3.961021  0  0  0.106507  0  3.97865  0  0  0.044264  0.095106  0  3.949059  0
C  C100  1  0.80598234  0.56647881  0.42550745  1  0  0.136661  0  3.704049  0  0  0.103208  0  3.961608  0  0  0.110215  0  3.979333  0  0  0.045638  0.098723  0  3.949587  0
C  C101  1  0.79842446  0.43334309  0.57449153  1  0  0.134692  0  3.701203  0  0  0.101535  0  3.958799  0  0  0.108502  0  3.976494  0  0  0.045308  0.0971  0  3.946791  0
S  S102  1  0.59438851  0.93397633  0.44681021  1  0  0.612368  0  3.618755  0  0  0.564562  0  4.052074  0  0  0.583019  0  4.048087  0  0  0.294159  0.551641  0  4.054625  0
S  S103  1  0.97493124  0.06592782  0.55327013  1  0  0.611379  0  3.61648  0  0  0.563455  0  4.049482  0  0  0.581925  0  4.045498  0  0  0.294038  0.550542  0  4.052002  0
S  S104  1  0.79085322  0.43400970  0.05332591  1  0  0.610298  0  3.62013  0  0  0.562094  0  4.053452  0  0  0.580598  0  4.049502  0  0  0.293454  0.549158  0  4.055952  0
S  S105  1  0.27825437  0.56580737  0.94692595  1  0  0.608795  0  3.622192  0  0  0.560668  0  4.055352  0  0  0.579184  0  4.051437  0  0  0.292367  0.547701  0  4.057855  0
N  N106  1  0.61164477  0.00004046  0.00002743  1  0  -0.308952  0  3.257636  0  0  -0.230987  0  3.519891  0  0  -0.249977  0  3.538749  0  0  -0.316113  -0.218064  0  3.506832  0
N  N107  1  0.36153572  0.50028533  0.50006836  1  0  -0.307081  0  3.257728  0  0  -0.22916  0  3.519817  0  0  -0.24816  0  3.538756  0  0  -0.314577  -0.216222  0  3.506723  0
N  N108  1  0.99150659  0.99993110  0.00001696  1  0  -0.338901  0  3.260772  0  0  -0.260954  0  3.523169  0  0  -0.27905  0  3.5396  0  0  -0.319419  -0.24872  0  3.511969  0
N  N109  1  0.74162824  0.49993869  0.50001192  1  0  -0.338647  0  3.259018  0  0  -0.26091  0  3.521192  0  0  -0.278983  0  3.537557  0  0  -0.318925  -0.248668  0  3.509973  0
Cl  Cl110  1  0.13029232  0.32752605  0.82788850  1  0  -0.10761  0  1.367501  0  0  -0.091327  0  1.602263  0  0  -0.096018  0  1.599986  0  0  0.003619  -0.087859  0  1.603906  0
Cl  Cl111  1  0.28537531  0.67292682  0.17158516  1  0  -0.107893  0  1.368741  0  0  -0.091464  0  1.604033  0  0  -0.096174  0  1.601755  0  0  0.003639  -0.087896  0  1.605601  0
Cl  Cl112  1  0.70840444  0.82716035  0.67161599  1  0  -0.107952  0  1.368727  0  0  -0.09184  0  1.603749  0  0  -0.096544  0  1.601476  0  0  0.003564  -0.088275  0  1.605321  0
Cl  Cl113  1  0.20771428  0.17244223  0.32821282  1  0  -0.1077  0  1.368227  0  0  -0.09133  0  1.603247  0  0  -0.096031  0  1.600973  0  0  0.003834  -0.087859  0  1.604901  0
O  O114  1  0.52197976  0.86859944  0.42282701  1  0  -0.607882  0  1.935139  0  0  -0.549537  0  2.185323  0  0  -0.570326  0  2.176486  0  0  -0.344963  -0.534879  0  2.190827  0
O  O115  1  0.81332722  0.13116030  0.57707599  1  0  -0.606043  0  1.933236  0  0  -0.548495  0  2.183868  0  0  -0.569276  0  2.175068  0  0  -0.344232  -0.533833  0  2.189378  0
O  O116  1  0.69442527  0.36886776  0.07706063  1  0  -0.605911  0  1.936167  0  0  -0.547643  0  2.186306  0  0  -0.568471  0  2.177541  0  0  -0.344123  -0.532992  0  2.19182  0
O  O117  1  0.14046408  0.63105254  0.92294311  1  0  -0.605454  0  1.938083  0  0  -0.547334  0  2.188504  0  0  -0.568185  0  2.179763  0  0  -0.343448  -0.53263  0  2.193937  0
O  O118  1  0.80635929  0.86999951  0.24080271  1  0  -0.626783  0  1.941701  0  0  -0.569565  0  2.157148  0  0  -0.593667  0  2.146989  0  0  -0.319134  -0.552694  0  2.163585  0
O  O119  1  0.91777886  0.12953062  0.75948150  1  0  -0.625179  0  1.940793  0  0  -0.568271  0  2.156101  0  0  -0.592357  0  2.14595  0  0  -0.317503  -0.551383  0  2.162451  0
O  O120  1  0.79717228  0.37035511  0.25956278  1  0  -0.625581  0  1.941573  0  0  -0.569034  0  2.156187  0  0  -0.593136  0  2.146053  0  0  -0.317625  -0.552132  0  2.162556  0
O  O121  1  0.42614375  0.63002223  0.74096346  1  0  -0.625146  0  1.941514  0  0  -0.568776  0  2.157419  0  0  -0.592841  0  2.147226  0  0  -0.318887  -0.551903  0  2.163858  0
O  O122  1  0.68359861  0.06376920  0.16164820  1  0  -0.633097  0  2.015699  0  0  -0.563273  0  2.265012  0  0  -0.591252  0  2.254228  0  0  -0.311216  -0.543526  0  2.27135  0
O  O123  1  0.90807434  0.93645063  0.83832079  1  0  -0.633759  0  2.018153  0  0  -0.563311  0  2.266499  0  0  -0.591633  0  2.256013  0  0  -0.310521  -0.543675  0  2.273019  0
O  O124  1  0.59460576  0.56365746  0.33835608  1  0  -0.633047  0  2.016432  0  0  -0.564002  0  2.265162  0  0  -0.592134  0  2.254624  0  0  -0.311727  -0.544282  0  2.271524  0
O  O125  1  0.49715258  0.43636475  0.66171138  1  0  -0.633525  0  2.017159  0  0  -0.563769  0  2.266277  0  0  -0.592061  0  2.255888  0  0  -0.310437  -0.543941  0  2.272609  0
O  O126  1  0.71996671  0.20868087  0.94663091  1  0  -0.839572  0  1.924502  0  0  -0.781483  0  2.128324  0  0  -0.804335  0  2.095009  0  0  -0.583802  -0.765445  0  2.151134  0
O  O127  1  0.87576600  0.79105570  0.05317565  1  0  -0.838507  0  1.925229  0  0  -0.77995  0  2.12928  0  0  -0.802814  0  2.096099  0  0  -0.58266  -0.763915  0  2.152015  0
O  O128  1  0.41683335  0.70895647  0.55325902  1  0  -0.83856  0  1.924562  0  0  -0.779946  0  2.129187  0  0  -0.802778  0  2.095996  0  0  -0.583924  -0.763977  0  2.152062  0
O  O129  1  0.67868518  0.29131209  0.44673310  1  0  -0.83724  0  1.926741  0  0  -0.779116  0  2.12974  0  0  -0.802016  0  2.096524  0  0  -0.582908  -0.763075  0  2.152588  0
