# generated using pymatgen
data_CuH15C10S2N5Cl
_symmetry_space_group_name_H-M   'P 1'
_cell_length_a   10.08664490
_cell_length_b   10.50281557
_cell_length_c   13.43500000
_cell_angle_alpha   90.00000000
_cell_angle_beta   103.11561748
_cell_angle_gamma   90.00000000
_symmetry_Int_Tables_number   1
_chemical_formula_structural   CuH15C10S2N5Cl
_chemical_formula_sum   'Cu4 H60 C40 S8 N20 Cl4'
_cell_volume   1386.15187859
_cell_formula_units_Z   4
loop_
 _symmetry_equiv_pos_site_id
 _symmetry_equiv_pos_as_xyz
  1  'x, y, z'
loop_
 _atom_site_type_symbol
 _atom_site_label
 _atom_site_symmetry_multiplicity
 _atom_site_fract_x
 _atom_site_fract_y
 _atom_site_fract_z
 _atom_site_occupancy
 _atom_site_hle17_bader_spin_density
 _atom_site_hle17_ddec_charge
 _atom_site_hle17_ddec_spin_density
 _atom_site_hle17_ddec_sum_bond_order
 _atom_site_hle17_magmom
 _atom_site_hse06_10hf_bader_spin_density
 _atom_site_hse06_10hf_ddec_charge
 _atom_site_hse06_10hf_ddec_spin_density
 _atom_site_hse06_10hf_ddec_sum_bond_order
 _atom_site_hse06_10hf_magmom
 _atom_site_hse06_bader_spin_density
 _atom_site_hse06_ddec_charge
 _atom_site_hse06_ddec_spin_density
 _atom_site_hse06_ddec_sum_bond_order
 _atom_site_hse06_magmom
 _atom_site_pbe_bader_charge
 _atom_site_pbe_bader_spin_density
 _atom_site_pbe_cm5_charge
 _atom_site_pbe_ddec_charge
 _atom_site_pbe_ddec_spin_density
 _atom_site_pbe_ddec_sum_bond_order
 _atom_site_pbe_magmom
Cu  Cu0  1  0.76752175  0.18474189  0.13875817  1  0  0.241894  0  2.207663  0  0  0.147249  0  2.717824  0  0  0.148048  0  2.675108  0  0.538476  0  0.360213  0.148162  0  2.745698  0
Cu  Cu1  1  0.23247864  0.68474115  0.36124331  1  0  0.241915  0  2.207674  0  0  0.147279  0  2.717832  0  0  0.148098  0  2.675133  0  0.538439  0  0.360236  0.1482  0  2.745706  0
Cu  Cu2  1  0.23247355  0.81525663  0.86124319  1  0  0.24191  0  2.207722  0  0  0.147278  0  2.717877  0  0  0.148104  0  2.675191  0  0.538507  0  0.36025  0.148197  0  2.745758  0
Cu  Cu3  1  0.76752582  0.31525737  0.63875589  1  0  0.241913  0  2.207768  0  0  0.147287  0  2.717931  0  0  0.148082  0  2.675209  0  0.538457  0  0.360243  0.148194  0  2.745804  0
H  H4  1  0.63395057  0.90757283  0.43505355  1  0  0.051572  0  0.947062  0  0  0.055098  0  1.02229  0  0  0.057234  0  1.019317  0  0.084306  0  0.109595  0.053449  0  1.02447  0
H  H5  1  0.36605084  0.40757261  0.06494662  1  0  0.051548  0  0.947098  0  0  0.055108  0  1.022285  0  0  0.057224  0  1.019329  0  0.084313  0  0.109594  0.053458  0  1.024464  0
H  H6  1  0.36604880  0.09242664  0.56494701  1  0  0.051562  0  0.947058  0  0  0.055088  0  1.022286  0  0  0.057226  0  1.01931  0  0.084298  0  0.109578  0.053438  0  1.024465  0
H  H7  1  0.63395158  0.59242686  0.93505447  1  0  0.051601  0  0.947036  0  0  0.05513  0  1.022264  0  0  0.057261  0  1.019294  0  0.084293  0  0.109604  0.053479  0  1.024443  0
H  H8  1  0.67903723  0.71373242  0.74337329  1  0  0.32297  0  0.91614  0  0  0.299215  0  0.993679  0  0  0.307699  0  0.986364  0  0.491181  0  0.294783  0.292895  0  0.999354  0
H  H9  1  0.32096316  0.21373316  0.75662819  1  0  0.322936  0  0.916165  0  0  0.299194  0  0.993688  0  0  0.30768  0  0.98637  0  0.490769  0  0.294763  0.292875  0  0.999362  0
H  H10  1  0.32096112  0.28626514  0.25662785  1  0  0.322923  0  0.916138  0  0  0.299172  0  0.993674  0  0  0.307656  0  0.986359  0  0.49077  0  0.294744  0.292853  0  0.999347  0
H  H11  1  0.67903926  0.78626631  0.24337289  1  0  0.322932  0  0.916065  0  0  0.299175  0  0.993602  0  0  0.307657  0  0.986293  0  0.490802  0  0.294784  0.292854  0  0.999274  0
H  H12  1  0.70129400  0.55130645  0.72213711  1  0  0.317018  0  0.946636  0  0  0.296572  0  1.018382  0  0  0.304692  0  1.011743  0  0.50043  0  0.272153  0.290681  0  1.023295  0
H  H13  1  0.29870537  0.05130624  0.77786197  1  0  0.31701  0  0.94664  0  0  0.296562  0  1.01839  0  0  0.304683  0  1.01175  0  0.50043  0  0.272145  0.290671  0  1.023302  0
H  H14  1  0.29870638  0.44869302  0.27786437  1  0  0.317019  0  0.946647  0  0  0.296583  0  1.018369  0  0  0.304704  0  1.011733  0  0.500482  0  0.272169  0.290692  0  1.023281  0
H  H15  1  0.70129502  0.94869418  0.22213654  1  0  0.316947  0  0.946661  0  0  0.296504  0  1.018397  0  0  0.304626  0  1.011762  0  0.500484  0  0.272162  0.290611  0  1.023314  0
H  H16  1  0.64269590  0.29309664  0.40744481  1  0  0.101197  0  0.960198  0  0  0.10828  0  1.027822  0  0  0.111418  0  1.024151  0  0.161954  0  0.123223  0.106095  0  1.030207  0
H  H17  1  0.35730652  0.79309495  0.09255553  1  0  0.101176  0  0.960169  0  0  0.108248  0  1.027807  0  0  0.111386  0  1.024135  0  0.161928  0  0.123194  0.106064  0  1.030191  0
H  H18  1  0.35730347  0.70690092  0.59255724  1  0  0.10114  0  0.960255  0  0  0.108248  0  1.027857  0  0  0.111386  0  1.024186  0  0.16197  0  0.123208  0.106064  0  1.03024  0
H  H19  1  0.64269692  0.20690261  0.90744275  1  0  0.101202  0  0.960211  0  0  0.108284  0  1.027834  0  0  0.111422  0  1.024165  0  0.161961  0  0.123238  0.106099  0  1.030218  0
H  H20  1  0.53833928  0.54907372  0.21327998  1  0  0.095595  0  0.919432  0  0  0.105335  0  0.988048  0  0  0.107237  0  0.986367  0  0.10164  0  0.108421  0.103834  0  0.989493  0
H  H21  1  0.46166213  0.04907256  0.28671944  1  0  0.095542  0  0.919396  0  0  0.105272  0  0.988032  0  0  0.107176  0  0.986351  0  0.101649  0  0.108402  0.103771  0  0.989477  0
H  H22  1  0.46166213  0.45092480  0.78672167  1  0  0.095596  0  0.91938  0  0  0.105329  0  0.988001  0  0  0.107232  0  0.986319  0  0.101619  0  0.10844  0.103828  0  0.989446  0
H  H23  1  0.53833928  0.95092501  0.71327775  1  0  0.095597  0  0.919396  0  0  0.105322  0  0.988023  0  0  0.107228  0  0.986338  0  0.101636  0  0.108428  0.103821  0  0.989467  0
H  H24  1  0.55071772  0.38109114  0.23332331  1  0  0.085255  0  0.938855  0  0  0.096435  0  1.009798  0  0  0.097581  0  1.009289  0  0.081576  0  0.109804  0.095445  0  1.010448  0
H  H25  1  0.44928266  0.88109040  0.26667668  1  0  0.08524  0  0.938902  0  0  0.096409  0  1.009847  0  0  0.097559  0  1.009336  0  0.081554  0  0.109791  0.09542  0  1.010499  0
H  H26  1  0.44928266  0.61890833  0.76667817  1  0  0.085256  0  0.938882  0  0  0.096431  0  1.009823  0  0  0.09758  0  1.009312  0  0.081567  0  0.109823  0.095442  0  1.010473  0
H  H27  1  0.55071772  0.11890811  0.73332108  1  0  0.085254  0  0.938866  0  0  0.096409  0  1.009833  0  0  0.097557  0  1.009323  0  0.081569  0  0.109815  0.095419  0  1.010484  0
H  H28  1  0.81364979  0.41399661  0.28030631  1  0  0.08496  0  0.954629  0  0  0.09782  0  1.022374  0  0  0.099234  0  1.022088  0  0.02615  0  0.090361  0.09671  0  1.022771  0
H  H29  1  0.18634958  0.91399777  0.21969277  1  0  0.08493  0  0.954622  0  0  0.097794  0  1.022355  0  0  0.099207  0  1.022069  0  0.026152  0  0.09034  0.096684  0  1.022753  0
H  H30  1  0.18634958  0.58600001  0.71969277  1  0  0.084975  0  0.954605  0  0  0.097835  0  1.022338  0  0  0.099249  0  1.022055  0  0.026164  0  0.090359  0.096723  0  1.022739  0
H  H31  1  0.81364979  0.08600170  0.78030780  1  0  0.085035  0  0.954502  0  0  0.09785  0  1.022293  0  0  0.099263  0  1.022006  0  0.026148  0  0.090373  0.096761  0  1.022669  0
H  H32  1  0.78078786  0.56706508  0.21941123  1  0  0.09166  0  0.97166  0  0  0.098061  0  1.050087  0  0  0.099971  0  1.049606  0  0.095861  0  0.091065  0.096546  0  1.050755  0
H  H33  1  0.21921354  0.06706487  0.28059042  1  0  0.091636  0  0.971652  0  0  0.098036  0  1.050081  0  0  0.099946  0  1.049597  0  0.095833  0  0.091055  0.096521  0  1.050748  0
H  H34  1  0.21921354  0.43293343  0.78059117  1  0  0.091627  0  0.971688  0  0  0.098033  0  1.050113  0  0  0.099941  0  1.049634  0  0.095845  0  0.091043  0.096517  0  1.05078  0
H  H35  1  0.78078786  0.93293460  0.71940900  1  0  0.091646  0  0.971691  0  0  0.098057  0  1.050093  0  0  0.099967  0  1.049608  0  0.095855  0  0.091053  0.096541  0  1.050763  0
H  H36  1  0.87577921  0.42797095  0.99302038  1  0  0.096932  0  0.968693  0  0  0.112686  0  1.030214  0  0  0.113452  0  1.03146  0  0.077992  0  0.089986  0.11205  0  1.02949  0
H  H37  1  0.12422220  0.92797117  0.50697978  1  0  0.096926  0  0.968686  0  0  0.112683  0  1.030204  0  0  0.113453  0  1.031445  0  0.077994  0  0.089996  0.112051  0  1.029475  0
H  H38  1  0.12422118  0.57203042  0.00698035  1  0  0.096942  0  0.968663  0  0  0.112703  0  1.030171  0  0  0.11347  0  1.031415  0  0.078049  0  0.08999  0.112069  0  1.029446  0
H  H39  1  0.87578023  0.07203021  0.49301981  1  0  0.096929  0  0.968684  0  0  0.11268  0  1.030208  0  0  0.113447  0  1.031451  0  0.078048  0  0.08998  0.112047  0  1.029479  0
H  H40  1  0.89678185  0.54725802  0.08939489  1  0  0.106984  0  0.923139  0  0  0.126157  0  0.977596  0  0  0.126917  0  0.978551  0  0.063289  0  0.103029  0.12556  0  0.977092  0
H  H41  1  0.10321955  0.04726066  0.41060528  1  0  0.106989  0  0.923107  0  0  0.126141  0  0.977595  0  0  0.1269  0  0.978552  0  0.063259  0  0.103026  0.125545  0  0.977089  0
H  H42  1  0.10321955  0.45274241  0.91060528  1  0  0.107009  0  0.923128  0  0  0.126163  0  0.977602  0  0  0.126921  0  0.97856  0  0.063303  0  0.103033  0.125565  0  0.977099  0
H  H43  1  0.89678185  0.95274262  0.58939489  1  0  0.106995  0  0.923139  0  0  0.126165  0  0.977596  0  0  0.126925  0  0.978548  0  0.063294  0  0.103034  0.125568  0  0.977089  0
H  H44  1  0.01962534  0.39338118  0.22110302  1  0  0.10032  0  0.925565  0  0  0.120288  0  0.979612  0  0  0.12132  0  0.979724  0  0.081358  0  0.100719  0.119353  0  0.979874  0
H  H45  1  0.98037505  0.89338139  0.27889772  1  0  0.100321  0  0.925491  0  0  0.120294  0  0.979533  0  0  0.121326  0  0.979641  0  0.081373  0  0.100701  0.119358  0  0.979793  0
H  H46  1  0.98037505  0.60661829  0.77889623  1  0  0.100318  0  0.925572  0  0  0.120283  0  0.979612  0  0  0.121314  0  0.979724  0  0.081349  0  0.100713  0.119348  0  0.979874  0
H  H47  1  0.01962635  0.10661903  0.72110319  1  0  0.100319  0  0.925564  0  0  0.120293  0  0.979601  0  0  0.121327  0  0.979708  0  0.081359  0  0.100706  0.119357  0  0.979864  0
H  H48  1  0.10183207  0.40365747  0.11888621  1  0  0.098097  0  0.947363  0  0  0.113534  0  1.009826  0  0  0.114015  0  1.011313  0  0.068845  0  0.09487  0.11295  0  1.009039  0
H  H49  1  0.89817035  0.90365483  0.38111413  1  0  0.098056  0  0.947467  0  0  0.113522  0  1.009881  0  0  0.114004  0  1.011366  0  0.068868  0  0.094859  0.112939  0  1.00909  0
H  H50  1  0.89816832  0.59634676  0.88111230  1  0  0.098129  0  0.947377  0  0  0.113518  0  1.009887  0  0  0.113999  0  1.011374  0  0.068873  0  0.094868  0.112936  0  1.0091  0
H  H51  1  0.10183207  0.09634845  0.61888695  1  0  0.098102  0  0.947401  0  0  0.113528  0  1.009868  0  0  0.114011  0  1.011354  0  0.068855  0  0.094876  0.112946  0  1.009079  0
H  H52  1  0.91647539  0.24247593  0.94546896  1  0  0.121984  0  0.994816  0  0  0.13684  0  1.062849  0  0  0.138756  0  1.062471  0  0.101219  0  0.081974  0.135182  0  1.063591  0
H  H53  1  0.08352500  0.74247519  0.55453103  1  0  0.122019  0  0.994781  0  0  0.136893  0  1.062797  0  0  0.138812  0  1.062414  0  0.101186  0  0.081987  0.135236  0  1.063536  0
H  H54  1  0.08352500  0.75752449  0.05453029  1  0  0.122008  0  0.994797  0  0  0.136876  0  1.062811  0  0  0.138793  0  1.062431  0  0.101185  0  0.081978  0.135219  0  1.063552  0
H  H55  1  0.91647437  0.25752428  0.44547027  1  0  0.122045  0  0.994801  0  0  0.136915  0  1.062802  0  0  0.138831  0  1.062421  0  0.101183  0  0.081986  0.135257  0  1.063542  0
H  H56  1  0.97467038  0.08438785  0.97431290  1  0  0.118707  0  0.966024  0  0  0.141977  0  1.01937  0  0  0.142975  0  1.019997  0  0.046842  0  0.092108  0.141066  0  1.019311  0
H  H57  1  0.02533001  0.58438711  0.52568709  1  0  0.118729  0  0.966068  0  0  0.141999  0  1.019404  0  0  0.142997  0  1.020032  0  0.04708  0  0.092115  0.141089  0  1.019345  0
H  H58  1  0.02533001  0.91561353  0.02568635  1  0  0.11866  0  0.966022  0  0  0.141924  0  1.019378  0  0  0.142922  0  1.020006  0  0.046631  0  0.092083  0.141014  0  1.019319  0
H  H59  1  0.97466936  0.41561427  0.47431347  1  0  0.118715  0  0.96606  0  0  0.141983  0  1.019401  0  0  0.142981  0  1.020029  0  0.046865  0  0.0921  0.141073  0  1.01934  0
H  H60  1  0.09623530  0.20988848  0.98311397  1  0  0.117869  0  0.978196  0  0  0.13598  0  1.039691  0  0  0.136307  0  1.042462  0  0.070183  0  0.088762  0.135561  0  1.037933  0
H  H61  1  0.90376509  0.70988774  0.51688454  1  0  0.117884  0  0.978246  0  0  0.13599  0  1.039734  0  0  0.136318  0  1.042505  0  0.070203  0  0.088759  0.135571  0  1.037974  0
H  H62  1  0.90376509  0.79011194  0.01688230  1  0  0.117888  0  0.978233  0  0  0.135973  0  1.039747  0  0  0.136302  0  1.042516  0  0.070228  0  0.088756  0.135554  0  1.037989  0
H  H63  1  0.09623530  0.29011268  0.48311769  1  0  0.117898  0  0.978242  0  0  0.136  0  1.039738  0  0  0.136327  0  1.042507  0  0.070215  0  0.088768  0.13558  0  1.03798  0
C  C64  1  0.64088189  0.80722640  0.45757045  1  0  0.286523  0  3.801519  0  0  0.238886  0  4.096919  0  0  0.256333  0  4.105922  0  1.08937  0  0.153406  0.226757  0  4.091166  0
C  C65  1  0.35911443  0.30722619  0.04242884  1  0  0.286549  0  3.801577  0  0  0.238886  0  4.09698  0  0  0.256352  0  4.105988  0  1.089413  0  0.15344  0.226758  0  4.091224  0
C  C66  1  0.35911952  0.19277307  0.54242971  1  0  0.286555  0  3.80154  0  0  0.238913  0  4.096938  0  0  0.256358  0  4.105943  0  1.089353  0  0.153487  0.226785  0  4.091184  0
C  C67  1  0.64087985  0.69277138  0.95757234  1  0  0.286545  0  3.801528  0  0  0.238899  0  4.096932  0  0  0.256351  0  4.10594  0  1.089389  0  0.153452  0.226772  0  4.091175  0
C  C68  1  0.63876757  0.60186528  0.41722812  1  0  0.289452  0  3.829498  0  0  0.253657  0  4.097589  0  0  0.268385  0  4.114471  0  0.984592  0  0.214446  0.244349  0  4.084942  0
C  C69  1  0.36122976  0.10186316  0.08277135  1  0  0.289467  0  3.82953  0  0  0.253696  0  4.09762  0  0  0.268425  0  4.114502  0  0.984125  0  0.214436  0.244393  0  4.084975  0
C  C70  1  0.36123383  0.39813324  0.58277205  1  0  0.289443  0  3.829696  0  0  0.253692  0  4.097768  0  0  0.268422  0  4.114652  0  0.984118  0  0.214453  0.244377  0  4.085115  0
C  C71  1  0.63876554  0.89813726  0.91722703  1  0  0.289475  0  3.829622  0  0  0.253731  0  4.097658  0  0  0.26846  0  4.114541  0  0.984095  0  0.214503  0.244418  0  4.085009  0
C  C72  1  0.66715860  0.56558453  0.52054201  1  0  -0.069172  0  3.794035  0  0  -0.061479  0  4.038481  0  0  -0.06976  0  4.061064  0  0.386441  0  0.069846  -0.056687  0  4.024114  0
C  C73  1  0.33283771  0.06558241  0.97945952  1  0  -0.069119  0  3.793785  0  0  -0.061504  0  4.038303  0  0  -0.069785  0  4.060885  0  0.386437  0  0.069869  -0.056733  0  4.023968  0
C  C74  1  0.33284789  0.43442065  0.47945902  1  0  -0.069063  0  3.793698  0  0  -0.061445  0  4.038203  0  0  -0.069729  0  4.060783  0  0.386539  0  0.069887  -0.056622  0  4.023786  0
C  C75  1  0.66715046  0.93442086  0.02053616  1  0  -0.06914  0  3.793901  0  0  -0.061476  0  4.038346  0  0  -0.069756  0  4.06093  0  0.386436  0  0.06988  -0.056664  0  4.023941  0
C  C76  1  0.67433321  0.66427997  0.59365042  1  0  0.449506  0  3.880082  0  0  0.418907  0  4.144379  0  0  0.441016  0  4.15485  0  1.092178  0  0.233615  0.404169  0  4.1369  0
C  C77  1  0.32566717  0.16427881  0.90634957  1  0  0.449515  0  3.880059  0  0  0.418933  0  4.144349  0  0  0.44105  0  4.154808  0  1.09224  0  0.233636  0.4042  0  4.136871  0
C  C78  1  0.32567226  0.33571950  0.40634969  1  0  0.449442  0  3.880093  0  0  0.418892  0  4.144336  0  0  0.441011  0  4.154794  0  1.092186  0  0.233638  0.404148  0  4.13685  0
C  C79  1  0.67432914  0.83572162  0.09365419  1  0  0.449376  0  3.880311  0  0  0.418818  0  4.144539  0  0  0.440927  0  4.155014  0  1.092357  0  0.233661  0.40408  0  4.137047  0
C  C80  1  0.64551566  0.39208439  0.43178228  1  0  0.18774  0  3.618243  0  0  0.126304  0  3.89139  0  0  0.141573  0  3.900724  0  0.982969  0  0.146846  0.116652  0  3.884575  0
C  C81  1  0.35448371  0.89208269  0.06821828  1  0  0.187808  0  3.618213  0  0  0.126368  0  3.891364  0  0  0.141641  0  3.900696  0  0.982947  0  0.146871  0.116717  0  3.884546  0
C  C82  1  0.35448676  0.60791508  0.56821806  1  0  0.187808  0  3.618239  0  0  0.126353  0  3.89138  0  0  0.141625  0  3.900709  0  0.982952  0  0.146887  0.116701  0  3.884568  0
C  C83  1  0.64551362  0.10791392  0.93178119  1  0  0.187688  0  3.618363  0  0  0.126281  0  3.891504  0  0  0.141551  0  3.900834  0  0.98316  0  0.146863  0.11663  0  3.884688  0
C  C84  1  0.60374044  0.47230668  0.25240555  1  0  0.016736  0  3.618582  0  0  -0.041974  0  3.869334  0  0  -0.037796  0  3.880122  0  0.318475  0  -0.054519  -0.044803  0  3.862317  0
C  C85  1  0.39625995  0.97230499  0.24759444  1  0  0.01682  0  3.618662  0  0  -0.041846  0  3.869338  0  0  -0.037682  0  3.880139  0  0.318473  0  -0.054463  -0.044677  0  3.862323  0
C  C86  1  0.39626097  0.52769279  0.74759610  1  0  0.016747  0  3.618571  0  0  -0.041932  0  3.869271  0  0  -0.037756  0  3.880057  0  0.31847  0  -0.054543  -0.044763  0  3.862255  0
C  C87  1  0.60373942  0.02769353  0.75240389  1  0  0.016681  0  3.618582  0  0  -0.041945  0  3.869242  0  0  -0.037776  0  3.880028  0  0.31844  0  -0.054534  -0.044776  0  3.862231  0
C  C88  1  0.74150461  0.47031198  0.22371323  1  0  -0.173894  0  3.654498  0  0  -0.213686  0  3.921167  0  0  -0.215116  0  3.932228  0  -0.099495  0  -0.157296  -0.212436  0  3.913321  0
C  C89  1  0.25849577  0.97031219  0.27628676  1  0  -0.17382  0  3.654448  0  0  -0.213602  0  3.921084  0  0  -0.215038  0  3.932179  0  -0.09946  0  -0.157254  -0.21235  0  3.913235  0
C  C90  1  0.25849476  0.52968654  0.77628733  1  0  -0.173881  0  3.654469  0  0  -0.213667  0  3.921101  0  0  -0.215106  0  3.932186  0  -0.099424  0  -0.157273  -0.212416  0  3.913258  0
C  C91  1  0.74150563  0.02968823  0.72371266  1  0  -0.173928  0  3.654462  0  0  -0.213676  0  3.921095  0  0  -0.215133  0  3.932235  0  -0.099425  0  -0.15729  -0.212442  0  3.913245  0
C  C92  1  0.88577460  0.44423326  0.07517801  1  0  -0.152794  0  3.647852  0  0  -0.188081  0  3.904831  0  0  -0.189231  0  3.918086  0  -0.100651  0  -0.155817  -0.187053  0  3.895546  0
C  C93  1  0.11422579  0.94423347  0.42482198  1  0  -0.152776  0  3.647867  0  0  -0.188074  0  3.904892  0  0  -0.189224  0  3.918137  0  -0.100632  0  -0.155814  -0.187049  0  3.895598  0
C  C94  1  0.11422477  0.55576811  0.92482255  1  0  -0.152828  0  3.647941  0  0  -0.188106  0  3.904903  0  0  -0.189256  0  3.918159  0  -0.100764  0  -0.155827  -0.187078  0  3.895621  0
C  C95  1  0.88577562  0.05576695  0.57517744  1  0  -0.1528  0  3.647892  0  0  -0.188093  0  3.904883  0  0  -0.189241  0  3.918132  0  -0.100757  0  -0.155832  -0.187066  0  3.895592  0
C  C96  1  0.00723874  0.37321992  0.13935082  1  0  -0.14507  0  3.668975  0  0  -0.181617  0  3.930359  0  0  -0.182145  0  3.942877  0  -0.13022  0  -0.156375  -0.180985  0  3.921891  0
C  C97  1  0.99276266  0.87322013  0.36065009  1  0  -0.145052  0  3.669001  0  0  -0.181624  0  3.930394  0  0  -0.182164  0  3.942949  0  -0.130244  0  -0.156361  -0.181014  0  3.921987  0
C  C98  1  0.99276164  0.62677955  0.86064917  1  0  -0.145124  0  3.669067  0  0  -0.181632  0  3.930442  0  0  -0.182148  0  3.942933  0  -0.130266  0  -0.156389  -0.180991  0  3.921951  0
C  C99  1  0.00723874  0.12678029  0.63935082  1  0  -0.145116  0  3.669055  0  0  -0.181652  0  3.930417  0  0  -0.182179  0  3.94293  0  -0.130259  0  -0.156385  -0.181029  0  3.921978  0
C  C100  1  0.99548368  0.18443911  0.99479136  1  0  -0.330131  0  3.621561  0  0  -0.398432  0  3.867924  0  0  -0.400851  0  3.876321  0  -0.191708  0  -0.239681  -0.396449  0  3.862512  0
C  C101  1  0.00451671  0.68443742  0.50520789  1  0  -0.330244  0  3.621704  0  0  -0.398569  0  3.868071  0  0  -0.400985  0  3.876463  0  -0.191919  0  -0.239717  -0.396582  0  3.862656  0
C  C102  1  0.00451671  0.81556226  0.00520714  1  0  -0.330158  0  3.621622  0  0  -0.398456  0  3.86799  0  0  -0.400876  0  3.87639  0  -0.191694  0  -0.239672  -0.396473  0  3.862579  0
C  C103  1  0.99548266  0.31556300  0.49479267  1  0  -0.330272  0  3.621721  0  0  -0.39858  0  3.868055  0  0  -0.400997  0  3.876452  0  -0.191909  0  -0.239712  -0.396595  0  3.862643  0
S  S104  1  0.72316191  0.39652605  0.09928425  1  0  0.055328  0  2.684099  0  0  0.078093  0  3.102836  0  0  0.078931  0  3.091988  0  0.02009  0  -0.022088  0.076887  0  3.109914  0
S  S105  1  0.27683847  0.89652722  0.40071574  1  0  0.055317  0  2.684054  0  0  0.078068  0  3.1028  0  0  0.078906  0  3.091957  0  0.02008  0  -0.022096  0.076866  0  3.109874  0
S  S106  1  0.27683542  0.60347056  0.90071671  1  0  0.055341  0  2.684125  0  0  0.078084  0  3.102854  0  0  0.078916  0  3.09202  0  0.020049  0  -0.02208  0.076876  0  3.109933  0
S  S107  1  0.72316395  0.10347130  0.59928386  1  0  0.055324  0  2.684168  0  0  0.078071  0  3.102895  0  0  0.078917  0  3.092045  0  0.020059  0  -0.022083  0.076869  0  3.109977  0
S  S108  1  0.99276571  0.20139647  0.12851440  1  0  0.061956  0  2.68788  0  0  0.08501  0  3.106991  0  0  0.087638  0  3.094304  0  0.022229  0  -0.039908  0.082506  0  3.115639  0
S  S109  1  0.00723366  0.70139668  0.37148542  1  0  0.061991  0  2.687879  0  0  0.085037  0  3.107007  0  0  0.087658  0  3.094331  0  0.02222  0  -0.039902  0.082532  0  3.115658  0
S  S110  1  0.00723162  0.79860205  0.87148358  1  0  0.061983  0  2.688006  0  0  0.085026  0  3.107105  0  0  0.087645  0  3.09443  0  0.022191  0  -0.039904  0.082518  0  3.115757  0
S  S111  1  0.99276775  0.29860183  0.62851698  1  0  0.061997  0  2.688017  0  0  0.085039  0  3.107141  0  0  0.087671  0  3.09445  0  0.022179  0  -0.039908  0.082538  0  3.115789  0
N  N112  1  0.66108746  0.78589688  0.55832647  1  0  -0.481687  0  3.02882  0  0  -0.441131  0  3.305358  0  0  -0.461203  0  3.316841  0  -1.231983  0  -0.344921  -0.427783  0  3.297692  0
N  N113  1  0.33891191  0.28589477  0.94167558  1  0  -0.481654  0  3.028879  0  0  -0.441094  0  3.305418  0  0  -0.461168  0  3.316893  0  -1.231976  0  -0.344928  -0.427744  0  3.297749  0
N  N114  1  0.33891394  0.21410164  0.44167593  1  0  -0.481735  0  3.028925  0  0  -0.441181  0  3.305443  0  0  -0.461256  0  3.316926  0  -1.231953  0  -0.345005  -0.427834  0  3.297779  0
N  N115  1  0.66108644  0.71410375  0.05832258  1  0  -0.481723  0  3.028851  0  0  -0.441178  0  3.305382  0  0  -0.46125  0  3.316866  0  -1.23196  0  -0.345022  -0.42783  0  3.297716  0
N  N116  1  0.62797104  0.72185120  0.38128309  1  0  -0.453139  0  3.056455  0  0  -0.416657  0  3.343444  0  0  -0.432475  0  3.351604  0  -1.250262  0  -0.338864  -0.404858  0  3.336336  0
N  N117  1  0.37202731  0.22184908  0.11871730  1  0  -0.453133  0  3.056362  0  0  -0.416665  0  3.343374  0  0  -0.432475  0  3.351502  0  -1.250202  0  -0.338875  -0.404864  0  3.336263  0
N  N118  1  0.37203036  0.27815208  0.61871633  1  0  -0.453115  0  3.056589  0  0  -0.416645  0  3.343582  0  0  -0.432463  0  3.351733  0  -1.250271  0  -0.338911  -0.404848  0  3.336476  0
N  N119  1  0.62796901  0.77814848  0.88128051  1  0  -0.453188  0  3.056331  0  0  -0.416725  0  3.343325  0  0  -0.432544  0  3.351471  0  -1.250182  0  -0.338893  -0.404926  0  3.33622  0
N  N120  1  0.69146454  0.64265529  0.69404571  1  0  -0.637818  0  3.150699  0  0  -0.597626  0  3.386563  0  0  -0.620304  0  3.383709  0  -1.335828  0  -0.564996  -0.581803  0  3.388883  0
N  N121  1  0.30853483  0.14265508  0.80595560  1  0  -0.637833  0  3.150794  0  0  -0.597653  0  3.386644  0  0  -0.620332  0  3.383782  0  -1.33547  0  -0.565013  -0.581827  0  3.388959  0
N  N122  1  0.30853687  0.35734608  0.30595818  1  0  -0.637795  0  3.150863  0  0  -0.597619  0  3.386705  0  0  -0.620301  0  3.383847  0  -1.335428  0  -0.564991  -0.581798  0  3.389024  0
N  N123  1  0.69146454  0.85734725  0.19403826  1  0  -0.637632  0  3.151054  0  0  -0.597436  0  3.386887  0  0  -0.620113  0  3.384044  0  -1.335548  0  -0.565041  -0.581612  0  3.389199  0
N  N124  1  0.67263220  0.43342473  0.52787794  1  0  -0.328963  0  3.327011  0  0  -0.277337  0  3.648434  0  0  -0.286944  0  3.654111  0  -1.189642  0  -0.382235  -0.271122  0  3.644736  0
N  N125  1  0.32736514  0.93342304  0.97212228  1  0  -0.328944  0  3.326782  0  0  -0.277261  0  3.648164  0  0  -0.28688  0  3.653867  0  -1.189689  0  -0.382188  -0.271044  0  3.644477  0
N  N126  1  0.32737023  0.56657950  0.47212240  1  0  -0.32895  0  3.326747  0  0  -0.277305  0  3.648182  0  0  -0.286918  0  3.653874  0  -1.189781  0  -0.382257  -0.2711  0  3.644481  0
N  N127  1  0.67262914  0.06657834  0.02787593  1  0  -0.328908  0  3.326908  0  0  -0.277303  0  3.648359  0  0  -0.28691  0  3.654035  0  -1.189948  0  -0.382248  -0.271093  0  3.644655  0
N  N128  1  0.62355817  0.48954778  0.36234894  1  0  -0.135805  0  3.478939  0  0  -0.042183  0  3.697325  0  0  -0.060078  0  3.72024  0  -1.250457  0  -0.236947  -0.029985  0  3.681023  0
N  N129  1  0.37644120  0.98954608  0.13765162  1  0  -0.135926  0  3.479109  0  0  -0.042321  0  3.697506  0  0  -0.060214  0  3.720419  0  -1.250021  0  -0.237012  -0.030123  0  3.681202  0
N  N130  1  0.37644324  0.51045360  0.63765197  1  0  -0.135822  0  3.478967  0  0  -0.042224  0  3.697361  0  0  -0.060117  0  3.720271  0  -1.249983  0  -0.236943  -0.030027  0  3.681062  0
N  N131  1  0.62355715  0.01045148  0.86234653  1  0  -0.135687  0  3.478916  0  0  -0.042123  0  3.697299  0  0  -0.060011  0  3.720209  0  -1.250075  0  -0.236958  -0.029927  0  3.681  0
Cl  Cl132  1  0.74357821  0.13395075  0.30050639  1  0  -0.591817  0  1.023626  0  0  -0.532205  0  1.31847  0  0  -0.544852  0  1.292713  0  -0.707241  0  -0.335582  -0.522922  0  1.335721  0
Cl  Cl133  1  0.25642320  0.63394810  0.19949824  1  0  -0.59181  0  1.023642  0  0  -0.532201  0  1.318485  0  0  -0.544855  0  1.292736  0  -0.707226  0  -0.33559  -0.522922  0  1.335737  0
Cl  Cl134  1  0.25642320  0.86604967  0.69950122  1  0  -0.591797  0  1.023643  0  0  -0.532184  0  1.318481  0  0  -0.544853  0  1.292757  0  -0.707247  0  -0.335595  -0.522905  0  1.335734  0
Cl  Cl135  1  0.74357719  0.36604946  0.80049952  1  0  -0.591814  0  1.023661  0  0  -0.532208  0  1.318499  0  0  -0.544854  0  1.292744  0  -0.707248  0  -0.335601  -0.522925  0  1.335749  0
