# generated using pymatgen
data_Cu2P6H24C26S3Br2
_symmetry_space_group_name_H-M   'P 1'
_cell_length_a   9.57584693
_cell_length_b   13.06424872
_cell_length_c   13.81991555
_cell_angle_alpha   65.67176244
_cell_angle_beta   82.56936671
_cell_angle_gamma   88.77497264
_symmetry_Int_Tables_number   1
_chemical_formula_structural   Cu2P6H24C26S3Br2
_chemical_formula_sum   'Cu4 P12 H48 C52 S6 Br4'
_cell_volume   1561.16052982
_cell_formula_units_Z   2
loop_
 _symmetry_equiv_pos_site_id
 _symmetry_equiv_pos_as_xyz
  1  'x, y, z'
loop_
 _atom_site_type_symbol
 _atom_site_label
 _atom_site_symmetry_multiplicity
 _atom_site_fract_x
 _atom_site_fract_y
 _atom_site_fract_z
 _atom_site_occupancy
 _atom_site_pbe_bader_spin_density
 _atom_site_pbe_cm5_charge
 _atom_site_pbe_ddec_charge
 _atom_site_pbe_ddec_spin_density
 _atom_site_pbe_ddec_sum_bond_order
 _atom_site_pbe_magmom
Cu  Cu0  1  0.87243004  0.22245238  0.09394847  1  0  0.346403  0.056632  0  3.003939  0
Cu  Cu1  1  0.12756505  0.77753748  0.90603628  1  0  0.346394  0.056586  0  3.003954  0
Cu  Cu2  1  0.61804514  0.08483219  0.23312614  1  0  0.346246  0.09923  0  2.94724  0
Cu  Cu3  1  0.38193373  0.91517602  0.76687393  1  0  0.346261  0.099222  0  2.947127  0
P  P4  1  0.58498099  0.92838901  0.38379842  1  0  -0.037422  0.284143  0  4.205772  0
P  P5  1  0.41501799  0.07162086  0.61619786  1  0  -0.037458  0.284258  0  4.205726  0
P  P6  1  0.87105641  0.38849862  0.95478057  1  0  -0.034733  0.302248  0  4.179217  0
P  P7  1  0.12895062  0.61150203  0.04521350  1  0  -0.034753  0.302185  0  4.179384  0
P  P8  1  0.08254824  0.14903572  0.11932300  1  0  -0.06079  0.170751  0  4.451369  0
P  P9  1  0.91743526  0.85095496  0.88066675  1  0  -0.0608  0.170822  0  4.451138  0
P  P10  1  0.40617556  0.11340693  0.17331967  1  0  -0.086259  -5.5e-05  0  3.94935  0
P  P11  1  0.59380187  0.88659287  0.82668374  1  0  -0.086336  -0.00017  0  3.949379  0
P  P12  1  0.32587457  0.96101519  0.15607357  1  0  0.034959  0.087963  0  3.312079  0
P  P13  1  0.67411853  0.03898206  0.84393022  1  0  0.035035  0.088075  0  3.312073  0
P  P14  1  0.39700471  0.11817035  0.00904507  1  0  0.03054  0.100462  0  3.307151  0
P  P15  1  0.60299038  0.88182358  0.99095549  1  0  0.030563  0.100557  0  3.307065  0
H  H16  1  0.44985754  0.87511501  0.56202846  1  0  0.086647  0.114192  0  1.032113  0
H  H17  1  0.55014956  0.12488895  0.43797158  1  0  0.086604  0.114101  0  1.032111  0
H  H18  1  0.36759464  0.97807047  0.45791318  1  0  0.098734  0.12337  0  0.986282  0
H  H19  1  0.63240921  0.02193261  0.54209253  1  0  0.098725  0.123387  0  0.986146  0
H  H20  1  0.64744479  0.69599155  0.53061018  1  0  0.100732  0.100599  0  1.009752  0
H  H21  1  0.35254694  0.30402330  0.46939421  1  0  0.100768  0.100637  0  1.009682  0
H  H22  1  0.86447362  0.61422540  0.61009956  1  0  0.098759  0.095942  0  1.020962  0
H  H23  1  0.13551147  0.38578272  0.38990941  1  0  0.098765  0.095956  0  1.0209  0
H  H24  1  0.07607831  0.73661496  0.57621553  1  0  0.091887  0.090317  0  1.04455  0
H  H25  1  0.92391387  0.26338646  0.42379181  1  0  0.091879  0.090344  0  1.044645  0
H  H26  1  0.07672555  0.93973840  0.45230234  1  0  0.095353  0.095212  0  1.019254  0
H  H27  1  0.92328134  0.06025971  0.54769489  1  0  0.095348  0.095238  0  1.019311  0
H  H28  1  0.86278555  0.02085638  0.36904331  1  0  0.083977  0.085765  0  1.071484  0
H  H29  1  0.13722703  0.97914934  0.63094327  1  0  0.083955  0.085764  0  1.07138  0
H  H30  1  0.30175586  0.80713257  0.47203213  1  0  0.095129  0.095281  0  1.04236  0
H  H31  1  0.69824441  0.19288397  0.52796872  1  0  0.095138  0.095311  0  1.042307  0
H  H32  1  0.18599662  0.66386685  0.43265182  1  0  0.096249  0.092372  0  1.028215  0
H  H33  1  0.81399524  0.33615133  0.56735490  1  0  0.096295  0.092412  0  1.028167  0
H  H34  1  0.31573488  0.58499893  0.31183592  1  0  0.095254  0.095943  0  1.02278  0
H  H35  1  0.68424692  0.41500666  0.68817575  1  0  0.095331  0.096063  0  1.022737  0
H  H36  1  0.56186559  0.65090281  0.23041645  1  0  0.09254  0.094346  0  1.038527  0
H  H37  1  0.43812295  0.34908933  0.76959982  1  0  0.092511  0.094281  0  1.038426  0
H  H38  1  0.67599964  0.80011507  0.26343037  1  0  0.094455  0.102083  0  1.018665  0
H  H39  1  0.32399235  0.19988133  0.73657528  1  0  0.094418  0.101999  0  1.018684  0
H  H40  1  0.92863891  0.58650901  0.90658069  1  0  0.091029  0.105547  0  1.03636  0
H  H41  1  0.07137323  0.41348990  0.09342013  1  0  0.091036  0.105618  0  1.03635  0
H  H42  1  0.84557669  0.51530064  0.03885522  1  0  0.101705  0.1272  0  1.007995  0
H  H43  1  0.15443521  0.48469322  0.96114828  1  0  0.10173  0.127229  0  1.008123  0
H  H44  1  0.58709203  0.29868988  0.04716571  1  0  0.078393  0.067443  0  1.103184  0
H  H45  1  0.41291532  0.70129157  0.95281979  1  0  0.078385  0.067434  0  1.103147  0
H  H46  1  0.35148816  0.36529273  0.99537286  1  0  0.082441  0.073403  0  1.085955  0
H  H47  1  0.64852002  0.63468368  0.00461377  1  0  0.082457  0.073439  0  1.085964  0
H  H48  1  0.33349311  0.53897866  0.82899602  1  0  0.085912  0.083437  0  1.065006  0
H  H49  1  0.66650589  0.46100772  0.17100276  1  0  0.085901  0.08342  0  1.06506  0
H  H50  1  0.54857820  0.64728130  0.71922576  1  0  0.090679  0.0885  0  1.031881  0
H  H51  1  0.45141719  0.35272176  0.28078428  1  0  0.090703  0.088474  0  1.031973  0
H  H52  1  0.78414332  0.58121879  0.77146658  1  0  0.091222  0.083133  0  1.063757  0
H  H53  1  0.21585539  0.41878926  0.22854706  1  0  0.091242  0.083197  0  1.063576  0
H  H54  1  0.89435769  0.24355072  0.84477184  1  0  0.089549  0.094307  0  1.040842  0
H  H55  1  0.10565444  0.75644818  0.15523043  1  0  0.08955  0.094383  0  1.040846  0
H  H56  1  0.03484730  0.25347628  0.67653442  1  0  0.09401  0.096083  0  1.03283  0
H  H57  1  0.96517987  0.74650824  0.32347933  1  0  0.093991  0.096016  0  1.033011  0
H  H58  1  0.20434559  0.41456986  0.57035196  1  0  0.097518  0.094337  0  1.020964  0
H  H59  1  0.79568471  0.58541302  0.42965782  1  0  0.09748  0.09436  0  1.021004  0
H  H60  1  0.23030355  0.56696615  0.63151917  1  0  0.096528  0.094377  0  1.01946  0
H  H61  1  0.76972291  0.43302349  0.36848327  1  0  0.096544  0.094417  0  1.019453  0
H  H62  1  0.08546733  0.56194749  0.79380305  1  0  0.089451  0.09228  0  1.060385  0
H  H63  1  0.91454403  0.43805649  0.20619299  1  0  0.089461  0.092403  0  1.060517  0
C  C64  1  0.46924067  0.95321049  0.48870671  1  0  -0.168837  -0.263047  0  3.900824  0
C  C65  1  0.53075899  0.04679261  0.51129717  1  0  -0.16869  -0.262852  0  3.900675  0
C  C66  1  0.73998123  0.86456067  0.44661585  1  0  -0.027447  -0.045313  0  3.9501  0
C  C67  1  0.26002387  0.13544499  0.55338153  1  0  -0.027462  -0.045432  0  3.950147  0
C  C68  1  0.74104688  0.74970174  0.51465155  1  0  -0.086928  -0.094294  0  3.968975  0
C  C69  1  0.25894678  0.25030729  0.48534622  1  0  -0.086983  -0.094388  0  3.968967  0
C  C70  1  0.86245640  0.70386592  0.55953359  1  0  -0.093206  -0.085501  0  4.009325  0
C  C71  1  0.13753788  0.29613386  0.44046841  1  0  -0.093202  -0.085434  0  4.009437  0
C  C72  1  0.98266957  0.77228665  0.53882634  1  0  -0.091715  -0.079905  0  4.000032  0
C  C73  1  0.01732393  0.22771821  0.46117016  1  0  -0.091693  -0.079954  0  3.999983  0
C  C74  1  0.98260532  0.88612338  0.47057941  1  0  -0.093435  -0.080459  0  4.009695  0
C  C75  1  0.01739866  0.11387980  0.52941394  1  0  -0.093453  -0.08056  0  4.009744  0
C  C76  1  0.86221098  0.93218037  0.42393395  1  0  -0.090601  -0.10094  0  3.986571  0
C  C77  1  0.13779749  0.06782868  0.57605678  1  0  -0.090555  -0.100823  0  3.986629  0
C  C78  1  0.49749675  0.81333845  0.37085025  1  0  -0.030628  -0.057624  0  3.992001  0
C  C79  1  0.50250326  0.18667140  0.62914739  1  0  -0.030675  -0.057797  0  3.99226  0
C  C80  1  0.35945132  0.77398945  0.41849858  1  0  -0.096381  -0.113538  0  3.994027  0
C  C81  1  0.64054252  0.22602539  0.58150563  1  0  -0.096368  -0.113685  0  3.993772  0
C  C82  1  0.29427488  0.69233911  0.39693235  1  0  -0.095537  -0.085652  0  4.017574  0
C  C83  1  0.70571486  0.30767825  0.60307269  1  0  -0.09557  -0.085603  0  4.01714  0
C  C84  1  0.36678488  0.64792873  0.32947004  1  0  -0.091856  -0.073114  0  3.977876  0
C  C85  1  0.63320334  0.35207856  0.67053827  1  0  -0.091915  -0.073109  0  3.977744  0
C  C86  1  0.50511475  0.68558643  0.28302203  1  0  -0.093264  -0.076992  0  4.000149  0
C  C87  1  0.49487852  0.31441501  0.71698304  1  0  -0.093261  -0.077099  0  4.000211  0
C  C88  1  0.56947613  0.76864636  0.30239397  1  0  -0.090506  -0.104688  0  3.990185  0
C  C89  1  0.43051408  0.23135759  0.69761111  1  0  -0.090465  -0.104484  0  3.990135  0
C  C90  1  0.92869020  0.50820326  0.97946146  1  0  -0.168366  -0.266224  0  3.897246  0
C  C91  1  0.07132380  0.49178978  0.02053928  1  0  -0.168452  -0.266501  0  3.897622  0
C  C92  1  0.70014749  0.43433597  0.91162522  1  0  -0.028425  -0.049468  0  3.961059  0
C  C93  1  0.29985611  0.56565962  0.08837398  1  0  -0.028345  -0.049423  0  3.960965  0
C  C94  1  0.57808578  0.37405141  0.97444627  1  0  -0.0877  -0.078322  0  3.971938  0
C  C95  1  0.42192499  0.62593753  0.02554402  1  0  -0.087682  -0.07827  0  3.972064  0
C  C96  1  0.44615558  0.41162143  0.94507893  1  0  -0.097027  -0.077783  0  3.991899  0
C  C97  1  0.55384440  0.58836164  0.05491379  1  0  -0.097037  -0.077853  0  3.99247  0
C  C98  1  0.43594805  0.50864154  0.85253900  1  0  -0.090682  -0.066414  0  3.977375  0
C  C99  1  0.56405569  0.49135659  0.14745777  1  0  -0.090757  -0.066412  0  3.9774  0
C  C100  1  0.55748632  0.56982830  0.78991671  1  0  -0.095044  -0.080941  0  3.99639  0
C  C101  1  0.44250997  0.43017059  0.21009052  1  0  -0.09501  -0.080962  0  3.99631  0
C  C102  1  0.68932647  0.53286197  0.81948403  1  0  -0.092119  -0.101535  0  3.999015  0
C  C103  1  0.31067430  0.46714280  0.18052057  1  0  -0.092263  -0.101595  0  3.99889  0
C  C104  1  0.97893996  0.40204779  0.83094584  1  0  -0.030919  -0.056222  0  3.970728  0
C  C105  1  0.02107538  0.59795114  0.16905108  1  0  -0.030831  -0.056039  0  3.970845  0
C  C106  1  0.96600620  0.31561229  0.79661717  1  0  -0.08973  -0.093518  0  3.974598  0
C  C107  1  0.03401625  0.68438157  0.20338399  1  0  -0.089799  -0.093737  0  3.974759  0
C  C108  1  0.04541482  0.32095786  0.70253175  1  0  -0.092759  -0.079835  0  3.990638  0
C  C109  1  0.95461266  0.67903258  0.29747609  1  0  -0.092642  -0.07958  0  3.990492  0
C  C110  1  0.14051773  0.41147125  0.64279714  1  0  -0.088968  -0.075317  0  3.989288  0
C  C111  1  0.85950545  0.58851588  0.35720654  1  0  -0.088943  -0.075414  0  3.989312  0
C  C112  1  0.15492044  0.49693411  0.67697762  1  0  -0.093112  -0.079889  0  4.002932  0
C  C113  1  0.84509980  0.50305724  0.32302325  1  0  -0.093188  -0.079905  0  4.003014  0
C  C114  1  0.07350347  0.49305246  0.76996199  1  0  -0.094609  -0.107708  0  3.98318  0
C  C115  1  0.92650737  0.50693978  0.23003499  1  0  -0.094641  -0.107952  0  3.983403  0
S  S116  1  0.22100167  0.18988597  0.20728084  1  0  0.003121  -0.07155  0  2.678699  0
S  S117  1  0.77896742  0.81011310  0.79271270  1  0  0.003128  -0.071567  0  2.678759  0
S  S118  1  0.10679511  0.97301059  0.18014547  1  0  0.011054  -0.066552  0  2.743833  0
S  S119  1  0.89319896  0.02698336  0.81985300  1  0  0.011077  -0.066513  0  2.743755  0
S  S120  1  0.20783136  0.19871212  0.96904820  1  0  0.015845  -0.07355  0  2.78734  0
S  S121  1  0.79216033  0.80127513  0.03094942  1  0  0.015803  -0.073698  0  2.787331  0
Br  Br122  1  0.75236748  0.06423697  0.07838240  1  0  -0.240756  -0.342297  0  1.835381  0
Br  Br123  1  0.24757175  0.93577564  0.92160341  1  0  -0.240794  -0.342248  0  1.83514  0
Br  Br124  1  0.74924126  0.23280212  0.25978238  1  0  -0.246522  -0.358585  0  1.663765  0
Br  Br125  1  0.25073153  0.76722733  0.74018255  1  0  -0.246494  -0.358599  0  1.663863  0
