# generated using pymatgen
data_ZnH18C20(NO)4
_symmetry_space_group_name_H-M   'P 1'
_cell_length_a   5.34338884
_cell_length_b   8.35391128
_cell_length_c   21.49169031
_cell_angle_alpha   84.25548269
_cell_angle_beta   82.87585743
_cell_angle_gamma   71.37843748
_symmetry_Int_Tables_number   1
_chemical_formula_structural   ZnH18C20(NO)4
_chemical_formula_sum   'Zn2 H36 C40 N8 O8'
_cell_volume   900.23946601
_cell_formula_units_Z   2
loop_
 _symmetry_equiv_pos_site_id
 _symmetry_equiv_pos_as_xyz
  1  'x, y, z'
loop_
 _atom_site_type_symbol
 _atom_site_label
 _atom_site_symmetry_multiplicity
 _atom_site_fract_x
 _atom_site_fract_y
 _atom_site_fract_z
 _atom_site_occupancy
 _atom_site_hle17_bader_spin_density
 _atom_site_hle17_ddec_charge
 _atom_site_hle17_ddec_spin_density
 _atom_site_hle17_ddec_sum_bond_order
 _atom_site_hle17_magmom
 _atom_site_hse06_10hf_bader_spin_density
 _atom_site_hse06_10hf_ddec_charge
 _atom_site_hse06_10hf_ddec_spin_density
 _atom_site_hse06_10hf_ddec_sum_bond_order
 _atom_site_hse06_10hf_magmom
 _atom_site_hse06_bader_spin_density
 _atom_site_hse06_ddec_charge
 _atom_site_hse06_ddec_spin_density
 _atom_site_hse06_ddec_sum_bond_order
 _atom_site_hse06_magmom
 _atom_site_pbe_bader_spin_density
 _atom_site_pbe_cm5_charge
 _atom_site_pbe_ddec_charge
 _atom_site_pbe_ddec_spin_density
 _atom_site_pbe_ddec_sum_bond_order
 _atom_site_pbe_magmom
Zn  Zn0  1  0.41371402  0.75044092  0.25003659  1  0  0.999063  0  1.835145  0  0  0.800946  0  2.311647  0  0  0.850052  0  2.257866  0  0  0.693001  0.766775  0  2.348502  0
Zn  Zn1  1  0.58627054  0.24955972  0.74996362  1  0  0.999083  0  1.835065  0  0  0.800961  0  2.311539  0  0  0.850039  0  2.257809  0  0  0.693016  0.7668  0  2.348398  0
H  H2  1  0.69653529  0.98495620  0.18883543  1  0  0.091873  0  0.973164  0  0  0.096679  0  1.042492  0  0  0.100095  0  1.038306  0  0  0.117696  0.094103  0  1.045585  0
H  H3  1  0.86896534  0.51630769  0.31118708  1  0  0.091629  0  0.973083  0  0  0.096759  0  1.041953  0  0  0.100311  0  1.037604  0  0  0.117815  0.094119  0  1.045098  0
H  H4  1  0.30347276  0.01503938  0.81116464  1  0  0.091776  0  0.973315  0  0  0.09667  0  1.042568  0  0  0.100088  0  1.038384  0  0  0.117675  0.094095  0  1.04566  0
H  H5  1  0.13103285  0.48368914  0.68881650  1  0  0.091529  0  0.973225  0  0  0.096756  0  1.041988  0  0  0.100299  0  1.037657  0  0  0.117802  0.094116  0  1.045132  0
H  H6  1  0.93053565  0.20305210  0.33728353  1  0  0.097231  0  0.951658  0  0  0.111654  0  1.009143  0  0  0.113579  0  1.008558  0  0  0.111394  0.110225  0  1.009615  0
H  H7  1  0.46970467  0.29831123  0.16293689  1  0  0.097127  0  0.951628  0  0  0.11096  0  1.009667  0  0  0.112767  0  1.009268  0  0  0.111643  0.109572  0  1.010075  0
H  H8  1  0.06946287  0.79694347  0.66271478  1  0  0.097161  0  0.95161  0  0  0.111621  0  1.009067  0  0  0.113535  0  1.008498  0  0  0.111403  0.110193  0  1.00954  0
H  H9  1  0.53030890  0.70170080  0.83706804  1  0  0.097121  0  0.9516  0  0  0.110841  0  1.009825  0  0  0.112673  0  1.009363  0  0  0.111612  0.109479  0  1.01021  0
H  H10  1  0.95523972  0.16116800  0.22282425  1  0  0.1017  0  0.962904  0  0  0.111591  0  1.022211  0  0  0.113272  0  1.024631  0  0  0.105422  0.110368  0  1.020744  0
H  H11  1  0.33800195  0.34074491  0.27731622  1  0  0.101266  0  0.962414  0  0  0.111235  0  1.021909  0  0  0.11294  0  1.024291  0  0  0.105384  0.109993  0  1.020457  0
H  H12  1  0.04477099  0.83882505  0.77717449  1  0  0.101648  0  0.96304  0  0  0.11154  0  1.022318  0  0  0.11322  0  1.024742  0  0  0.105445  0.110317  0  1.020857  0
H  H13  1  0.66200890  0.65925952  0.72268965  1  0  0.101301  0  0.962428  0  0  0.11126  0  1.021927  0  0  0.112959  0  1.024318  0  0  0.10537  0.110017  0  1.020473  0
H  H14  1  0.42514856  0.88537793  0.37274378  1  0  0.085181  0  0.962791  0  0  0.087171  0  1.039204  0  0  0.090679  0  1.035008  0  0  0.120815  0.08456  0  1.04225  0
H  H15  1  0.68205465  0.61479840  0.12723482  1  0  0.085119  0  0.962738  0  0  0.087212  0  1.039005  0  0  0.09064  0  1.03495  0  0  0.120745  0.08463  0  1.042006  0
H  H16  1  0.57483899  0.11462144  0.62725414  1  0  0.085195  0  0.962772  0  0  0.087145  0  1.039225  0  0  0.09066  0  1.035024  0  0  0.120814  0.084537  0  1.042272  0
H  H17  1  0.31794865  0.38519084  0.87276755  1  0  0.08505  0  0.962783  0  0  0.087155  0  1.03903  0  0  0.09058  0  1.034982  0  0  0.120682  0.084586  0  1.042016  0
H  H18  1  0.76268316  0.18170134  0.50576698  1  0  0.1269  0  0.970973  0  0  0.140294  0  1.039539  0  0  0.14274  0  1.038575  0  0  0.095426  0.138465  0  1.040314  0
H  H19  1  0.44984724  0.31856206  0.99451022  1  0  0.126971  0  0.970934  0  0  0.140218  0  1.03967  0  0  0.142639  0  1.038734  0  0  0.095096  0.138383  0  1.04044  0
H  H20  1  0.23730372  0.81829550  0.49423286  1  0  0.126993  0  0.971027  0  0  0.140356  0  1.039615  0  0  0.142802  0  1.038652  0  0  0.095441  0.138528  0  1.040386  0
H  H21  1  0.55017428  0.68145250  0.00549304  1  0  0.127033  0  0.970947  0  0  0.140286  0  1.039665  0  0  0.142703  0  1.038734  0  0  0.09509  0.138456  0  1.040429  0
H  H22  1  0.74408236  0.30019571  0.43143815  1  0  0.136151  0  0.968524  0  0  0.154812  0  1.033271  0  0  0.156534  0  1.032666  0  0  0.097616  0.153471  0  1.033801  0
H  H23  1  0.47534822  0.20028154  0.06888521  1  0  0.135683  0  0.967556  0  0  0.154263  0  1.032445  0  0  0.15604  0  1.03177  0  0  0.097174  0.152905  0  1.032985  0
H  H24  1  0.25590833  0.69979986  0.56856230  1  0  0.136173  0  0.968481  0  0  0.154858  0  1.033183  0  0  0.156576  0  1.032579  0  0  0.097649  0.153523  0  1.033702  0
H  H25  1  0.52468299  0.79972922  0.93111599  1  0  0.135701  0  0.967496  0  0  0.154311  0  1.032401  0  0  0.156085  0  1.031729  0  0  0.097178  0.152955  0  1.032936  0
H  H26  1  0.01887387  0.11600096  0.44369386  1  0  0.126075  0  0.954605  0  0  0.143922  0  1.020887  0  0  0.145435  0  1.020994  0  0  0.095456  0.142819  0  1.020843  0
H  H27  1  0.57766436  0.38480971  0.05658835  1  0  0.126175  0  0.954644  0  0  0.143693  0  1.021191  0  0  0.145218  0  1.021264  0  0  0.09553  0.142584  0  1.021162  0
H  H28  1  0.98111390  0.88399587  0.55630697  1  0  0.126062  0  0.954591  0  0  0.143894  0  1.020905  0  0  0.145411  0  1.021009  0  0  0.095428  0.142791  0  1.020862  0
H  H29  1  0.42235280  0.61520991  0.94341664  1  0  0.12628  0  0.954283  0  0  0.14375  0  1.020909  0  0  0.145274  0  1.020982  0  0  0.095498  0.14264  0  1.020883  0
H  H30  1  0.90180330  0.85373733  0.09192422  1  0  0.123038  0  0.965692  0  0  0.128368  0  1.033919  0  0  0.132472  0  1.032368  0  0  0.101734  0.125441  0  1.035211  0
H  H31  1  0.84761773  0.64610547  0.40804460  1  0  0.122559  0  0.965325  0  0  0.127813  0  1.033783  0  0  0.131913  0  1.032237  0  0  0.101524  0.124878  0  1.035093  0
H  H32  1  0.09820026  0.14624432  0.90807244  1  0  0.123073  0  0.965701  0  0  0.128397  0  1.033934  0  0  0.132501  0  1.03238  0  0  0.101756  0.125472  0  1.035226  0
H  H33  1  0.15235596  0.35390402  0.59195999  1  0  0.122534  0  0.9655  0  0  0.127824  0  1.033908  0  0  0.131923  0  1.032365  0  0  0.1016  0.124896  0  1.035201  0
H  H34  1  0.24958103  0.04648276  0.01285825  1  0  0.095353  0  0.938536  0  0  0.107848  0  0.99747  0  0  0.110577  0  0.99572  0  0  0.108186  0.105851  0  0.998794  0
H  H35  1  0.30885072  0.45338171  0.48714389  1  0  0.095543  0  0.938174  0  0  0.108492  0  0.99651  0  0  0.11122  0  0.994766  0  0  0.108534  0.106483  0  0.997853  0
H  H36  1  0.75041134  0.95351154  0.98713746  1  0  0.095403  0  0.938406  0  0  0.107921  0  0.997348  0  0  0.110655  0  0.99559  0  0  0.108142  0.105926  0  0.998668  0
H  H37  1  0.69114908  0.54662526  0.51285486  1  0  0.095557  0  0.938161  0  0  0.108535  0  0.996475  0  0  0.111264  0  0.994729  0  0  0.108512  0.106525  0  0.99782  0
C  C38  1  0.69872525  0.00556652  0.23793094  1  0  0.145476  0  3.667978  0  0  0.109078  0  3.920378  0  0  0.118529  0  3.93498  0  0  0.052083  0.10297  0  3.910552  0
C  C39  1  0.94099249  0.49564586  0.26209675  1  0  0.144116  0  3.667958  0  0  0.108264  0  3.91985  0  0  0.117591  0  3.93449  0  0  0.051772  0.102231  0  3.910039  0
C  C40  1  0.30128656  0.99443286  0.76206537  1  0  0.145335  0  3.668016  0  0  0.108772  0  3.920522  0  0  0.118218  0  3.93513  0  0  0.051952  0.102673  0  3.910691  0
C  C41  1  0.05900479  0.50435477  0.73790581  1  0  0.144123  0  3.667976  0  0  0.1082  0  3.91983  0  0  0.11753  0  3.934461  0  0  0.051747  0.10217  0  3.910014  0
C  C42  1  0.82334457  0.12656486  0.32115064  1  0  -0.020656  0  3.670759  0  0  -0.051489  0  3.917948  0  0  -0.046757  0  3.935483  0  0  -0.05826  -0.054284  0  3.906059  0
C  C43  1  0.26986176  0.37464833  0.17898695  1  0  -0.019917  0  3.667417  0  0  -0.050029  0  3.914558  0  0  -0.045313  0  3.932194  0  0  -0.058188  -0.052783  0  3.902575  0
C  C44  1  0.17666435  0.87343199  0.67884608  1  0  -0.020603  0  3.670638  0  0  -0.051524  0  3.917795  0  0  -0.046783  0  3.935332  0  0  -0.058263  -0.054322  0  3.905905  0
C  C45  1  0.73014350  0.62536116  0.82101629  1  0  -0.019775  0  3.667409  0  0  -0.049892  0  3.914529  0  0  -0.045168  0  3.932178  0  0  -0.058133  -0.052674  0  3.902544  0
C  C46  1  0.83667845  0.10418531  0.25743747  1  0  -0.120976  0  3.739112  0  0  -0.130575  0  3.993819  0  0  -0.138459  0  4.014751  0  0  -0.084082  -0.125734  0  3.980011  0
C  C47  1  0.19711830  0.39732180  0.24267058  1  0  -0.120623  0  3.736758  0  0  -0.130895  0  3.991967  0  0  -0.138749  0  4.012871  0  0  -0.084863  -0.126062  0  3.978172  0
C  C48  1  0.16332375  0.89580647  0.74256099  1  0  -0.120897  0  3.738958  0  0  -0.130418  0  3.993649  0  0  -0.138299  0  4.014582  0  0  -0.084096  -0.125579  0  3.979846  0
C  C49  1  0.80288576  0.60268642  0.75733262  1  0  -0.120637  0  3.736841  0  0  -0.130891  0  3.992011  0  0  -0.138748  0  4.012912  0  0  -0.084855  -0.126053  0  3.978216  0
C  C50  1  0.65444566  0.06858674  0.43282336  1  0  0.289007  0  3.660666  0  0  0.289286  0  3.913542  0  0  0.298979  0  3.930908  0  0  0.153107  0.282698  0  3.901779  0
C  C51  1  0.15515119  0.43170214  0.06730842  1  0  0.287634  0  3.659643  0  0  0.287444  0  3.913208  0  0  0.297118  0  3.930627  0  0  0.152688  0.280912  0  3.901356  0
C  C52  1  0.34555071  0.93140757  0.56717586  1  0  0.289049  0  3.660886  0  0  0.289265  0  3.913765  0  0  0.298986  0  3.931093  0  0  0.15307  0.282624  0  3.902069  0
C  C53  1  0.84487058  0.56829597  0.93269545  1  0  0.287795  0  3.659346  0  0  0.287721  0  3.912676  0  0  0.29739  0  3.930094  0  0  0.152804  0.281186  0  3.90083  0
C  C54  1  0.67113183  0.04990705  0.36470407  1  0  -0.040834  0  3.728952  0  0  -0.018584  0  3.959405  0  0  -0.025829  0  3.982652  0  0  0.002172  -0.014164  0  3.943906  0
C  C55  1  0.08460435  0.45070212  0.13538240  1  0  -0.040484  0  3.727266  0  0  -0.018309  0  3.957769  0  0  -0.025501  0  3.980896  0  0  0.001971  -0.013924  0  3.942314  0
C  C56  1  0.32887812  0.95008853  0.63529414  1  0  -0.040921  0  3.729089  0  0  -0.018516  0  3.959375  0  0  -0.025772  0  3.98262  0  0  0.002192  -0.014066  0  3.943871  0
C  C57  1  0.91540105  0.54929851  0.86462331  1  0  -0.040683  0  3.727172  0  0  -0.018386  0  3.957427  0  0  -0.025585  0  3.980565  0  0  0.002032  -0.014001  0  3.941982  0
C  C58  1  0.24664501  0.88700081  0.12941394  1  0  0.658338  0  3.955821  0  0  0.61697  0  4.240565  0  0  0.652166  0  4.232131  0  0  0.189889  0.593189  0  4.245262  0
C  C59  1  0.26308858  0.61303511  0.37064075  1  0  0.657653  0  3.953007  0  0  0.616481  0  4.237701  0  0  0.65167  0  4.229261  0  0  0.188987  0.592711  0  4.242407  0
C  C60  1  0.75336056  0.11299097  0.87057934  1  0  0.658588  0  3.95562  0  0  0.617237  0  4.240343  0  0  0.652435  0  4.231902  0  0  0.189992  0.593462  0  4.245033  0
C  C61  1  0.73687320  0.38697564  0.62936008  1  0  0.658038  0  3.953055  0  0  0.616871  0  4.237735  0  0  0.652069  0  4.229278  0  0  0.189207  0.593098  0  4.242446  0
C  C62  1  0.54077022  0.95092743  0.34098276  1  0  0.123625  0  3.646747  0  0  0.078937  0  3.901871  0  0  0.087819  0  3.917129  0  0  0.062428  0.073241  0  3.891618  0
C  C63  1  0.83147324  0.54954309  0.15902516  1  0  0.122564  0  3.645818  0  0  0.078205  0  3.900963  0  0  0.087124  0  3.916148  0  0  0.062041  0.072494  0  3.890769  0
C  C64  1  0.45923119  0.04907068  0.65901514  1  0  0.123605  0  3.64684  0  0  0.07887  0  3.901975  0  0  0.087749  0  3.917229  0  0  0.06242  0.073171  0  3.891722  0
C  C65  1  0.16853004  0.45044995  0.84097717  1  0  0.122657  0  3.645744  0  0  0.078258  0  3.900823  0  0  0.087174  0  3.916012  0  0  0.062101  0.072542  0  3.890613  0
C  C66  1  0.08784994  0.99139223  0.02384883  1  0  0.000686  0  3.739847  0  0  -0.014283  0  3.984118  0  0  -0.011732  0  4.003009  0  0  -0.07084  -0.015785  0  3.971102  0
C  C67  1  0.10308632  0.50854575  0.47614378  1  0  0.000498  0  3.740156  0  0  -0.014837  0  3.984586  0  0  -0.012282  0  4.003413  0  0  -0.071272  -0.016338  0  3.971613  0
C  C68  1  0.91214476  0.00859828  0.97614652  1  0  0.000699  0  3.739866  0  0  -0.014317  0  3.984157  0  0  -0.011767  0  4.00305  0  0  -0.070817  -0.01582  0  3.97114  0
C  C69  1  0.89690155  0.49147513  0.52385783  1  0  0.000549  0  3.740219  0  0  -0.014809  0  3.984664  0  0  -0.012254  0  4.003495  0  0  -0.0713  -0.016304  0  3.971687  0
C  C70  1  0.06277753  0.90895845  0.08055531  1  0  -0.229607  0  3.635837  0  0  -0.242322  0  3.885309  0  0  -0.253671  0  3.902432  0  0  -0.096994  -0.234823  0  3.873648  0
C  C71  1  0.05231518  0.59090829  0.41943063  1  0  -0.229042  0  3.633455  0  0  -0.242014  0  3.883208  0  0  -0.253374  0  3.900309  0  0  -0.096635  -0.234524  0  3.871586  0
C  C72  1  0.93723716  0.09102573  0.91944026  1  0  -0.229685  0  3.635898  0  0  -0.2424  0  3.885401  0  0  -0.253748  0  3.902528  0  0  -0.096981  -0.234902  0  3.873739  0
C  C73  1  0.94765994  0.40910879  0.58057059  1  0  -0.229139  0  3.633667  0  0  -0.242181  0  3.883508  0  0  -0.253545  0  3.900612  0  0  -0.096725  -0.234687  0  3.871877  0
C  C74  1  0.80335611  0.17231925  0.45500734  1  0  -0.40119  0  3.707211  0  0  -0.480026  0  3.940732  0  0  -0.484222  0  3.947591  0  0  -0.248889  -0.476749  0  3.935973  0
C  C75  1  0.43010878  0.32812525  0.04526252  1  0  -0.400859  0  3.705681  0  0  -0.479012  0  3.939411  0  0  -0.483175  0  3.94618  0  0  -0.247964  -0.475761  0  3.934704  0
C  C76  1  0.19664118  0.82767885  0.54499091  1  0  -0.401295  0  3.70732  0  0  -0.480102  0  3.94087  0  0  -0.484307  0  3.947714  0  0  -0.248893  -0.476818  0  3.936119  0
C  C77  1  0.56991588  0.67188551  0.95474327  1  0  -0.401125  0  3.705346  0  0  -0.479357  0  3.939086  0  0  -0.483518  0  3.945858  0  0  -0.248041  -0.476111  0  3.934375  0
N  N78  1  0.55387224  0.92994842  0.27942426  1  0  -0.334866  0  3.304985  0  0  -0.246309  0  3.588182  0  0  -0.266692  0  3.601532  0  0  -0.329667  -0.232655  0  3.579007  0
N  N79  1  0.76204304  0.57077102  0.22055299  1  0  -0.333607  0  3.306929  0  0  -0.246113  0  3.590584  0  0  -0.266438  0  3.603886  0  0  -0.329126  -0.23251  0  3.581452  0
N  N80  1  0.44613153  0.07004969  0.72057132  1  0  -0.334677  0  3.305073  0  0  -0.246025  0  3.588234  0  0  -0.266407  0  3.601586  0  0  -0.329565  -0.232378  0  3.579063  0
N  N81  1  0.23795444  0.42922075  0.77945012  1  0  -0.333491  0  3.306742  0  0  -0.245998  0  3.590405  0  0  -0.266315  0  3.6037  0  0  -0.329117  -0.2324  0  3.581278  0
N  N82  1  0.50541174  0.99165314  0.46831500  1  0  -0.257957  0  3.054086  0  0  -0.228815  0  3.331491  0  0  -0.240839  0  3.350686  0  0  -0.210092  -0.220675  0  3.31854  0
N  N83  1  0.96511187  0.50839916  0.03167498  1  0  -0.256324  0  3.050191  0  0  -0.226938  0  3.327438  0  0  -0.238955  0  3.346647  0  0  -0.209258  -0.218809  0  3.314445  0
N  N84  1  0.49458852  0.00833610  0.53168294  1  0  -0.257802  0  3.054061  0  0  -0.228644  0  3.331462  0  0  -0.240676  0  3.350648  0  0  -0.209967  -0.220488  0  3.318529  0
N  N85  1  0.03490086  0.49158754  0.96832867  1  0  -0.256422  0  3.05012  0  0  -0.227076  0  3.327305  0  0  -0.239093  0  3.346525  0  0  -0.209357  -0.218943  0  3.314313  0
O  O86  1  0.20276791  0.78990041  0.17837007  1  0  -0.664155  0  2.064335  0  0  -0.582633  0  2.339707  0  0  -0.614071  0  2.327712  0  0  -0.337307  -0.560508  0  2.347084  0
O  O87  1  0.17123171  0.71063268  0.32177896  1  0  -0.664384  0  2.064238  0  0  -0.582591  0  2.33923  0  0  -0.613909  0  2.326968  0  0  -0.336955  -0.560554  0  2.346805  0
O  O88  1  0.79724213  0.21009137  0.82162625  1  0  -0.664262  0  2.064412  0  0  -0.582763  0  2.339801  0  0  -0.614196  0  2.327801  0  0  -0.337375  -0.560642  0  2.347181  0
O  O89  1  0.82872998  0.28938947  0.67822178  1  0  -0.664542  0  2.064469  0  0  -0.582769  0  2.339501  0  0  -0.614088  0  2.327235  0  0  -0.336977  -0.560733  0  2.347082  0
O  O90  1  0.42613921  0.95593232  0.12318346  1  0  -0.629674  0  1.929419  0  0  -0.581648  0  2.155184  0  0  -0.605283  0  2.146322  0  0  -0.323734  -0.564992  0  2.160605  0
O  O91  1  0.50512645  0.54380954  0.37685863  1  0  -0.629142  0  1.928619  0  0  -0.581212  0  2.154428  0  0  -0.604909  0  2.145614  0  0  -0.323199  -0.564476  0  2.159723  0
O  O92  1  0.57386487  0.04406073  0.87680881  1  0  -0.62979  0  1.929256  0  0  -0.581791  0  2.155052  0  0  -0.605427  0  2.146188  0  0  -0.323804  -0.565153  0  2.160507  0
O  O93  1  0.49483858  0.45619869  0.62313655  1  0  -0.629307  0  1.928641  0  0  -0.581376  0  2.154461  0  0  -0.60506  0  2.14561  0  0  -0.323366  -0.564664  0  2.159809  0
