# generated using pymatgen
data_CuH9C8(NCl)2
_symmetry_space_group_name_H-M   'P 1'
_cell_length_a   7.45783536
_cell_length_b   8.81439582
_cell_length_c   8.71748971
_cell_angle_alpha   93.06805299
_cell_angle_beta   119.41049804
_cell_angle_gamma   95.34458134
_symmetry_Int_Tables_number   1
_chemical_formula_structural   CuH9C8(NCl)2
_chemical_formula_sum   'Cu2 H18 C16 N4 Cl4'
_cell_volume   493.76645245
_cell_formula_units_Z   2
loop_
 _symmetry_equiv_pos_site_id
 _symmetry_equiv_pos_as_xyz
  1  'x, y, z'
loop_
 _atom_site_type_symbol
 _atom_site_label
 _atom_site_symmetry_multiplicity
 _atom_site_fract_x
 _atom_site_fract_y
 _atom_site_fract_z
 _atom_site_occupancy
 _atom_site_hle17_bader_spin_density
 _atom_site_hle17_ddec_charge
 _atom_site_hle17_ddec_spin_density
 _atom_site_hle17_ddec_sum_bond_order
 _atom_site_hle17_magmom
 _atom_site_hse06_10hf_bader_spin_density
 _atom_site_hse06_10hf_ddec_charge
 _atom_site_hse06_10hf_ddec_spin_density
 _atom_site_hse06_10hf_ddec_sum_bond_order
 _atom_site_hse06_10hf_magmom
 _atom_site_hse06_bader_spin_density
 _atom_site_hse06_ddec_charge
 _atom_site_hse06_ddec_spin_density
 _atom_site_hse06_ddec_sum_bond_order
 _atom_site_hse06_magmom
 _atom_site_pbe_bader_spin_density
 _atom_site_pbe_cm5_charge
 _atom_site_pbe_ddec_charge
 _atom_site_pbe_ddec_spin_density
 _atom_site_pbe_ddec_sum_bond_order
 _atom_site_pbe_magmom
Cu  Cu0  1  0.01014288  0.68852212  0.01430612  1  0  0.466418  0  1.960707  0  0  0.370849  0  2.449808  0  0  0.363089  0  2.411266  0  0  0.369569  0.381553  0  2.470733  0
Cu  Cu1  1  0.98987828  0.31145612  0.98571777  1  0  0.466512  0  1.960744  0  0  0.37096  0  2.449866  0  0  0.363205  0  2.411344  0  0  0.369649  0.381626  0  2.470835  0
H  H2  1  0.08750233  0.66132669  0.46979645  1  0  0.118193  0  0.963152  0  0  0.126736  0  1.023406  0  0  0.130342  0  1.02209  0  0  0.099816  0.124065  0  1.024602  0
H  H3  1  0.91248186  0.33869815  0.53019595  1  0  0.118263  0  0.963025  0  0  0.126777  0  1.023288  0  0  0.130388  0  1.021982  0  0  0.099803  0.124105  0  1.024483  0
H  H4  1  0.70616091  0.61820584  0.25940866  1  0  0.097162  0  0.978351  0  0  0.102646  0  1.049422  0  0  0.105687  0  1.048232  0  0  0.094429  0.100547  0  1.049866  0
H  H5  1  0.29381525  0.38179623  0.74058325  1  0  0.097006  0  0.978549  0  0  0.102522  0  1.049585  0  0  0.105566  0  1.04839  0  0  0.094372  0.100421  0  1.050023  0
H  H6  1  0.46448477  0.66617455  0.37741577  1  0  0.112739  0  0.984917  0  0  0.115761  0  1.055309  0  0  0.120249  0  1.052789  0  0  0.091726  0.112389  0  1.05745  0
H  H7  1  0.53550005  0.33380688  0.62259233  1  0  0.112764  0  0.98496  0  0  0.115766  0  1.055367  0  0  0.120257  0  1.05284  0  0  0.091722  0.11239  0  1.057526  0
H  H8  1  0.61577506  0.72538605  0.70330443  1  0  0.069539  0  0.941969  0  0  0.079178  0  1.007276  0  0  0.081861  0  1.003977  0  0  0.108249  0.077279  0  1.009694  0
H  H9  1  0.38422545  0.27458021  0.29671813  1  0  0.06949  0  0.941917  0  0  0.079154  0  1.007202  0  0  0.081835  0  1.003908  0  0  0.108242  0.077257  0  1.009616  0
H  H10  1  0.37090823  0.65262282  0.80316923  1  0  0.102786  0  0.939771  0  0  0.109283  0  1.010616  0  0  0.112784  0  1.004196  0  0  0.125713  0.106451  0  1.01575  0
H  H11  1  0.62906794  0.34737343  0.19682015  1  0  0.10277  0  0.939565  0  0  0.10926  0  1.010438  0  0  0.112765  0  1.004012  0  0  0.12567  0.106422  0  1.015579  0
H  H12  1  0.29077841  0.98319015  0.08775088  1  0  0.10146  0  0.946587  0  0  0.111094  0  1.018325  0  0  0.114607  0  1.014902  0  0  0.103565  0.107977  0  1.021226  0
H  H13  1  0.70923363  0.01681660  0.91224777  1  0  0.101528  0  0.946601  0  0  0.11117  0  1.018347  0  0  0.114667  0  1.014924  0  0  0.103624  0.108053  0  1.021248  0
H  H14  1  0.11957336  0.97676911  0.85581471  1  0  0.110048  0  0.964927  0  0  0.11912  0  1.032435  0  0  0.121891  0  1.031057  0  0  0.109706  0.116817  0  1.033629  0
H  H15  1  0.88043880  0.02323660  0.14418855  1  0  0.109988  0  0.965008  0  0  0.119096  0  1.032505  0  0  0.121856  0  1.031114  0  0  0.109716  0.116796  0  1.033694  0
H  H16  1  0.66215476  0.76796509  0.02373714  1  0  0.09304  0  0.971425  0  0  0.101137  0  1.048425  0  0  0.105464  0  1.044278  0  0  0.104024  0.097566  0  1.051755  0
H  H17  1  0.33785856  0.23203466  0.97625940  1  0  0.093031  0  0.971542  0  0  0.101103  0  1.048551  0  0  0.10546  0  1.044377  0  0  0.103999  0.097533  0  1.051881  0
H  H18  1  0.62513651  0.86592786  0.18801174  1  0  0.101178  0  0.902896  0  0  0.119129  0  0.955908  0  0  0.120523  0  0.956034  0  0  0.121629  0.117597  0  0.956382  0
H  H19  1  0.37487274  0.13407429  0.81198339  1  0  0.101162  0  0.902916  0  0  0.119057  0  0.955954  0  0  0.120486  0  0.956041  0  0  0.121616  0.117529  0  0.956428  0
C  C20  1  0.05110509  0.70745104  0.69870098  1  0  0.168676  0  3.768464  0  0  0.176628  0  4.006293  0  0  0.176073  0  4.024309  0  0  0.102191  0.177767  0  3.994448  0
C  C21  1  0.94889936  0.29255376  0.30130165  1  0  0.168845  0  3.76808  0  0  0.176773  0  4.00589  0  0  0.176228  0  4.023908  0  0  0.102281  0.177912  0  3.994043  0
C  C22  1  0.97879307  0.66979933  0.51837865  1  0  -0.119546  0  3.694905  0  0  -0.139704  0  3.936233  0  0  -0.143091  0  3.955337  0  0  -0.076533  -0.138178  0  3.923718  0
C  C23  1  0.02120685  0.33021832  0.48162510  1  0  -0.119643  0  3.695062  0  0  -0.139762  0  3.936371  0  0  -0.143166  0  3.955487  0  0  -0.076507  -0.138236  0  3.923857  0
C  C24  1  0.76544379  0.65080110  0.40013363  1  0  -0.019272  0  3.710558  0  0  -0.038478  0  3.963841  0  0  -0.035275  0  3.979201  0  0  -0.076536  -0.039814  0  3.953288  0
C  C25  1  0.23453993  0.34920550  0.59986590  1  0  -0.019079  0  3.710675  0  0  -0.038303  0  3.963903  0  0  -0.035099  0  3.979268  0  0  -0.076532  -0.039633  0  3.953347  0
C  C26  1  0.63186726  0.67430336  0.46540324  1  0  -0.095751  0  3.697162  0  0  -0.110037  0  3.947557  0  0  -0.11292  0  3.963287  0  0  -0.080019  -0.109115  0  3.937759  0
C  C27  1  0.36813046  0.32569928  0.53459563  1  0  -0.095718  0  3.696909  0  0  -0.109988  0  3.947344  0  0  -0.112864  0  3.963066  0  0  -0.079935  -0.109074  0  3.937549  0
C  C28  1  0.71595757  0.70986295  0.64730146  1  0  0.144218  0  3.673488  0  0  0.110928  0  3.930209  0  0  0.118545  0  3.942046  0  0  0.043146  0.106033  0  3.922467  0
C  C29  1  0.28403098  0.29013669  0.35270304  1  0  0.14417  0  3.673894  0  0  0.110828  0  3.930646  0  0  0.118448  0  3.94249  0  0  0.043092  0.105936  0  3.922898  0
C  C30  1  0.27566014  0.73179725  0.81954318  1  0  0.141625  0  3.498279  0  0  0.081523  0  3.756746  0  0  0.110165  0  3.751734  0  0  0.110044  0.059162  0  3.762421  0
C  C31  1  0.72434976  0.26820140  0.18045089  1  0  0.141509  0  3.498287  0  0  0.081458  0  3.756676  0  0  0.110096  0  3.751672  0  0  0.110029  0.059106  0  3.762333  0
C  C32  1  0.28328022  0.98500539  0.95822708  1  0  -0.058784  0  3.602705  0  0  -0.123046  0  3.859514  0  0  -0.120316  0  3.866276  0  0  -0.060459  -0.124773  0  3.856045  0
C  C33  1  0.71673408  0.01499785  0.04177227  1  0  -0.058769  0  3.602381  0  0  -0.123148  0  3.859401  0  0  -0.120338  0  3.866051  0  0  -0.060567  -0.12488  0  3.855935  0
C  C34  1  0.60158458  0.86766009  0.05319771  1  0  -0.031218  0  3.585562  0  0  -0.090869  0  3.835389  0  0  -0.089547  0  3.844946  0  0  -0.049464  -0.091383  0  3.829768  0
C  C35  1  0.39841211  0.13233539  0.94678898  1  0  -0.031219  0  3.585935  0  0  -0.090785  0  3.835605  0  0  -0.089492  0  3.845173  0  0  -0.049517  -0.091315  0  3.829995  0
N  N36  1  0.92079223  0.72157867  0.76533364  1  0  -0.318845  0  3.339612  0  0  -0.254864  0  3.629613  0  0  -0.259503  0  3.63419  0  0  -0.35838  -0.252513  0  3.625858  0
N  N37  1  0.07922224  0.27842569  0.23466467  1  0  -0.31893  0  3.339881  0  0  -0.254929  0  3.629945  0  0  -0.259586  0  3.634543  0  0  -0.358479  -0.252578  0  3.626184  0
N  N38  1  0.37723059  0.85454650  0.93217893  1  0  -0.014074  0  3.459225  0  0  0.081829  0  3.683652  0  0  0.070719  0  3.701623  0  0  -0.231977  0.087833  0  3.673242  0
N  N39  1  0.62276984  0.14545231  0.06780815  1  0  -0.014131  0  3.459224  0  0  0.081794  0  3.683572  0  0  0.070662  0  3.70154  0  0  -0.231908  0.087802  0  3.673158  0
Cl  Cl40  1  0.16334591  0.84007614  0.26852220  1  0  -0.614435  0  1.005418  0  0  -0.549353  0  1.285631  0  0  -0.570311  0  1.265908  0  0  -0.365821  -0.532952  0  1.296842  0
Cl  Cl41  1  0.83668322  0.15993607  0.73148883  1  0  -0.614446  0  1.005454  0  0  -0.549349  0  1.285644  0  0  -0.570309  0  1.26593  0  0  -0.365802  -0.532945  0  1.29686  0
Cl  Cl42  1  0.25630623  0.50094156  0.02015189  1  0  -0.555124  0  1.179021  0  0  -0.499467  0  1.523139  0  0  -0.521042  0  1.498112  0  0  -0.284581  -0.484262  0  1.538136  0
Cl  Cl43  1  0.74366589  0.49905128  0.97983354  1  0  -0.555136  0  1.178865  0  0  -0.499477  0  1.522915  0  0  -0.521058  0  1.497902  0  0  -0.284608  -0.484273  0  1.537909  0
