# generated using pymatgen
data_NiH16C26(NO)4
_symmetry_space_group_name_H-M   'P 1'
_cell_length_a   5.31720614
_cell_length_b   41.39969570
_cell_length_c   41.39968597
_cell_angle_alpha   120.00006770
_cell_angle_beta   90.00000588
_cell_angle_gamma   89.99999204
_symmetry_Int_Tables_number   1
_chemical_formula_structural   NiH16C26(NO)4
_chemical_formula_sum   'Ni3 H48 C78 N12 O12'
_cell_volume   7892.38075479
_cell_formula_units_Z   3
loop_
 _symmetry_equiv_pos_site_id
 _symmetry_equiv_pos_as_xyz
  1  'x, y, z'
loop_
 _atom_site_type_symbol
 _atom_site_label
 _atom_site_symmetry_multiplicity
 _atom_site_fract_x
 _atom_site_fract_y
 _atom_site_fract_z
 _atom_site_occupancy
 _atom_site_pbe_bader_charge
 _atom_site_pbe_bader_spin_density
 _atom_site_pbe_cm5_charge
 _atom_site_pbe_ddec_charge
 _atom_site_pbe_ddec_spin_density
 _atom_site_pbe_ddec_sum_bond_order
 _atom_site_pbe_magmom
Ni  Ni0  1  0.50543615  0.99999999  0.50000006  1  1.19377  1.561474  0.645699  0.727848  1.782867  2.624788  1.547
Ni  Ni1  1  0.50543434  0.49999989  0.99999988  1  1.194392  1.561482  0.64575  0.727811  1.782872  2.624835  1.547
Ni  Ni2  1  0.50543642  0.49999985  0.49999994  1  1.188697  1.561243  0.645692  0.727821  1.782869  2.624868  1.547
H  H3  1  0.53357172  0.05966011  0.48007065  1  0.138048  0.00182  0.127965  0.107558  0.000574  0.968256  0.001
H  H4  1  0.53357171  0.42041042  0.94033991  1  0.138575  0.001821  0.127977  0.107602  0.000574  0.968152  0.001
H  H5  1  0.53357151  0.51992924  0.57958929  1  0.137843  0.001818  0.127971  0.107585  0.000574  0.968228  0.001
H  H6  1  0.53357126  0.94033974  0.51992908  1  0.138053  0.00182  0.128027  0.10767  0.000574  0.968285  0.001
H  H7  1  0.53357128  0.57958954  0.05966021  1  0.138576  0.001821  0.127975  0.107596  0.000574  0.968157  0.001
H  H8  1  0.53357147  0.48007085  0.42041069  1  0.137834  0.001817  0.128013  0.107647  0.000574  0.968302  0.001
H  H9  1  0.54410355  0.12919251  0.51251013  1  0.04803  0.001136  0.107793  0.11164  0.00055  1.003638  0.0
H  H10  1  0.54410355  0.38331778  0.87080747  1  0.036233  0.001147  0.107756  0.111595  0.00055  1.003802  0.0
H  H11  1  0.54410339  0.48748948  0.61668224  1  0.104155  0.001104  0.107762  0.111632  0.00055  1.003775  0.0
H  H12  1  0.54410314  0.87080758  0.48748985  1  0.048037  0.001136  0.107765  0.111596  0.00055  1.003768  0.0
H  H13  1  0.54410313  0.61668217  0.12919264  1  0.036236  0.001147  0.107757  0.111627  0.00055  1.003784  0.0
H  H14  1  0.54410329  0.51251047  0.38331788  1  0.104154  0.001104  0.107757  0.111625  0.00055  1.003783  0.0
H  H15  1  0.68676683  0.18216465  0.63810957  1  0.06115  9.1e-05  0.103827  0.102624  4.5e-05  1.002259  0.0
H  H16  1  0.68676488  0.45594494  0.81783552  1  0.058335  9e-05  0.10384  0.102675  4.5e-05  1.002197  0.0
H  H17  1  0.68676482  0.36189055  0.54405486  1  0.065466  9e-05  0.103822  0.102646  4.5e-05  1.002241  0.0
H  H18  1  0.68676450  0.81783544  0.36189041  1  0.061153  9.1e-05  0.103809  0.102603  4.5e-05  1.002232  0.0
H  H19  1  0.68676458  0.54405490  0.18216422  1  0.058332  9e-05  0.103841  0.102677  4.5e-05  1.002195  0.0
H  H20  1  0.68676463  0.63810954  0.45594512  1  0.065527  9e-05  0.103829  0.102663  4.5e-05  1.002236  0.0
H  H21  1  0.67543567  0.25133947  0.67308828  1  0.095814  -3e-06  0.10605  0.106874  4e-06  1.002977  0.0
H  H22  1  0.67543749  0.42174861  0.74866043  1  0.097406  -3e-06  0.106053  0.106866  4e-06  1.002888  0.0
H  H23  1  0.67543559  0.32691192  0.57825138  1  0.136725  -4e-06  0.106052  0.106857  4e-06  1.003  0.0
H  H24  1  0.67543715  0.74866048  0.32691184  1  0.095816  -3e-06  0.106049  0.106859  4e-06  1.002934  0.0
H  H25  1  0.67543721  0.57825147  0.25133955  1  0.097413  -3e-06  0.106051  0.10689  4e-06  1.002881  0.0
H  H26  1  0.67543534  0.67308803  0.42174874  1  0.136724  -4e-06  0.106051  0.10687  4e-06  1.003001  0.0
H  H27  1  0.47995524  0.12922069  0.61672875  1  0.033722  0.001148  0.107504  0.111252  0.000551  1.003639  0.0
H  H28  1  0.47995703  0.48750804  0.87077942  1  0.045727  0.001139  0.107517  0.111282  0.000551  1.003605  0.0
H  H29  1  0.47995506  0.38327152  0.51249215  1  0.10239  0.001107  0.107472  0.111219  0.000551  1.003745  0.0
H  H30  1  0.47995474  0.87077950  0.38327161  1  0.03373  0.001148  0.107476  0.111222  0.000551  1.003731  0.0
H  H31  1  0.47995672  0.51249205  0.12922056  1  0.045731  0.001139  0.107518  0.11126  0.000551  1.003622  0.0
H  H32  1  0.47995680  0.61672843  0.48750797  1  0.102394  0.001107  0.10748  0.111224  0.000551  1.003737  0.0
H  H33  1  0.48095767  0.05968045  0.57956665  1  0.142299  0.001827  0.128083  0.107631  0.000577  0.967818  0.001
H  H34  1  0.48095756  0.51988588  0.94031937  1  0.140292  0.001826  0.128082  0.10763  0.000577  0.967878  0.001
H  H35  1  0.48095743  0.42043330  0.48011397  1  0.139753  0.001826  0.128073  0.107589  0.000577  0.967901  0.001
H  H36  1  0.48095713  0.94031964  0.42043333  1  0.141913  0.001827  0.128079  0.107616  0.000577  0.96783  0.001
H  H37  1  0.48095723  0.48011421  0.05968061  1  0.140297  0.001826  0.12801  0.107464  0.000577  0.967916  0.001
H  H38  1  0.48095736  0.57956665  0.51988615  1  0.139751  0.001826  0.128079  0.107624  0.000577  0.967871  0.001
H  H39  1  0.33647946  0.18213226  0.54406964  1  0.038218  8.5e-05  0.103922  0.102647  4.2e-05  1.002284  0.0
H  H40  1  0.33647947  0.36193719  0.81786762  1  0.06336  8.7e-05  0.103902  0.102641  4.3e-05  1.002157  0.0
H  H41  1  0.33648123  0.45593019  0.63806272  1  0.06604  8.6e-05  0.103903  0.102658  4.2e-05  1.002243  0.0
H  H42  1  0.33647908  0.81786770  0.45593047  1  0.038217  8.5e-05  0.10392  0.102661  4.2e-05  1.002226  0.0
H  H43  1  0.33647907  0.63806267  0.18213211  1  0.063351  8.7e-05  0.103926  0.102651  4.2e-05  1.002171  0.0
H  H44  1  0.33647919  0.54406976  0.36193740  1  0.065962  8.6e-05  0.103907  0.102668  4.2e-05  1.002204  0.0
H  H45  1  0.34734040  0.25131136  0.57825132  1  0.095466  -2e-06  0.106155  0.106972  4e-06  1.002744  0.0
H  H46  1  0.34734043  0.32693987  0.74868869  1  0.099763  -2e-06  0.10614  0.106967  4e-06  1.002788  0.0
H  H47  1  0.34734035  0.42174879  0.67306008  1  0.133971  -3e-06  0.106164  0.107029  4e-06  1.002802  0.0
H  H48  1  0.34734007  0.74868859  0.42174880  1  0.095465  -2e-06  0.106152  0.106984  4e-06  1.002755  0.0
H  H49  1  0.34734004  0.67306023  0.25131129  1  0.09976  -2e-06  0.106143  0.106953  4e-06  1.002786  0.0
H  H50  1  0.34734012  0.57825106  0.32693965  1  0.13396  -3e-06  0.106145  0.107016  4e-06  1.002768  0.0
C  C51  1  0.51130250  0.13577826  0.56789545  1  -0.013852  -0.008419  0.007185  0.100058  -0.008933  4.004072  -0.005
C  C52  1  0.51130246  0.43211736  0.86422176  1  -0.0166  -0.008419  0.007219  0.100999  -0.008932  4.004439  -0.005
C  C53  1  0.51130422  0.43210428  0.56788250  1  -0.095284  -0.008417  0.007158  0.100925  -0.008932  4.004591  -0.005
C  C54  1  0.51130206  0.86422183  0.43210453  1  -0.01386  -0.008419  0.007169  0.100876  -0.008932  4.004537  -0.005
C  C55  1  0.51130398  0.56788249  0.13577797  1  -0.016628  -0.008419  0.007189  0.100973  -0.008932  4.004542  -0.005
C  C56  1  0.51130410  0.56789557  0.43211724  1  -0.095277  -0.008417  0.007194  0.100989  -0.008931  4.00446  -0.005
C  C57  1  0.51184601  0.17692262  0.58846368  1  0.029213  0.000555  -0.002075  0.072733  7.1e-05  3.98818  0.001
C  C58  1  0.51184598  0.41154060  0.82307723  1  0.031914  0.000555  -0.002065  0.069876  6.9e-05  3.992213  0.001
C  C59  1  0.51184588  0.41153641  0.58845908  1  0.139074  0.000545  -0.002087  0.069838  6.9e-05  3.992173  0.001
C  C60  1  0.51184559  0.82307747  0.41153630  1  0.029233  0.000555  -0.00205  0.069885  6.9e-05  3.992188  0.001
C  C61  1  0.51184562  0.58845911  0.17692265  1  0.031858  0.000555  -0.002044  0.069879  6.9e-05  3.992182  0.001
C  C62  1  0.51184760  0.58846392  0.41154114  1  0.139078  0.000545  -0.002095  0.069835  6.9e-05  3.992152  0.001
C  C63  1  0.51144916  0.25559603  0.62780141  1  0.046122  -0.001982  -0.006244  0.006287  -0.002112  3.978235  -0.001
C  C64  1  0.51145290  0.37220557  0.74440400  1  0.000635  -0.001995  -0.006251  0.006326  -0.002112  3.978179  -0.001
C  C65  1  0.51145097  0.37219831  0.62779430  1  -0.062053  -0.001985  -0.006236  0.006437  -0.002112  3.978179  -0.001
C  C66  1  0.51145067  0.74440382  0.37219832  1  0.046114  -0.001982  -0.006255  0.006351  -0.002112  3.978167  -0.001
C  C67  1  0.51145257  0.62779452  0.25559598  1  0.000635  -0.001995  -0.006246  0.006366  -0.002112  3.978175  -0.001
C  C68  1  0.51145073  0.62780154  0.37220544  1  -0.062018  -0.001985  -0.006198  0.00644  -0.002111  3.978148  -0.001
C  C69  1  0.51140024  0.29671422  0.64835910  1  1.023699  -0.00033  0.255808  0.385702  -0.000393  4.022431  0.0
C  C70  1  0.51140212  0.35164466  0.70328564  1  1.063504  -0.000316  0.255828  0.38576  -0.000393  4.022361  0.0
C  C71  1  0.51140022  0.35164075  0.64835525  1  1.140911  -0.000323  0.255814  0.385702  -0.000393  4.022377  0.0
C  C72  1  0.51139991  0.70328587  0.35164088  1  1.023688  -0.00033  0.255802  0.385679  -0.000393  4.022416  0.0
C  C73  1  0.51140180  0.64835543  0.29671434  1  1.063508  -0.000316  0.255785  0.385669  -0.000393  4.022432  0.0
C  C74  1  0.51139994  0.64835920  0.35164487  1  1.140898  -0.000323  0.255853  0.38582  -0.000393  4.022336  0.0
C  C75  1  0.52205440  0.07648061  0.51036360  1  0.457591  -0.005531  0.053528  0.10161  -0.00611  3.937726  -0.004
C  C76  1  0.52205625  0.43388287  0.92351911  1  0.539723  -0.005581  0.053543  0.101566  -0.00611  3.937681  -0.004
C  C77  1  0.52205608  0.48963628  0.56611714  1  0.463256  -0.005534  0.053531  0.101632  -0.00611  3.937733  -0.004
C  C78  1  0.52205581  0.92351934  0.48963652  1  0.457582  -0.005531  0.053533  0.101579  -0.00611  3.937716  -0.004
C  C79  1  0.52205584  0.56611722  0.07648087  1  0.539715  -0.005581  0.053545  0.101598  -0.00611  3.937666  -0.004
C  C80  1  0.52205602  0.51036343  0.43388274  1  0.463247  -0.005534  0.053519  0.101583  -0.00611  3.937768  -0.004
C  C81  1  0.52568035  0.11521178  0.52876576  1  -0.066604  0.005468  -0.0867  -0.183518  0.003016  3.96537  0.004
C  C82  1  0.52568221  0.41355376  0.88478829  1  -0.072419  0.005542  -0.086687  -0.183485  0.003016  3.96535  0.004
C  C83  1  0.52568206  0.47123408  0.58644594  1  -0.053645  0.005506  -0.086717  -0.183586  0.003016  3.965349  0.004
C  C84  1  0.52568179  0.88478807  0.47123398  1  -0.066608  0.005468  -0.086659  -0.183393  0.003016  3.965317  0.004
C  C85  1  0.52567993  0.58644619  0.11521183  1  -0.072401  0.005541  -0.086735  -0.183623  0.003016  3.965368  0.004
C  C86  1  0.52568196  0.52876601  0.41355404  1  -0.053645  0.005506  -0.086745  -0.18362  0.003016  3.965343  0.004
C  C87  1  0.60600072  0.19708656  0.62510119  1  -0.032103  -0.001652  -0.088176  -0.129312  -0.001747  3.980995  -0.001
C  C88  1  0.60600067  0.42801490  0.80291351  1  -0.138253  -0.001666  -0.088117  -0.128339  -0.001747  3.981669  -0.001
C  C89  1  0.60600060  0.37489845  0.57198500  1  -0.091844  -0.001651  -0.088158  -0.128409  -0.001747  3.981632  -0.001
C  C90  1  0.60599841  0.80291329  0.37489854  1  -0.032104  -0.001652  -0.088154  -0.128372  -0.001747  3.981772  -0.001
C  C91  1  0.60600223  0.57198519  0.19708646  1  -0.13819  -0.001666  -0.088142  -0.12835  -0.001747  3.981706  -0.001
C  C92  1  0.60600041  0.62510150  0.42801512  1  -0.091942  -0.001651  -0.088189  -0.12845  -0.001747  3.981735  -0.001
C  C93  1  0.60306308  0.23582208  0.64469756  1  -0.060514  0.000526  -0.079882  -0.094285  0.000233  3.977738  0.0
C  C94  1  0.60306679  0.40887498  0.76417757  1  0.022058  0.000541  -0.079924  -0.094298  0.000233  3.977533  0.0
C  C95  1  0.60306299  0.35530218  0.59112475  1  -0.059089  0.000528  -0.079861  -0.094209  0.000233  3.977566  0.0
C  C96  1  0.60306456  0.76417786  0.35530256  1  -0.060527  0.000526  -0.079883  -0.09423  0.000233  3.977566  0.0
C  C97  1  0.60306648  0.59112487  0.23582217  1  0.022066  0.000541  -0.079964  -0.09441  0.000233  3.977514  0.0
C  C98  1  0.60306464  0.64469777  0.40887537  1  -0.059097  0.000528  -0.079892  -0.094269  0.000233  3.977609  0.0
C  C99  1  0.00547489  0.00003663  0.51891621  1  1.56904  -0.003211  0.191944  0.450346  -0.003602  4.222035  -0.004
C  C100  1  0.00547668  0.51887931  0.99996317  1  1.555162  -0.003211  0.191976  0.45045  -0.003602  4.221927  -0.004
C  C101  1  0.00547461  0.48108409  0.48112070  1  1.539096  -0.003289  0.191948  0.450407  -0.003602  4.221954  -0.004
C  C102  1  0.00547433  0.99996319  0.48108405  1  1.553462  -0.003206  0.192027  0.450509  -0.003602  4.221818  -0.004
C  C103  1  0.00547442  0.48112065  0.00003694  1  1.570689  -0.003215  0.192011  0.450494  -0.003603  4.221858  -0.004
C  C104  1  0.00547461  0.51891625  0.51887952  1  1.598712  -0.003238  0.192034  0.45051  -0.003602  4.221836  -0.004
C  C105  1  0.49559126  0.11522416  0.58645920  1  -0.067954  0.005556  -0.086485  -0.182512  0.003024  3.963141  0.004
C  C106  1  0.49559119  0.47123510  0.88477603  1  -0.06413  0.005475  -0.086507  -0.182544  0.003024  3.962957  0.004
C  C107  1  0.49559108  0.41354061  0.52876500  1  -0.048975  0.00551  -0.086429  -0.182392  0.003024  3.963114  0.004
C  C108  1  0.49559078  0.88477569  0.41354054  1  -0.067971  0.005556  -0.086465  -0.182439  0.003024  3.962994  0.004
C  C109  1  0.49559085  0.52876485  0.11522409  1  -0.064143  0.005475  -0.086446  -0.182427  0.003024  3.963023  0.004
C  C110  1  0.49559284  0.58645934  0.47123512  1  -0.048986  0.00551  -0.08647  -0.182452  0.003024  3.96306  0.004
C  C111  1  0.49406228  0.07649111  0.56609465  1  0.526161  -0.005637  0.053394  0.101096  -0.006152  3.936273  -0.004
C  C112  1  0.49406220  0.48960351  0.92350859  1  0.450826  -0.005572  0.0534  0.101076  -0.006152  3.936309  -0.004
C  C113  1  0.49406394  0.43390529  0.51039646  1  0.455861  -0.005564  0.053446  0.101164  -0.006152  3.936284  -0.004
C  C114  1  0.49406177  0.92350898  0.43390532  1  0.526557  -0.005637  0.053409  0.101157  -0.006152  3.93627  -0.004
C  C115  1  0.49406185  0.51039658  0.07649139  1  0.450838  -0.005572  0.053453  0.101209  -0.006152  3.93626  -0.004
C  C116  1  0.49406198  0.56609480  0.48960352  1  0.455863  -0.005563  0.053402  0.101094  -0.006151  3.936351  -0.004
C  C117  1  0.41736592  0.19707189  0.57199028  1  -0.107114  -0.001681  -0.088265  -0.128803  -0.001765  3.980983  -0.001
C  C118  1  0.41736780  0.37491859  0.80292823  1  -0.032336  -0.00167  -0.088261  -0.127937  -0.001764  3.98175  -0.001
C  C119  1  0.41736582  0.42800967  0.62508144  1  -0.098543  -0.001669  -0.088192  -0.127811  -0.001764  3.981673  -0.001
C  C120  1  0.41736554  0.80292782  0.42800960  1  -0.107127  -0.001681  -0.088265  -0.127892  -0.001764  3.98177  -0.001
C  C121  1  0.41736742  0.62508174  0.19707199  1  -0.032318  -0.001669  -0.088297  -0.12794  -0.001764  3.981729  -0.001
C  C122  1  0.41736564  0.57199042  0.37491853  1  -0.098445  -0.001669  -0.088146  -0.127744  -0.001764  3.981591  -0.001
C  C123  1  0.41992552  0.23580918  0.59112932  1  0.015446  0.000571  -0.080029  -0.094962  0.000252  3.978688  0.0
C  C124  1  0.41992741  0.35532001  0.76419104  1  -0.062514  0.000558  -0.080057  -0.094977  0.000252  3.978422  0.0
C  C125  1  0.41992545  0.40887044  0.64467963  1  -0.053666  0.00056  -0.080138  -0.095213  0.000252  3.978523  0.0
C  C126  1  0.41992517  0.76419091  0.40887066  1  0.015468  0.000571  -0.080047  -0.095005  0.000252  3.978482  0.0
C  C127  1  0.41992704  0.64467994  0.23580908  1  -0.06253  0.000558  -0.079994  -0.094884  0.000252  3.97847  0.0
C  C128  1  0.41992524  0.59112941  0.35532011  1  -0.053674  0.00056  -0.080143  -0.095232  0.000252  3.978517  0.0
N  N129  1  0.50641839  0.05728881  0.52862062  1  -1.17208  0.066349  -0.324544  -0.213067  0.039125  3.576495  0.06
N  N130  1  0.50641833  0.47133135  0.94271120  1  -1.172943  0.066342  -0.324569  -0.212983  0.039125  3.576385  0.06
N  N131  1  0.50641816  0.47137947  0.52866817  1  -1.175208  0.066415  -0.324541  -0.213054  0.039125  3.576472  0.06
N  N132  1  0.50641789  0.94271114  0.47137950  1  -1.172067  0.066348  -0.324607  -0.213202  0.039124  3.576474  0.06
N  N133  1  0.50641794  0.52866874  0.05728878  1  -1.17294  0.066341  -0.324549  -0.212949  0.039124  3.576349  0.06
N  N134  1  0.50641811  0.52862062  0.47133181  1  -1.175191  0.066417  -0.324531  -0.21303  0.039125  3.576466  0.06
N  N135  1  0.51141342  0.31414319  0.68586104  1  -1.04367  -0.001377  -0.312651  -0.419711  -0.0014  3.202248  -0.001
N  N136  1  0.51141338  0.37171769  0.68585658  1  -1.240468  -0.001382  -0.312635  -0.419679  -0.0014  3.202211  -0.001
N  N137  1  0.51141339  0.31413913  0.62828247  1  -1.241501  -0.001382  -0.312635  -0.419667  -0.0014  3.202234  -0.001
N  N138  1  0.51141307  0.68585676  0.31413908  1  -1.043674  -0.001377  -0.312647  -0.419674  -0.0014  3.202254  -0.001
N  N139  1  0.51141310  0.62828226  0.31414354  1  -1.240456  -0.001382  -0.312612  -0.419689  -0.0014  3.202233  -0.001
N  N140  1  0.51141309  0.68586096  0.37171751  1  -1.241493  -0.001382  -0.312625  -0.419677  -0.0014  3.202201  -0.001
O  O141  1  0.79394348  0.00010535  0.53310558  1  -1.127413  0.081951  -0.310388  -0.496503  0.046368  2.333978  0.075
O  O142  1  0.79394149  0.53300007  0.99989469  1  -1.12825  0.081952  -0.310435  -0.496596  0.046371  2.334039  0.075
O  O143  1  0.79394320  0.46689483  0.46700006  1  -1.12944  0.082036  -0.310431  -0.496545  0.046368  2.333957  0.075
O  O144  1  0.79394291  0.99989460  0.46689454  1  -1.127399  0.081952  -0.310441  -0.496578  0.046369  2.333914  0.075
O  O145  1  0.79394113  0.46699988  0.00010543  1  -1.12827  0.08195  -0.310451  -0.496619  0.04637  2.334057  0.075
O  O146  1  0.79394319  0.53310536  0.53300030  1  -1.129456  0.082036  -0.310441  -0.496568  0.046367  2.333922  0.075
O  O147  1  0.21691676  0.00002102  0.53304885  1  -1.123855  0.082006  -0.3106  -0.496352  0.046343  2.335632  0.075
O  O148  1  0.21691478  0.53302756  0.99997880  1  -1.125118  0.082003  -0.310578  -0.49634  0.046341  2.335588  0.075
O  O149  1  0.21691648  0.46695130  0.46697257  1  -1.128845  0.082045  -0.310542  -0.496355  0.046343  2.335682  0.075
O  O150  1  0.21691619  0.99997880  0.46695140  1  -1.123849  0.082006  -0.310595  -0.496373  0.046343  2.335537  0.075
O  O151  1  0.21691630  0.46697239  0.00002132  1  -1.125115  0.082004  -0.310611  -0.496369  0.046342  2.335524  0.075
O  O152  1  0.21691647  0.53304866  0.53302754  1  -1.128851  0.082043  -0.310605  -0.496393  0.046342  2.335591  0.075
