# generated using pymatgen
data_NiH22C18(NO3)2
_symmetry_space_group_name_H-M   'P 1'
_cell_length_a   8.97372924
_cell_length_b   9.28956721
_cell_length_c   12.31591431
_cell_angle_alpha   89.20114232
_cell_angle_beta   89.99796016
_cell_angle_gamma   117.29071300
_symmetry_Int_Tables_number   1
_chemical_formula_structural   NiH22C18(NO3)2
_chemical_formula_sum   'Ni2 H44 C36 N4 O12'
_cell_volume   912.28929780
_cell_formula_units_Z   2
loop_
 _symmetry_equiv_pos_site_id
 _symmetry_equiv_pos_as_xyz
  1  'x, y, z'
loop_
 _atom_site_type_symbol
 _atom_site_label
 _atom_site_symmetry_multiplicity
 _atom_site_fract_x
 _atom_site_fract_y
 _atom_site_fract_z
 _atom_site_occupancy
 _atom_site_pbe_cm5_charge
 _atom_site_pbe_ddec_charge
 _atom_site_pbe_ddec_spin_density
 _atom_site_pbe_ddec_sum_bond_order
 _atom_site_pbe_magmom
Ni  Ni0  1  0.00000285  0.00000151  0.99999985  1  0.645681  0.745027  -1.8526  2.468299  -1.541
Ni  Ni1  1  0.00000111  0.50000052  0.49999850  1  0.619478  0.654928  0.042461  2.508951  -0.031
H  H2  1  0.85444389  0.92357086  0.17585885  1  0.285907  0.319846  9.6e-05  1.042976  0.0
H  H3  1  0.14158855  0.57752971  0.68432954  1  0.283632  0.317047  -5.2e-05  1.051496  0.0
H  H4  1  0.14556035  0.07643163  0.82413866  1  0.285909  0.31984  9.7e-05  1.042951  0.0
H  H5  1  0.85840563  0.42247038  0.31566879  1  0.283631  0.317032  -5.2e-05  1.05152  0.0
H  H6  1  0.40744417  0.89128046  0.09869697  1  0.101005  0.113265  -0.000792  1.004188  -0.001
H  H7  1  0.58983684  0.60576567  0.59793795  1  0.100816  0.112921  -0.000697  1.003993  -0.001
H  H8  1  0.59255778  0.10871958  0.90130299  1  0.100994  0.113257  -0.000792  1.004183  -0.001
H  H9  1  0.41016009  0.39423319  0.40206121  1  0.100806  0.112909  -0.000697  1.004073  -0.001
H  H10  1  0.52408633  0.10181772  0.10238690  1  0.103654  0.119227  0.00027  0.969242  0.0
H  H11  1  0.47090457  0.39537470  0.60370564  1  0.104148  0.120618  0.000144  0.966616  0.0
H  H12  1  0.47591900  0.89818472  0.89761386  1  0.103634  0.119231  0.00027  0.969242  0.0
H  H13  1  0.52909290  0.60462294  0.39629352  1  0.104132  0.120624  0.000144  0.966583  0.0
H  H14  1  0.74505572  0.85596479  0.83742874  1  0.117834  0.090859  -0.00065  1.011282  -0.001
H  H15  1  0.24648509  0.63780799  0.34051234  1  0.121542  0.098631  0.000881  1.012689  0.001
H  H16  1  0.25494390  0.14403036  0.16257530  1  0.117826  0.09087  -0.00065  1.011219  -0.001
H  H17  1  0.75351305  0.36219572  0.65948598  1  0.12151  0.098589  0.000881  1.012689  0.001
H  H18  1  0.08772314  0.73422808  0.07082143  1  0.1021  0.123368  3.8e-05  1.024694  0.0
H  H19  1  0.90809390  0.75588929  0.57959281  1  0.101876  0.123227  -0.000109  1.024554  0.0
H  H20  1  0.91227659  0.26577197  0.92917853  1  0.102094  0.123349  3.8e-05  1.02471  0.0
H  H21  1  0.09190637  0.24410954  0.42040716  1  0.101867  0.123243  -0.000109  1.024545  0.0
H  H22  1  0.94490607  0.54728218  0.13291478  1  0.100135  0.115667  0.000287  1.001109  0.0
H  H23  1  0.05027386  0.94925224  0.63017549  1  0.099712  0.114124  -0.00028  0.991386  0.0
H  H24  1  0.05509478  0.45271787  0.86708517  1  0.100136  0.115661  0.000287  1.001074  0.0
H  H25  1  0.94972365  0.05074782  0.36982447  1  0.09974  0.114178  -0.00028  0.991424  0.0
H  H26  1  0.80110928  0.68930374  0.22441847  1  0.096794  0.060783  -0.000361  0.997268  0.0
H  H27  1  0.20494953  0.81647781  0.72695216  1  0.094445  0.058049  0.000113  1.001978  0.0
H  H28  1  0.19889330  0.31069994  0.77558147  1  0.096784  0.06075  -0.000361  0.997289  0.0
H  H29  1  0.79504851  0.18352102  0.27304862  1  0.094442  0.058045  0.000113  1.001969  0.0
H  H30  1  0.01499265  0.76069099  0.26136027  1  0.095432  0.064351  -0.001351  0.998713  -0.002
H  H31  1  0.99576635  0.75328508  0.77199063  1  0.095156  0.064893  0.001204  1.006536  0.001
H  H32  1  0.98500984  0.23930784  0.73863969  1  0.095435  0.064361  -0.001351  0.998718  -0.002
H  H33  1  0.00423453  0.24671737  0.22801094  1  0.095154  0.064883  0.001204  1.006559  0.001
H  H34  1  0.52439479  0.58295417  0.78099637  1  0.10212  0.111554  -0.000367  1.058297  0.0
H  H35  1  0.47031228  0.91054908  0.28161535  1  0.104101  0.114605  0.000221  1.055122  0.0
H  H36  1  0.47560668  0.41704952  0.21900276  1  0.102116  0.111526  -0.000367  1.058316  0.0
H  H37  1  0.52969085  0.08945342  0.71838135  1  0.104113  0.114603  0.000221  1.055194  0.0
H  H38  1  0.72319713  0.37549175  0.02216795  1  0.10704  0.117  -0.000539  1.001668  -0.001
H  H39  1  0.27368568  0.11610750  0.52089724  1  0.10813  0.11868  0.000239  0.999469  0.0
H  H40  1  0.27680037  0.62450830  0.97783282  1  0.107027  0.116978  -0.000539  1.00164  -0.001
H  H41  1  0.72631348  0.88389135  0.47910191  1  0.108134  0.118681  0.000239  0.999456  0.0
H  H42  1  0.51896857  0.33538947  0.87141217  1  0.103524  0.103684  0.000104  1.033854  0.0
H  H43  1  0.47890984  0.15780909  0.37003510  1  0.105309  0.107216  0.000129  1.02812  0.0
H  H44  1  0.48102947  0.66460938  0.12858779  1  0.103499  0.103629  0.000104  1.033806  0.0
H  H45  1  0.52108993  0.84219337  0.62996647  1  0.105307  0.107226  0.000129  1.028041  0.0
C  C46  1  0.51472449  0.99381996  0.06031757  1  -0.167326  -0.28279  -0.004461  3.963068  -0.005
C  C47  1  0.48308855  0.50487340  0.55997177  1  -0.165606  -0.279194  -0.003494  3.954443  -0.004
C  C48  1  0.48527746  0.00618008  0.93968320  1  -0.167345  -0.282858  -0.004461  3.963124  -0.005
C  C49  1  0.51691057  0.49512303  0.44002659  1  -0.165592  -0.279282  -0.003494  3.954521  -0.004
C  C50  1  0.73367905  0.74501145  0.87594027  1  0.042439  0.088532  0.003973  3.959681  0.003
C  C51  1  0.25962513  0.74822398  0.37838929  1  0.043857  0.082608  0.000734  3.940539  0.0
C  C52  1  0.26631954  0.25498856  0.12406375  1  0.042416  0.088429  0.003973  3.959621  0.003
C  C53  1  0.74037687  0.25177850  0.62160984  1  0.043911  0.082717  0.000734  3.940464  0.0
C  C54  1  0.67376617  0.98022181  0.08394745  1  0.211304  0.614084  0.000885  4.147523  0.001
C  C55  1  0.32447299  0.52069246  0.58347151  1  0.213299  0.60859  -0.00106  4.141893  0.0
C  C56  1  0.32623579  0.01977823  0.91605250  1  0.211319  0.614215  0.000885  4.147601  0.001
C  C57  1  0.67552675  0.47930760  0.41652763  1  0.213313  0.608664  -0.001059  4.141799  0.0
C  C58  1  0.95846361  0.66348411  0.10059388  1  -0.168717  -0.295771  -0.002192  3.95476  -0.004
C  C59  1  0.03811928  0.83146196  0.60477194  1  -0.167957  -0.294922  0.002947  3.955712  0.002
C  C60  1  0.04153665  0.33651472  0.89940689  1  -0.168727  -0.295748  -0.002192  3.954701  -0.004
C  C61  1  0.96187987  0.16853688  0.39522722  1  -0.167966  -0.295019  0.002947  3.95576  0.002
C  C62  1  0.83935381  0.63520014  0.00862169  1  0.125139  0.273873  0.002503  3.91591  0.002
C  C63  1  0.15468532  0.85686832  0.51111154  1  0.126672  0.270175  0.001558  3.901352  0.001
C  C64  1  0.16064528  0.36479624  0.99138073  1  0.125221  0.273943  0.002503  3.915722  0.002
C  C65  1  0.84531162  0.14313055  0.48888681  1  0.126651  0.27016  0.001558  3.901422  0.001
C  C66  1  0.93123372  0.75507230  0.19462231  1  -0.074483  0.107405  -0.001411  3.861702  0.0
C  C67  1  0.07244412  0.74898445  0.70375519  1  -0.078679  0.10388  0.000668  3.891051  0.0
C  C68  1  0.06876939  0.24493017  0.80537763  1  -0.074463  0.107438  -0.001411  3.861668  0.0
C  C69  1  0.92755392  0.25101440  0.29624478  1  -0.078659  0.10393  0.000668  3.891017  0.0
C  C70  1  0.61429571  0.59294962  0.84369259  1  -0.092513  -0.143463  -0.003284  3.98255  -0.004
C  C71  1  0.38055150  0.90039451  0.34467742  1  -0.089964  -0.139851  0.00222  3.980886  0.002
C  C72  1  0.38570124  0.40705162  0.15631061  1  -0.092497  -0.143366  -0.003284  3.982543  -0.004
C  C73  1  0.61945389  0.09961038  0.65532170  1  -0.089957  -0.13987  0.00222  3.980902  0.002
C  C74  1  0.72365008  0.47859469  0.97848126  1  -0.085542  -0.180825  -0.003537  3.940824  -0.005
C  C75  1  0.27221247  0.01333845  0.47837463  1  -0.085297  -0.182767  0.002666  3.946137  0.002
C  C76  1  0.27634520  0.52140536  0.02151951  1  -0.085587  -0.180859  -0.003537  3.940583  -0.005
C  C77  1  0.72778785  0.98666283  0.52162370  1  -0.085254  -0.182722  0.002666  3.946188  0.002
C  C78  1  0.61065102  0.45660331  0.89525035  1  -0.071861  -0.020553  0.005736  3.966062  0.004
C  C79  1  0.38588749  0.03631398  0.39501317  1  -0.071597  -0.022167  -0.000417  3.970247  0.0
C  C80  1  0.38934474  0.54339311  0.10475044  1  -0.071804  -0.020476  0.005736  3.965884  0.004
C  C81  1  0.61411229  0.96368852  0.60498434  1  -0.07166  -0.022236  -0.000417  3.970121  0.0
N  N82  1  0.84425191  0.76642847  0.95594412  1  -0.331573  -0.28305  -0.041998  3.544153  -0.061
N  N83  1  0.14916532  0.72605131  0.45954932  1  -0.333305  -0.249537  0.026232  3.56995  0.022
N  N84  1  0.15574945  0.23357032  0.04405909  1  -0.331586  -0.283025  -0.041998  3.544145  -0.061
N  N85  1  0.85083611  0.27394997  0.54044820  1  -0.333356  -0.249613  0.026233  3.569988  0.022
O  O86  1  0.78755696  0.03339846  0.01095855  1  -0.308402  -0.543546  -0.040906  2.391372  -0.064
O  O87  1  0.20915614  0.46653119  0.51176336  1  -0.299577  -0.52211  -0.032004  2.387479  -0.047
O  O88  1  0.21244447  0.96660281  0.98904059  1  -0.308412  -0.543577  -0.040907  2.391496  -0.064
O  O89  1  0.79084249  0.53346888  0.48823497  1  -0.299556  -0.522066  -0.032003  2.387482  -0.047
O  O90  1  0.96603476  0.91811709  0.16528898  1  -0.3963  -0.487788  -0.040484  2.426365  -0.061
O  O91  1  0.03106607  0.58356094  0.68427645  1  -0.403711  -0.500258  0.03088  2.367445  0.03
O  O92  1  0.03397112  0.08188416  0.83471016  1  -0.396336  -0.487821  -0.040484  2.426319  -0.062
O  O93  1  0.96893032  0.41643912  0.31572432  1  -0.403692  -0.500216  0.030883  2.367403  0.03
O  O94  1  0.68353092  0.91818080  0.17509088  1  -0.322452  -0.559616  0.000925  2.206467  0.0
O  O95  1  0.31721790  0.58399538  0.67266448  1  -0.314796  -0.550461  -0.000141  2.212231  0.0
O  O96  1  0.31647095  0.08181442  0.82490667  1  -0.322456  -0.559716  0.000925  2.206489  0.0
O  O97  1  0.68277958  0.41600228  0.32733306  1  -0.31484  -0.550536  -0.000141  2.212149  0.0
