# generated using pymatgen
data_Zn2H20C28S(NO4)2
_symmetry_space_group_name_H-M   'P 1'
_cell_length_a   9.34109025
_cell_length_b   9.48850419
_cell_length_c   17.93347339
_cell_angle_alpha   82.73476742
_cell_angle_beta   89.02136207
_cell_angle_gamma   70.28093782
_symmetry_Int_Tables_number   1
_chemical_formula_structural   Zn2H20C28S(NO4)2
_chemical_formula_sum   'Zn4 H40 C56 S2 N4 O16'
_cell_volume   1483.71576013
_cell_formula_units_Z   2
loop_
 _symmetry_equiv_pos_site_id
 _symmetry_equiv_pos_as_xyz
  1  'x, y, z'
loop_
 _atom_site_type_symbol
 _atom_site_label
 _atom_site_symmetry_multiplicity
 _atom_site_fract_x
 _atom_site_fract_y
 _atom_site_fract_z
 _atom_site_occupancy
 _atom_site_pbe_bader_charge
 _atom_site_pbe_bader_spin_density
 _atom_site_pbe_cm5_charge
 _atom_site_pbe_ddec_charge
 _atom_site_pbe_ddec_spin_density
 _atom_site_pbe_ddec_sum_bond_order
 _atom_site_pbe_magmom
Zn  Zn0  1  0.19589798  0.90363248  0.14152381  1  1.287254  0  0.693398  0.896365  0  2.333997  0
Zn  Zn1  1  0.80411051  0.09636401  0.85847818  1  1.287397  0  0.693364  0.896316  0  2.334054  0
Zn  Zn2  1  0.89755234  0.91050126  0.03417807  1  1.319012  0  0.675113  0.929093  0  2.290346  0
Zn  Zn3  1  0.10245387  0.08949859  0.96582368  1  1.318983  0  0.67513  0.929029  0  2.290399  0
H  H4  1  0.06674562  0.97013541  0.28792758  1  0.128419  0  0.118789  0.092822  0  0.994416  0
H  H5  1  0.93324868  0.02986721  0.71206744  1  0.128406  0  0.118804  0.092836  0  0.994353  0
H  H6  1  0.94178274  0.85312338  0.38825468  1  0.066519  0  0.107115  0.111598  0  0.999078  0
H  H7  1  0.05820421  0.14688476  0.61174001  1  0.066026  0  0.107099  0.111556  0  0.999023  0
H  H8  1  0.06682025  0.45642229  0.27187624  1  0.130089  0  0.109417  0.127256  0  1.02608  0
H  H9  1  0.93318719  0.54357424  0.72812689  1  0.130232  0  0.109435  0.127265  0  1.026085  0
H  H10  1  0.19020116  0.59033436  0.17753665  1  0.109235  0  0.119825  0.091327  0  1.015634  0
H  H11  1  0.80980920  0.40965990  0.82246550  1  0.109347  0  0.119804  0.091262  0  1.015646  0
H  H12  1  0.91570430  0.45682570  0.38121270  1  0.062489  0  0.106298  0.11001  0  0.986813  0
H  H13  1  0.08428725  0.54317591  0.61878580  1  0.062506  0  0.106346  0.110061  0  0.986956  0
H  H14  1  0.82884466  0.74474922  0.45902056  1  0.041252  0  0.099469  0.089063  0  1.011054  0
H  H15  1  0.17115942  0.25525062  0.54098178  1  0.041337  0  0.099466  0.089053  0  1.011086  0
H  H16  1  0.69822242  0.76102581  0.56716274  1  0.038519  0  0.10075  0.100951  0  0.995704  0
H  H17  1  0.30178231  0.23897515  0.43283895  1  0.038525  0  0.100747  0.100947  0  0.995753  0
H  H18  1  0.56026633  0.66406658  0.66699210  1  0.117749  0  0.103897  0.121239  0  1.015858  0
H  H19  1  0.43972408  0.33594410  0.33300567  1  0.117707  0  0.103865  0.121275  0  1.015853  0
H  H20  1  0.63567955  0.26370229  0.55897294  1  0.049914  0  0.101057  0.098255  0  1.002261  0
H  H21  1  0.36430573  0.73630495  0.44102687  1  0.049918  0  0.101046  0.098237  0  1.002262  0
H  H22  1  0.77580989  0.35943331  0.46010487  1  0.048238  0  0.101462  0.100218  0  0.997739  0
H  H23  1  0.22419369  0.64056187  0.53989620  1  0.048212  0  0.101477  0.100203  0  0.997783  0
H  H24  1  0.45298097  0.49289147  0.71935384  1  0.062205  0  0.106909  0.104665  0  0.996124  0
H  H25  1  0.54701871  0.50711174  0.28064942  1  0.06228  0  0.106837  0.104532  0  0.99625  0
H  H26  1  0.51857717  0.19034825  0.65630915  1  0.07383  0  0.103331  0.103985  0  0.994503  0
H  H27  1  0.48140267  0.80966760  0.34368334  1  0.073753  0  0.103324  0.103902  0  0.994529  0
H  H28  1  0.30696309  0.45472597  0.80068448  1  0.077061  0  0.114087  0.124849  0  0.989259  0
H  H29  1  0.69302514  0.54527910  0.19931602  1  0.076528  0  0.114093  0.124894  0  0.989204  0
H  H30  1  0.15388469  0.37237948  0.89861601  1  0.114733  0  0.116445  0.090335  0  1.03216  0
H  H31  1  0.84611309  0.62761108  0.10138666  1  0.114791  0  0.116432  0.090331  0  1.032084  0
H  H32  1  0.25791882  0.95151224  0.82802095  1  0.097589  0  0.1237  0.099351  0  0.969135  0
H  H33  1  0.74208979  0.04848056  0.17197633  1  0.097798  0  0.123678  0.099368  0  0.9691  0
H  H34  1  0.41799689  0.01422260  0.72562001  1  0.105459  0  0.10804  0.125097  0  1.005719  0
H  H35  1  0.58200805  0.98578039  0.27437704  1  0.105496  0  0.108036  0.125052  0  1.00572  0
H  H36  1  0.58776857  0.53323909  0.06568105  1  0.126349  0  0.109521  0.113539  0  1.01312  0
H  H37  1  0.41223445  0.46676068  0.93432077  1  0.126551  0  0.109487  0.113545  0  1.013177  0
H  H38  1  0.90743031  0.53703956  0.89050324  1  0.134576  0  0.110097  0.113466  0  1.027925  0
H  H39  1  0.09256886  0.46295893  0.10949763  1  0.134558  0  0.110076  0.11344  0  1.027898  0
H  H40  1  0.50544029  0.92502131  0.90077409  1  0.093831  0  0.108094  0.113511  0  1.035221  0
H  H41  1  0.49456207  0.07497726  0.09922671  1  0.093728  0  0.108122  0.113544  0  1.035241  0
H  H42  1  0.95320447  0.12610152  0.08541155  1  0.655382  0  0.273548  0.37265  0  0.981897  0
H  H43  1  0.04680828  0.87389513  0.91459148  1  0.655354  0  0.273538  0.372666  0  0.981903  0
C  C44  1  0.06453056  0.85598979  0.28737152  1  0.446975  0  0.041632  0.084525  0  3.976391  0
C  C45  1  0.93546521  0.14401175  0.71262413  1  0.446847  0  0.041593  0.084488  0  3.976207  0
C  C46  1  0.99465875  0.78946163  0.34271248  1  -0.011377  0  -0.083427  -0.177511  0  3.95634  0
C  C47  1  0.00533328  0.21054445  0.65728396  1  -0.010767  0  -0.083439  -0.177497  0  3.956404  0
C  C48  1  0.98942554  0.64359354  0.33866603  1  0.007132  0  0.013436  0.156993  0  4.005645  0
C  C49  1  0.01056815  0.35640818  0.66133355  1  0.007407  0  0.013436  0.156979  0  4.005682  0
C  C50  1  0.06446148  0.56997857  0.27838493  1  -0.06778  0  -0.075534  -0.162518  0  3.891802  0
C  C51  1  0.93554195  0.43002011  0.72161752  1  -0.068047  0  -0.075544  -0.162479  0  3.891753  0
C  C52  1  0.13330725  0.64355743  0.22536221  1  0.495256  0  0.051365  0.104686  0  3.933429  0
C  C53  1  0.86669780  0.35643667  0.77463948  1  0.495159  0  0.051405  0.104782  0  3.933452  0
C  C54  1  0.91005894  0.56954884  0.39174952  1  -0.039765  0  -0.087335  -0.138174  0  3.967845  0
C  C55  1  0.08993419  0.43045751  0.60825135  1  -0.040067  0  -0.08729  -0.138103  0  3.967536  0
C  C56  1  0.83108777  0.63191076  0.45035301  1  -0.003127  0  -0.077269  -0.10074  0  3.98903  0
C  C57  1  0.16891285  0.36808653  0.54964626  1  -0.003167  0  -0.077372  -0.100876  0  3.988826  0
C  C58  1  0.74809584  0.56832341  0.50587442  1  0.013133  0  -0.012557  0.096344  0  4.053267  0
C  C59  1  0.25190718  0.43167637  0.49412739  1  0.01311  0  -0.012557  0.096332  0  4.053355  0
C  C60  1  0.68326529  0.65239334  0.56480384  1  -0.114155  0  -0.086935  -0.122336  0  3.977275  0
C  C61  1  0.31673369  0.34760844  0.43519452  1  -0.11409  0  -0.086907  -0.122287  0  3.977451  0
C  C62  1  0.60418963  0.59829080  0.62086833  1  0.003937  0  -0.085811  -0.12554  0  3.961702  0
C  C63  1  0.39580554  0.40170991  0.37913298  1  0.004008  0  -0.085847  -0.125674  0  3.961751  0
C  C64  1  0.58553021  0.45713265  0.62064148  1  -0.062726  0  -0.00945  0.105059  0  4.038163  0
C  C65  1  0.41445849  0.54287689  0.37935696  1  -0.06314  0  -0.009401  0.10518  0  4.03783  0
C  C66  1  0.65006746  0.37244838  0.56139591  1  -0.001903  0  -0.082988  -0.116158  0  3.968643  0
C  C67  1  0.34992567  0.62755790  0.43860385  1  -0.00382  0  -0.083006  -0.116199  0  3.968586  0
C  C68  1  0.72902268  0.42661935  0.50546048  1  -0.033572  0  -0.085719  -0.11919  0  3.967142  0
C  C69  1  0.27097298  0.57338589  0.49453988  1  -0.031295  0  -0.085718  -0.119135  0  3.967199  0
C  C70  1  0.49927744  0.40943500  0.68051762  1  -0.106375  0  -0.078915  -0.111312  0  3.974493  0
C  C71  1  0.50071470  0.59057692  0.31948113  1  -0.106369  0  -0.07883  -0.111218  0  3.974698  0
C  C72  1  0.47041476  0.27793841  0.69270982  1  0.035888  0  -0.084442  -0.122167  0  3.960143  0
C  C73  1  0.52957689  0.72206895  0.30728932  1  0.035867  0  -0.084381  -0.12196  0  3.960075  0
C  C74  1  0.37705419  0.24128223  0.75262808  1  0.00576  0  0.01021  0.15646  0  4.004125  0
C  C75  1  0.62294079  0.75872167  0.24736906  1  0.005822  0  0.010113  0.156296  0  4.003938  0
C  C76  1  0.30089446  0.34158768  0.80339231  1  -0.003975  0  -0.078366  -0.165543  0  3.908215  0
C  C77  1  0.69910216  0.65841180  0.19660684  1  -0.003612  0  -0.07837  -0.165595  0  3.908218  0
C  C78  1  0.21449112  0.29709991  0.85882908  1  0.46285  0  0.04275  0.093086  0  3.958439  0
C  C79  1  0.78550904  0.70289298  0.14117335  1  0.462835  0  0.042764  0.093129  0  3.958561  0
C  C80  1  0.27081195  0.06251380  0.81901467  1  0.496058  0  0.045084  0.08863  0  3.965862  0
C  C81  1  0.72918842  0.93748118  0.18098424  1  0.495839  0  0.045023  0.088418  0  3.96596  0
C  C82  1  0.35847047  0.09884657  0.76157930  1  -0.044548  0  -0.082092  -0.170415  0  3.921504  0
C  C83  1  0.64153465  0.90115313  0.23842026  1  -0.04456  0  -0.082043  -0.170209  0  3.921485  0
C  C84  1  0.53209343  0.73829557  0.98731324  1  0.026372  0  -0.013969  -0.033374  0  3.946916  0
C  C85  1  0.46790549  0.26170068  0.01268837  1  0.026561  0  -0.013929  -0.033257  0  3.94687  0
C  C86  1  0.62169074  0.59087527  0.01576852  1  -0.053976  0  -0.065478  -0.094006  0  3.925292  0
C  C87  1  0.37830908  0.40912435  0.98423168  1  -0.054196  0  -0.065447  -0.094079  0  3.925338  0
C  C88  1  0.75676111  0.51800373  0.98085462  1  0.056345  0  -0.016177  -0.034982  0  3.954389  0
C  C89  1  0.24323992  0.48199244  0.01914473  1  0.056828  0  -0.016226  -0.035029  0  3.954456  0
C  C90  1  0.80040810  0.59198624  0.91647621  1  -0.087412  0  -0.07222  -0.087053  0  3.940954  0
C  C91  1  0.19959041  0.40801107  0.08352421  1  -0.087464  0  -0.072168  -0.086973  0  3.94091  0
C  C92  1  0.70730624  0.73565917  0.88628326  1  -0.179065  0  -0.020786  -0.091468  0  3.979497  0
C  C93  1  0.29269277  0.26434276  0.11371788  1  -0.17908  0  -0.020768  -0.091434  0  3.979498  0
C  C94  1  0.57494041  0.81025564  0.92211492  1  0.024353  0  -0.069389  -0.072687  0  3.918379  0
C  C95  1  0.42506208  0.18973936  0.07788340  1  0.024375  0  -0.069474  -0.07281  0  3.918479  0
C  C96  1  0.39295097  0.82452284  0.02591573  1  1.54671  0  0.222347  0.603631  0  4.145877  0
C  C97  1  0.60705205  0.17547694  0.97408608  1  1.546712  0  0.222449  0.603711  0  4.145819  0
C  C98  1  0.85653814  0.36056566  0.01090276  1  1.570959  0  0.20955  0.583229  0  4.190553  0
C  C99  1  0.14346765  0.63943529  0.98909836  1  1.570411  0  0.209709  0.583389  0  4.19047  0
S  S100  1  0.75167023  0.82005316  0.79806203  1  3.16852  0  0.502384  1.160875  0  6.200843  0
S  S101  1  0.24833716  0.17994309  0.20193609  1  3.168405  0  0.502327  1.160608  0  6.201285  0
N  N102  1  0.13138355  0.78530191  0.22857092  1  -1.271082  0  -0.342952  -0.261602  0  3.613153  0
N  N103  1  0.86861878  0.21469650  0.77142711  1  -1.270969  0  -0.342922  -0.261566  0  3.613128  0
N  N104  1  0.19953064  0.15957628  0.86753777  1  -1.246506  0  -0.332969  -0.253251  0  3.5506  0
N  N105  1  0.80047244  0.84041431  0.13246314  1  -1.246457  0  -0.33288  -0.25312  0  3.550556  0
O  O106  1  0.32242069  0.95976111  0.99745029  1  -1.201789  0  -0.317306  -0.573257  0  2.389793  0
O  O107  1  0.67758060  0.04023740  0.00254998  1  -1.201831  0  -0.317352  -0.573337  0  2.389792  0
O  O108  1  0.35548184  0.76019820  0.08677770  1  -1.154445  0  -0.315681  -0.535033  0  2.280533  0
O  O109  1  0.64453196  0.23979844  0.91322475  1  -1.154508  0  -0.315718  -0.535054  0  2.280555  0
O  O110  1  0.97085522  0.30392632  0.96953113  1  -1.193452  0  -0.332771  -0.590615  0  2.390551  0
O  O111  1  0.02914699  0.69607575  0.03047106  1  -1.193343  0  -0.332812  -0.590732  0  2.390492  0
O  O112  1  0.82430004  0.29607128  0.07135354  1  -1.165398  0  -0.314915  -0.525782  0  2.131915  0
O  O113  1  0.17570206  0.70392497  0.92864691  1  -1.165396  0  -0.31501  -0.52583  0  2.131973  0
O  O114  1  0.70046876  0.98632370  0.80492777  1  -1.320574  0  -0.353386  -0.623231  0  2.411247  0
O  O115  1  0.29954462  0.01367398  0.19507293  1  -1.320637  0  -0.353447  -0.62324  0  2.411377  0
O  O116  1  0.65617386  0.79333300  0.74169222  1  -1.333666  0  -0.348307  -0.594294  0  2.157408  0
O  O117  1  0.34382383  0.20666650  0.25830692  1  -1.333587  0  -0.348302  -0.594246  0  2.157648  0
O  O118  1  0.91527712  0.75587804  0.78857313  1  -1.329564  0  -0.351503  -0.59216  0  2.136187  0
O  O119  1  0.08472799  0.24410694  0.21142877  1  -1.329391  0  -0.351422  -0.591989  0  2.136135  0
O  O120  1  0.02392596  0.02386695  0.07424101  1  -1.273745  0  -0.570464  -0.868724  0  2.326469  0
O  O121  1  0.97608065  0.97613171  0.92575972  1  -1.273801  0  -0.57045  -0.868734  0  2.326348  0
