# generated using pymatgen
data_NaH18C15NO4
_symmetry_space_group_name_H-M   'P 1'
_cell_length_a   6.27630650
_cell_length_b   6.64069711
_cell_length_c   18.77564341
_cell_angle_alpha   78.43584507
_cell_angle_beta   87.97295467
_cell_angle_gamma   71.34992034
_symmetry_Int_Tables_number   1
_chemical_formula_structural   NaH18C15NO4
_chemical_formula_sum   'Na2 H36 C30 N2 O8'
_cell_volume   726.05955045
_cell_formula_units_Z   2
loop_
 _symmetry_equiv_pos_site_id
 _symmetry_equiv_pos_as_xyz
  1  'x, y, z'
loop_
 _atom_site_type_symbol
 _atom_site_label
 _atom_site_symmetry_multiplicity
 _atom_site_fract_x
 _atom_site_fract_y
 _atom_site_fract_z
 _atom_site_occupancy
 _atom_site_hle17_bader_spin_density
 _atom_site_hle17_ddec_charge
 _atom_site_hle17_ddec_spin_density
 _atom_site_hle17_ddec_sum_bond_order
 _atom_site_hle17_magmom
 _atom_site_hse06_10hf_bader_spin_density
 _atom_site_hse06_10hf_ddec_charge
 _atom_site_hse06_10hf_ddec_spin_density
 _atom_site_hse06_10hf_ddec_sum_bond_order
 _atom_site_hse06_10hf_magmom
 _atom_site_hse06_bader_spin_density
 _atom_site_hse06_ddec_charge
 _atom_site_hse06_ddec_spin_density
 _atom_site_hse06_ddec_sum_bond_order
 _atom_site_hse06_magmom
 _atom_site_pbe_bader_spin_density
 _atom_site_pbe_cm5_charge
 _atom_site_pbe_ddec_charge
 _atom_site_pbe_ddec_spin_density
 _atom_site_pbe_ddec_sum_bond_order
 _atom_site_pbe_magmom
Na  Na0  1  0.88218433  0.29252742  0.47478372  1  0  0.902657  0  0.356355  0  0  0.859503  0  0.503208  0  0  0.869428  0  0.481754  0  0  0.627821  0.852131  0  0.518573  0
Na  Na1  1  0.11785155  0.70745430  0.52522173  1  0  0.902703  0  0.356285  0  0  0.859495  0  0.503199  0  0  0.869448  0  0.481726  0  0  0.627863  0.852132  0  0.518559  0
H  H2  1  0.94052627  0.99096276  0.39065843  1  0  0.415771  0  0.899996  0  0  0.380745  0  0.971022  0  0  0.392202  0  0.954435  0  0  0.282096  0.372721  0  0.982608  0
H  H3  1  0.05950314  0.00900095  0.60934762  1  0  0.415689  0  0.900136  0  0  0.380681  0  0.97114  0  0  0.392139  0  0.954555  0  0  0.28199  0.372662  0  0.98272  0
H  H4  1  0.18365748  0.01566833  0.38512612  1  0  0.398291  0  0.897833  0  0  0.374321  0  0.957667  0  0  0.38134  0  0.947624  0  0  0.291159  0.36936  0  0.964783  0
H  H5  1  0.81635553  0.98431236  0.61486674  1  0  0.398464  0  0.89768  0  0  0.374468  0  0.957502  0  0  0.381485  0  0.947461  0  0  0.291208  0.369507  0  0.96462  0
H  H6  1  0.28155304  0.20663572  0.56471414  1  0  0.4188  0  0.878827  0  0  0.392292  0  0.934954  0  0  0.401895  0  0.920823  0  0  0.296195  0.385531  0  0.944907  0
H  H7  1  0.71846035  0.79333762  0.43528982  1  0  0.418758  0  0.878854  0  0  0.39229  0  0.934906  0  0  0.40189  0  0.920778  0  0  0.29625  0.385527  0  0.944863  0
H  H8  1  0.35790424  0.30100005  0.48685983  1  0  0.423029  0  0.884851  0  0  0.393693  0  0.946487  0  0  0.404341  0  0.930754  0  0  0.289267  0.38619  0  0.957562  0
H  H9  1  0.64210831  0.69898971  0.51314155  1  0  0.423068  0  0.884787  0  0  0.393729  0  0.946417  0  0  0.404375  0  0.930687  0  0  0.289322  0.386229  0  0.957485  0
H  H10  1  0.04796624  0.17768862  0.18516818  1  0  0.098029  0  0.986801  0  0  0.109439  0  1.047777  0  0  0.112564  0  1.04728  0  0  0.099059  0.107251  0  1.048255  0
H  H11  1  0.95205642  0.82231734  0.81483588  1  0  0.098011  0  0.986752  0  0  0.109442  0  1.047713  0  0  0.112568  0  1.047218  0  0  0.099069  0.107237  0  1.048209  0
H  H12  1  0.73302615  0.45858656  0.22515612  1  0  0.08298  0  0.976504  0  0  0.09195  0  1.043579  0  0  0.093425  0  1.044202  0  0  0.097559  0.090842  0  1.043184  0
H  H13  1  0.26700289  0.54138648  0.77485522  1  0  0.083001  0  0.976357  0  0  0.091959  0  1.043449  0  0  0.093442  0  1.044063  0  0  0.097524  0.090853  0  1.043047  0
H  H14  1  0.79505313  0.64239527  0.32305913  1  0  0.099416  0  0.970301  0  0  0.107592  0  1.034273  0  0  0.111495  0  1.032565  0  0  0.102347  0.104713  0  1.035797  0
H  H15  1  0.20494999  0.35758414  0.67694826  1  0  0.099515  0  0.970112  0  0  0.107657  0  1.03412  0  0  0.111574  0  1.03239  0  0  0.102358  0.104743  0  1.03569  0
H  H16  1  0.17438882  0.52198649  0.38375549  1  0  0.094323  0  0.966672  0  0  0.105891  0  1.027417  0  0  0.109508  0  1.023884  0  0  0.112418  0.103253  0  1.029995  0
H  H17  1  0.82560110  0.47802242  0.61624539  1  0  0.094302  0  0.966662  0  0  0.105907  0  1.027362  0  0  0.109527  0  1.023824  0  0  0.112456  0.103266  0  1.029938  0
H  H18  1  0.61667144  0.99985107  0.26749777  1  0  0.293207  0  0.939868  0  0  0.274774  0  1.003611  0  0  0.283079  0  0.997093  0  0  0.30236  0.268854  0  1.008281  0
H  H19  1  0.38336105  0.00012280  0.73250338  1  0  0.293261  0  0.939842  0  0  0.274772  0  1.003666  0  0  0.283103  0  0.997104  0  0  0.302351  0.268858  0  1.008331  0
H  H20  1  0.48481172  0.52323197  0.05397459  1  0  0.07616  0  0.993498  0  0  0.087816  0  1.060237  0  0  0.090347  0  1.059132  0  0  0.091601  0.085991  0  1.061108  0
H  H21  1  0.51517572  0.47679316  0.94602585  1  0  0.076132  0  0.993627  0  0  0.087741  0  1.060403  0  0  0.090317  0  1.059242  0  0  0.091583  0.085915  0  1.061276  0
H  H22  1  0.21445606  0.54649387  0.15448918  1  0  0.086148  0  0.977749  0  0  0.099314  0  1.035589  0  0  0.100975  0  1.036325  0  0  0.096158  0.098102  0  1.035195  0
H  H23  1  0.78558807  0.45350128  0.84551221  1  0  0.086212  0  0.97778  0  0  0.099363  0  1.035623  0  0  0.101028  0  1.036365  0  0  0.096155  0.098148  0  1.035236  0
H  H24  1  0.20959796  0.78337192  0.24149876  1  0  0.107043  0  0.954262  0  0  0.119208  0  1.012174  0  0  0.121558  0  1.012118  0  0  0.103742  0.117547  0  1.012301  0
H  H25  1  0.79039294  0.21661055  0.75850852  1  0  0.107061  0  0.954274  0  0  0.119273  0  1.012145  0  0  0.121625  0  1.012083  0  0  0.103782  0.11761  0  1.012275  0
H  H26  1  0.69772746  0.17754213  0.14631255  1  0  0.107213  0  0.971024  0  0  0.12558  0  1.035573  0  0  0.127078  0  1.035704  0  0  0.089601  0.124469  0  1.035517  0
H  H27  1  0.30229074  0.82245417  0.85368946  1  0  0.107176  0  0.970947  0  0  0.125491  0  1.035573  0  0  0.126989  0  1.035706  0  0  0.089554  0.124379  0  1.035517  0
H  H28  1  0.73187499  0.13521279  0.05542023  1  0  0.100972  0  0.957112  0  0  0.124589  0  1.018081  0  0  0.125175  0  1.018843  0  0  0.089571  0.124138  0  1.017577  0
H  H29  1  0.26810291  0.86479458  0.94457708  1  0  0.100968  0  0.957258  0  0  0.124597  0  1.018206  0  0  0.125187  0  1.01896  0  0  0.089569  0.124158  0  1.017688  0
H  H30  1  0.92932488  0.96468306  0.12390836  1  0  0.101858  0  0.977473  0  0  0.12341  0  1.042343  0  0  0.123929  0  1.043419  0  0  0.087669  0.122888  0  1.041745  0
H  H31  1  0.07066005  0.03531272  0.87609334  1  0  0.101915  0  0.977425  0  0  0.123462  0  1.042296  0  0  0.12398  0  1.043372  0  0  0.087681  0.122939  0  1.041699  0
H  H32  1  0.77859540  0.61856115  0.99020392  1  0  0.101166  0  0.955958  0  0  0.124263  0  1.014364  0  0  0.125452  0  1.014249  0  0  0.088749  0.123351  0  1.014491  0
H  H33  1  0.22135513  0.38148090  0.00977974  1  0  0.101276  0  0.956039  0  0  0.124431  0  1.014338  0  0  0.125571  0  1.01428  0  0  0.088787  0.12352  0  1.014463  0
H  H34  1  0.95387077  0.71248016  0.03873957  1  0  0.10183  0  0.959052  0  0  0.124489  0  1.02008  0  0  0.125523  0  1.02029  0  0  0.089731  0.123613  0  1.020111  0
H  H35  1  0.04608841  0.28754528  0.96125090  1  0  0.101883  0  0.959111  0  0  0.124511  0  1.020172  0  0  0.125554  0  1.020364  0  0  0.089745  0.123633  0  1.020206  0
H  H36  1  0.73892877  0.90009462  0.97864897  1  0  0.106272  0  0.973212  0  0  0.125124  0  1.038314  0  0  0.125594  0  1.040408  0  0  0.09034  0.124816  0  1.036792  0
H  H37  1  0.26102396  0.09995313  0.02134552  1  0  0.106324  0  0.973045  0  0  0.125234  0  1.038095  0  0  0.125705  0  1.040183  0  0  0.090351  0.124927  0  1.036572  0
C  C38  1  0.32293798  0.27255909  0.32336973  1  0  -0.229593  0  3.749382  0  0  -0.205194  0  3.986764  0  0  -0.219611  0  4.009065  0  0  -0.040007  -0.195882  0  3.971766  0
C  C39  1  0.67703709  0.72742319  0.67663659  1  0  -0.229575  0  3.749428  0  0  -0.205303  0  3.986883  0  0  -0.219722  0  4.00919  0  0  -0.039973  -0.19599  0  3.97188  0
C  C40  1  0.29144427  0.17901716  0.26355645  1  0  0.256012  0  3.807138  0  0  0.239105  0  4.058151  0  0  0.253861  0  4.075727  0  0  0.109912  0.229376  0  4.045901  0
C  C41  1  0.70856382  0.82095777  0.73644692  1  0  0.256087  0  3.807082  0  0  0.239263  0  4.058024  0  0  0.254014  0  4.075617  0  0  0.110045  0.229539  0  4.045759  0
C  C42  1  0.07439145  0.24930212  0.22996503  1  0  -0.203991  0  3.740605  0  0  -0.218139  0  3.992077  0  0  -0.226756  0  4.010197  0  0  -0.10977  -0.212602  0  3.979783  0
C  C43  1  0.92562747  0.75068262  0.77003981  1  0  -0.203961  0  3.740392  0  0  -0.218129  0  3.991847  0  0  -0.226749  0  4.009973  0  0  -0.109774  -0.212581  0  3.97956  0
C  C44  1  0.89823255  0.40954869  0.25202290  1  0  -0.009928  0  3.77166  0  0  -0.030127  0  4.029502  0  0  -0.02429  0  4.047338  0  0  -0.083829  -0.033537  0  4.01704  0
C  C45  1  0.10179339  0.59045243  0.74798144  1  0  -0.010042  0  3.771452  0  0  -0.030237  0  4.029305  0  0  -0.024407  0  4.047141  0  0  -0.083806  -0.03364  0  4.016823  0
C  C46  1  0.93198422  0.51235213  0.30715107  1  0  -0.136539  0  3.794725  0  0  -0.152676  0  4.057344  0  0  -0.159855  0  4.078196  0  0  -0.112687  -0.14808  0  4.043258  0
C  C47  1  0.06802157  0.48765709  0.69284917  1  0  -0.136553  0  3.794568  0  0  -0.152639  0  4.05716  0  0  -0.159829  0  4.078016  0  0  -0.112706  -0.14802  0  4.043082  0
C  C48  1  0.14294795  0.44396118  0.34124248  1  0  -0.071585  0  3.813949  0  0  -0.09413  0  4.06192  0  0  -0.089051  0  4.079881  0  0  -0.087129  -0.097073  0  4.049499  0
C  C49  1  0.85705023  0.55602284  0.65876732  1  0  -0.071603  0  3.814148  0  0  -0.094159  0  4.062131  0  0  -0.089081  0  4.080103  0  0  -0.087254  -0.097097  0  4.049695  0
C  C50  1  0.53547100  0.19204540  0.36870780  1  0  0.662887  0  3.90202  0  0  0.608608  0  4.200761  0  0  0.643263  0  4.19272  0  0  0.207131  0.585199  0  4.205549  0
C  C51  1  0.46451593  0.80792367  0.63128272  1  0  0.662577  0  3.901878  0  0  0.608411  0  4.20052  0  0  0.643068  0  4.192479  0  0  0.207132  0.585009  0  4.205308  0
C  C52  1  0.46295677  0.90811073  0.18625242  1  0  0.177629  0  3.791038  0  0  0.16944  0  4.038283  0  0  0.175387  0  4.061166  0  0  0.088843  0.165302  0  4.022721  0
C  C53  1  0.53703563  0.09189949  0.81375316  1  0  0.177414  0  3.790881  0  0  0.169185  0  4.038174  0  0  0.175131  0  4.061063  0  0  0.088749  0.165051  0  4.022611  0
C  C54  1  0.60940134  0.90424588  0.12731956  1  0  0.00437  0  3.681943  0  0  0.025148  0  3.913584  0  0  0.022728  0  3.937723  0  0  -0.010597  0.026746  0  3.897135  0
C  C55  1  0.39059481  0.09577321  0.87267694  1  0  0.004352  0  3.682294  0  0  0.025191  0  3.913875  0  0  0.02277  0  3.938015  0  0  -0.01061  0.026789  0  3.897429  0
C  C56  1  0.61963303  0.76041959  0.08017224  1  0  0.092354  0  3.752164  0  0  0.11403  0  3.986567  0  0  0.114316  0  4.011581  0  0  -0.014333  0.113859  0  3.969447  0
C  C57  1  0.38036104  0.23960130  0.91982149  1  0  0.092521  0  3.751783  0  0  0.114172  0  3.986201  0  0  0.11446  0  4.01121  0  0  -0.014351  0.113999  0  3.969085  0
C  C58  1  0.47648444  0.63389926  0.09048906  1  0  -0.158637  0  3.799558  0  0  -0.182788  0  4.057667  0  0  -0.186073  0  4.078126  0  0  -0.106721  -0.180584  0  4.043977  0
C  C59  1  0.52352050  0.36612116  0.90951317  1  0  -0.158589  0  3.799422  0  0  -0.182698  0  4.057524  0  0  -0.186009  0  4.077949  0  0  -0.106635  -0.180493  0  4.043834  0
C  C60  1  0.32519425  0.64567305  0.14698224  1  0  -0.066888  0  3.830354  0  0  -0.085978  0  4.094299  0  0  -0.085956  0  4.114506  0  0  -0.103087  -0.085927  0  4.080817  0
C  C61  1  0.67481351  0.35433926  0.85302046  1  0  -0.066926  0  3.830774  0  0  -0.085999  0  4.09467  0  0  -0.085988  0  4.114898  0  0  -0.103068  -0.085947  0  4.08119  0
C  C62  1  0.32045272  0.78023253  0.19546741  1  0  -0.166909  0  3.769197  0  0  -0.189014  0  4.026911  0  0  -0.192951  0  4.046898  0  0  -0.099728  -0.186394  0  4.013544  0
C  C63  1  0.67955542  0.21978285  0.80453777  1  0  -0.166887  0  3.76932  0  0  -0.189039  0  4.027052  0  0  -0.192974  0  4.047039  0  0  -0.099766  -0.186419  0  4.013684  0
C  C64  1  0.74902745  0.05327760  0.11300578  1  0  -0.314944  0  3.726699  0  0  -0.394621  0  3.957562  0  0  -0.395986  0  3.967338  0  0  -0.2435  -0.393323  0  3.950799  0
C  C65  1  0.25096031  0.94673286  0.88699555  1  0  -0.314973  0  3.726601  0  0  -0.39464  0  3.957472  0  0  -0.396004  0  3.967248  0  0  -0.243471  -0.393348  0  3.950705  0
C  C66  1  0.78074090  0.74657341  0.01878972  1  0  -0.323622  0  3.721626  0  0  -0.400048  0  3.950007  0  0  -0.402248  0  3.960402  0  0  -0.239463  -0.398195  0  3.942766  0
C  C67  1  0.21921515  0.25347485  0.98119885  1  0  -0.323916  0  3.721499  0  0  -0.400413  0  3.9498  0  0  -0.402579  0  3.960223  0  0  -0.239527  -0.398564  0  3.942549  0
N  N68  1  0.46974683  0.03377953  0.23803146  1  0  -0.426254  0  3.402826  0  0  -0.367716  0  3.641906  0  0  -0.389413  0  3.654871  0  0  -0.419262  -0.35248  0  3.632479  0
N  N69  1  0.53026876  0.96622032  0.76196609  1  0  -0.426153  0  3.40239  0  0  -0.367582  0  3.641448  0  0  -0.389294  0  3.654387  0  0  -0.419206  -0.352348  0  3.632014  0
O  O70  1  0.08220771  0.96630924  0.41960061  1  0  -0.916835  0  1.791545  0  0  -0.871936  0  1.966361  0  0  -0.887611  0  1.935233  0  0  -0.693391  -0.860829  0  1.988112  0
O  O71  1  0.91780481  0.03369797  0.58040610  1  0  -0.91695  0  1.79133  0  0  -0.872048  0  1.966055  0  0  -0.887721  0  1.934929  0  0  -0.693352  -0.860937  0  1.987802  0
O  O72  1  0.23466303  0.32710835  0.52240389  1  0  -0.91943  0  1.758225  0  0  -0.873292  0  1.925193  0  0  -0.890521  0  1.893092  0  0  -0.675654  -0.861068  0  1.947538  0
O  O73  1  0.76535146  0.67286685  0.47759729  1  0  -0.91942  0  1.758265  0  0  -0.873282  0  1.925224  0  0  -0.890504  0  1.893126  0  0  -0.675738  -0.861059  0  1.947568  0
O  O74  1  0.55159656  0.28154441  0.42123844  1  0  -0.700545  0  1.967484  0  0  -0.644059  0  2.19458  0  0  -0.667  0  2.181001  0  0  -0.380525  -0.628039  0  2.203457  0
O  O75  1  0.44836508  0.71844719  0.57874927  1  0  -0.700494  0  1.967495  0  0  -0.644003  0  2.194512  0  0  -0.666962  0  2.180953  0  0  -0.380638  -0.627982  0  2.203376  0
O  O76  1  0.69463720  0.02659136  0.35419445  1  0  -0.662729  0  2.01251  0  0  -0.590635  0  2.223486  0  0  -0.617185  0  2.213907  0  0  -0.31365  -0.572261  0  2.229754  0
O  O77  1  0.30534301  0.97339729  0.64579333  1  0  -0.662614  0  2.012512  0  0  -0.590523  0  2.223454  0  0  -0.617083  0  2.213875  0  0  -0.313647  -0.572174  0  2.229736  0
