# generated using pymatgen
data_ZnH14(C2O)7
_symmetry_space_group_name_H-M   'P 1'
_cell_length_a   5.91225393
_cell_length_b   7.44682094
_cell_length_c   15.86445065
_cell_angle_alpha   90.00207151
_cell_angle_beta   97.05233249
_cell_angle_gamma   90.00282812
_symmetry_Int_Tables_number   1
_chemical_formula_structural   ZnH14(C2O)7
_chemical_formula_sum   'Zn2 H28 C28 O14'
_cell_volume   693.18770020
_cell_formula_units_Z   2
loop_
 _symmetry_equiv_pos_site_id
 _symmetry_equiv_pos_as_xyz
  1  'x, y, z'
loop_
 _atom_site_type_symbol
 _atom_site_label
 _atom_site_symmetry_multiplicity
 _atom_site_fract_x
 _atom_site_fract_y
 _atom_site_fract_z
 _atom_site_occupancy
 _atom_site_hle17_bader_spin_density
 _atom_site_hle17_ddec_charge
 _atom_site_hle17_ddec_spin_density
 _atom_site_hle17_ddec_sum_bond_order
 _atom_site_hle17_magmom
 _atom_site_hse06_10hf_bader_spin_density
 _atom_site_hse06_10hf_ddec_charge
 _atom_site_hse06_10hf_ddec_spin_density
 _atom_site_hse06_10hf_ddec_sum_bond_order
 _atom_site_hse06_10hf_magmom
 _atom_site_hse06_bader_spin_density
 _atom_site_hse06_ddec_charge
 _atom_site_hse06_ddec_spin_density
 _atom_site_hse06_ddec_sum_bond_order
 _atom_site_hse06_magmom
 _atom_site_pbe_bader_spin_density
 _atom_site_pbe_cm5_charge
 _atom_site_pbe_ddec_charge
 _atom_site_pbe_ddec_spin_density
 _atom_site_pbe_ddec_sum_bond_order
 _atom_site_pbe_magmom
Zn  Zn0  1  0.25823643  0.42594619  0.85227414  1  0  1.188206  0  1.723131  0  0  1.014305  0  2.199047  0  0  1.06334  0  2.134344  0  0  0.687178  0.979571  0  2.243905  0
Zn  Zn1  1  0.74177893  0.92590243  0.14773177  1  0  1.188246  0  1.722823  0  0  1.014248  0  2.198713  0  0  1.063287  0  2.134019  0  0  0.687187  0.979503  0  2.243567  0
H  H2  1  0.66949554  0.39020638  0.93466984  1  0  0.429944  0  0.870103  0  0  0.397157  0  0.935276  0  0  0.407753  0  0.919989  0  0  0.299239  0.389669  0  0.946076  0
H  H3  1  0.33049975  0.89022519  0.06532832  1  0  0.429975  0  0.870031  0  0  0.39712  0  0.935311  0  0  0.407721  0  0.920017  0  0  0.299256  0.389631  0  0.946114  0
H  H4  1  0.68938866  0.40377199  0.83355081  1  0  0.448046  0  0.855584  0  0  0.414516  0  0.922803  0  0  0.425557  0  0.906778  0  0  0.296382  0.406742  0  0.934067  0
H  H5  1  0.31062140  0.90375033  0.16644947  1  0  0.447992  0  0.855644  0  0  0.414448  0  0.92289  0  0  0.425487  0  0.906867  0  0  0.296388  0.406675  0  0.934153  0
H  H6  1  0.03284064  0.31283801  0.97713188  1  0  0.428418  0  0.870379  0  0  0.393997  0  0.939193  0  0  0.405202  0  0.92281  0  0  0.297595  0.386013  0  0.950875  0
H  H7  1  0.96715340  0.81281073  0.02286943  1  0  0.428462  0  0.870313  0  0  0.394019  0  0.93918  0  0  0.405228  0  0.922787  0  0  0.297585  0.38603  0  0.950861  0
H  H8  1  0.15932383  0.13286261  0.94887426  1  0  0.438072  0  0.863069  0  0  0.402095  0  0.933073  0  0  0.413565  0  0.91655  0  0  0.292777  0.394  0  0.94471  0
H  H9  1  0.84067232  0.63281507  0.05111929  1  0  0.437995  0  0.863264  0  0  0.402137  0  0.93308  0  0  0.413612  0  0.916548  0  0  0.292793  0.394038  0  0.944726  0
H  H10  1  0.16589372  0.39768497  0.57713309  1  0  0.099038  0  0.974398  0  0  0.10663  0  1.043623  0  0  0.108937  0  1.043472  0  0  0.102031  0.105009  0  1.043701  0
H  H11  1  0.83410567  0.89766705  0.42287230  1  0  0.098964  0  0.974668  0  0  0.106589  0  1.043809  0  0  0.108894  0  1.04366  0  0  0.102032  0.104955  0  1.043928  0
H  H12  1  0.52483814  0.23732866  0.65689758  1  0  0.107361  0  0.94401  0  0  0.116761  0  1.004764  0  0  0.120552  0  1.002332  0  0  0.103886  0.114092  0  1.006427  0
H  H13  1  0.47512407  0.73732544  0.34309925  1  0  0.107295  0  0.944193  0  0  0.116716  0  1.004903  0  0  0.120502  0  1.002481  0  0  0.103833  0.114043  0  1.006562  0
H  H14  1  0.38093606  0.15162601  0.50917113  1  0  0.098263  0  0.9623  0  0  0.109631  0  1.022912  0  0  0.111747  0  1.023534  0  0  0.100801  0.108115  0  1.022531  0
H  H15  1  0.61901055  0.65163415  0.49082430  1  0  0.098522  0  0.962101  0  0  0.109901  0  1.022658  0  0  0.112019  0  1.023277  0  0  0.100903  0.108385  0  1.022277  0
H  H16  1  0.20872047  0.41187324  0.42538405  1  0  0.089836  0  0.981003  0  0  0.100532  0  1.044678  0  0  0.102306  0  1.045461  0  0  0.099  0.099107  0  1.044482  0
H  H17  1  0.79128859  0.91190971  0.57461884  1  0  0.089807  0  0.980966  0  0  0.100452  0  1.044713  0  0  0.102246  0  1.045438  0  0  0.098893  0.098984  0  1.044576  0
H  H18  1  0.43283769  0.14755805  0.35154741  1  0  0.12907  0  0.953648  0  0  0.135491  0  1.021574  0  0  0.139106  0  1.020095  0  0  0.106301  0.132903  0  1.022747  0
H  H19  1  0.56712562  0.64758052  0.64844870  1  0  0.129153  0  0.953309  0  0  0.135572  0  1.02125  0  0  0.139185  0  1.019776  0  0  0.106253  0.132985  0  1.022423  0
H  H20  1  0.06131245  0.34511679  0.27567451  1  0  0.109693  0  0.947523  0  0  0.121295  0  1.007241  0  0  0.124367  0  1.006019  0  0  0.106636  0.119113  0  1.008139  0
H  H21  1  0.93868939  0.84518370  0.72432828  1  0  0.109637  0  0.947409  0  0  0.121253  0  1.00717  0  0  0.124291  0  1.005982  0  0  0.106667  0.119096  0  1.008052  0
H  H22  1  0.75731561  0.46748754  0.19467524  1  0  0.071015  0  0.920104  0  0  0.081839  0  0.978089  0  0  0.083359  0  0.977191  0  0  0.118143  0.080745  0  0.978946  0
H  H23  1  0.24272376  0.96753080  0.80534309  1  0  0.070915  0  0.920267  0  0  0.081805  0  0.978255  0  0  0.083287  0  0.977334  0  0  0.118128  0.080713  0  0.979111  0
H  H24  1  0.39895079  0.52204733  0.08996951  1  0  0.128806  0  0.951722  0  0  0.1462  0  1.015982  0  0  0.148498  0  1.01526  0  0  0.094196  0.144526  0  1.016549  0
H  H25  1  0.60114184  0.02207541  0.91002596  1  0  0.129019  0  0.951399  0  0  0.146407  0  1.015649  0  0  0.148697  0  1.014934  0  0  0.094284  0.144735  0  1.016216  0
H  H26  1  0.30332564  0.30377399  0.11656844  1  0  0.119162  0  0.946054  0  0  0.138723  0  1.007437  0  0  0.140968  0  1.006437  0  0  0.092047  0.137046  0  1.008248  0
H  H27  1  0.69669817  0.80378515  0.88341829  1  0  0.11923  0  0.946028  0  0  0.138768  0  1.007444  0  0  0.141012  0  1.006442  0  0  0.092081  0.137092  0  1.008256  0
H  H28  1  0.34542463  0.47634553  0.19548907  1  0  0.114565  0  0.933357  0  0  0.137969  0  0.989452  0  0  0.139468  0  0.989283  0  0  0.09395  0.136904  0  0.989515  0
H  H29  1  0.65462370  0.97635283  0.80450395  1  0  0.114583  0  0.933479  0  0  0.138165  0  0.989353  0  0  0.139663  0  0.989185  0  0  0.094038  0.137098  0  0.989421  0
C  C30  1  0.95163056  0.36779723  0.71463426  1  0  0.659155  0  3.900711  0  0  0.607798  0  4.193726  0  0  0.642504  0  4.185556  0  0  0.212596  0.584199  0  4.198598  0
C  C31  1  0.04834251  0.86775747  0.28537012  1  0  0.659028  0  3.900677  0  0  0.607758  0  4.193568  0  0  0.642463  0  4.185395  0  0  0.212573  0.584158  0  4.198433  0
C  C32  1  0.85852185  0.31946679  0.62599340  1  0  -0.066441  0  3.780623  0  0  -0.045275  0  4.019092  0  0  -0.053486  0  4.041731  0  0  -0.022633  -0.039977  0  4.003803  0
C  C33  1  0.14146082  0.81944667  0.37400751  1  0  -0.066597  0  3.78068  0  0  -0.045513  0  4.019211  0  0  -0.053728  0  4.041854  0  0  -0.022676  -0.040205  0  4.003908  0
C  C34  1  0.99321108  0.34646692  0.56182500  1  0  -0.102898  0  3.699246  0  0  -0.13356  0  3.946703  0  0  -0.132253  0  3.966257  0  0  -0.080128  -0.134328  0  3.93368  0
C  C35  1  0.00675850  0.84646154  0.43817701  1  0  -0.102533  0  3.698738  0  0  -0.13321  0  3.946111  0  0  -0.131901  0  3.965658  0  0  -0.080032  -0.133987  0  3.933083  0
C  C36  1  0.63222431  0.25439047  0.60618015  1  0  -0.080334  0  3.733266  0  0  -0.103145  0  3.986033  0  0  -0.102931  0  4.004619  0  0  -0.086799  -0.103027  0  3.973205  0
C  C37  1  0.36772220  0.75437886  0.39380995  1  0  -0.080057  0  3.733137  0  0  -0.102866  0  3.985875  0  0  -0.102649  0  4.004456  0  0  -0.086683  -0.102743  0  3.973035  0
C  C38  1  0.90724768  0.31520573  0.47604660  1  0  0.03719  0  3.799318  0  0  0.054799  0  4.024297  0  0  0.05228  0  4.048144  0  0  -0.011433  0.056301  0  4.00837  0
C  C39  1  0.09273126  0.81521148  0.52395659  1  0  0.037017  0  3.799297  0  0  0.054728  0  4.024126  0  0  0.052215  0  4.047964  0  0  -0.011378  0.056233  0  4.008188  0
C  C40  1  0.55055501  0.20964185  0.52357457  1  0  -0.121955  0  3.730973  0  0  -0.140374  0  3.982812  0  0  -0.143517  0  4.003021  0  0  -0.090569  -0.138268  0  3.969215  0
C  C41  1  0.44941688  0.70965440  0.47642478  1  0  -0.122547  0  3.730393  0  0  -0.140998  0  3.982349  0  0  -0.144144  0  4.002552  0  0  -0.090767  -0.138894  0  3.968755  0
C  C42  1  0.68300037  0.24094162  0.45588408  1  0  0.071654  0  3.795139  0  0  0.088222  0  4.020743  0  0  0.089825  0  4.044429  0  0  -0.004594  0.087285  0  4.004846  0
C  C43  1  0.31697582  0.74095853  0.54411721  1  0  0.071847  0  3.795093  0  0  0.088342  0  4.020703  0  0  0.089945  0  4.044383  0  0  -0.004635  0.087402  0  4.004816  0
C  C44  1  0.03947813  0.35429108  0.40957334  1  0  -0.080734  0  3.755309  0  0  -0.100312  0  4.003041  0  0  -0.100566  0  4.02469  0  0  -0.085095  -0.099851  0  3.988414  0
C  C45  1  0.96052097  0.85431654  0.59042191  1  0  -0.080583  0  3.755514  0  0  -0.100129  0  4.003138  0  0  -0.100386  0  4.024795  0  0  -0.084913  -0.099637  0  3.988526  0
C  C46  1  0.60081061  0.20616488  0.36953082  1  0  -0.219094  0  3.678241  0  0  -0.247571  0  3.931924  0  0  -0.253186  0  3.950305  0  0  -0.098742  -0.244001  0  3.919837  0
C  C47  1  0.39914223  0.70620627  0.63046637  1  0  -0.21933  0  3.678386  0  0  -0.247747  0  3.931999  0  0  -0.253369  0  3.950395  0  0  -0.098722  -0.244174  0  3.91991  0
C  C48  1  0.95675579  0.31995123  0.32641691  1  0  -0.175268  0  3.76831  0  0  -0.200035  0  4.028621  0  0  -0.205112  0  4.048742  0  0  -0.101674  -0.196598  0  4.014822  0
C  C49  1  0.04323708  0.82001905  0.67357816  1  0  -0.175272  0  3.768323  0  0  -0.200086  0  4.02857  0  0  -0.205134  0  4.048711  0  0  -0.101782  -0.196671  0  4.014759  0
C  C50  1  0.73579182  0.24635997  0.30695194  1  0  0.274748  0  3.796214  0  0  0.265526  0  4.060421  0  0  0.2748  0  4.077766  0  0  0.077639  0.259235  0  4.048556  0
C  C51  1  0.26417628  0.74639985  0.69304718  1  0  0.274888  0  3.796266  0  0  0.265694  0  4.060457  0  0  0.27496  0  4.077806  0  0  0.077683  0.25941  0  4.048608  0
C  C52  1  0.65477521  0.35648297  0.16402155  1  0  0.099305  0  3.614481  0  0  0.081999  0  3.863125  0  0  0.08396  0  3.87126  0  0  0.005812  0.08027  0  3.85804  0
C  C53  1  0.34526338  0.85651982  0.83598493  1  0  0.099556  0  3.614752  0  0  0.082019  0  3.863759  0  0  0.084186  0  3.871557  0  0  0.005965  0.080309  0  3.858652  0
C  C54  1  0.76855947  0.29611478  0.08741298  1  0  0.661337  0  3.807974  0  0  0.604048  0  4.107459  0  0  0.637026  0  4.101235  0  0  0.231551  0.581658  0  4.111047  0
C  C55  1  0.23149629  0.79615327  0.91259395  1  0  0.661264  0  3.808763  0  0  0.60413  0  4.108085  0  0  0.637056  0  4.101841  0  0  0.231381  0.581746  0  4.111665  0
C  C56  1  0.40975047  0.41855842  0.13937364  1  0  -0.327406  0  3.655458  0  0  -0.411956  0  3.898228  0  0  -0.414382  0  3.905451  0  0  -0.246292  -0.409909  0  3.893302  0
C  C57  1  0.59031011  0.91858325  0.86061777  1  0  -0.327832  0  3.655335  0  0  -0.412454  0  3.89807  0  0  -0.414923  0  3.905226  0  0  -0.246562  -0.41041  0  3.893142  0
O  O58  1  0.34684614  0.70806342  0.77697349  1  0  -0.352801  0  2.342159  0  0  -0.277182  0  2.579892  0  0  -0.2939  0  2.579651  0  0  -0.185163  -0.265363  0  2.579858  0
O  O59  1  0.65311879  0.20802072  0.22302552  1  0  -0.352768  0  2.34231  0  0  -0.277067  0  2.579791  0  0  -0.293753  0  2.579632  0  0  -0.185098  -0.265209  0  2.579736  0
O  O60  1  0.18636795  0.63245098  0.92361810  1  0  -0.615871  0  2.088033  0  0  -0.54498  0  2.359353  0  0  -0.573112  0  2.344151  0  0  -0.304697  -0.52544  0  2.369279  0
O  O61  1  0.81380403  0.13242636  0.07641348  1  0  -0.61586  0  2.087597  0  0  -0.544853  0  2.358856  0  0  -0.572954  0  2.343588  0  0  -0.304805  -0.52534  0  2.368842  0
O  O62  1  0.58797890  0.36742792  0.87730643  1  0  -0.857533  0  1.909676  0  0  -0.783462  0  2.130429  0  0  -0.807475  0  2.093235  0  0  -0.57707  -0.766613  0  2.156202  0
O  O63  1  0.41201960  0.86741775  0.12268962  1  0  -0.857536  0  1.90959  0  0  -0.783388  0  2.130395  0  0  -0.807402  0  2.093211  0  0  -0.577075  -0.766543  0  2.156158  0
O  O64  1  0.15246578  0.26678389  0.94443092  1  0  -0.861014  0  1.916598  0  0  -0.793647  0  2.143737  0  0  -0.815707  0  2.104092  0  0  -0.5863  -0.778071  0  2.171321  0
O  O65  1  0.84750901  0.76674365  0.05555810  1  0  -0.861008  0  1.916566  0  0  -0.793684  0  2.143496  0  0  -0.815782  0  2.103914  0  0  -0.586284  -0.778096  0  2.171103  0
O  O66  1  0.16117398  0.32423217  0.73955701  1  0  -0.653442  0  2.014448  0  0  -0.581816  0  2.281568  0  0  -0.611579  0  2.266771  0  0  -0.323261  -0.560991  0  2.291065  0
O  O67  1  0.83879384  0.82419541  0.26045340  1  0  -0.653351  0  2.014491  0  0  -0.581739  0  2.281552  0  0  -0.611497  0  2.266759  0  0  -0.323259  -0.560913  0  2.29104  0
O  O68  1  0.82894266  0.45377492  0.76043403  1  0  -0.643619  0  1.993659  0  0  -0.588082  0  2.223568  0  0  -0.612102  0  2.21098  0  0  -0.31612  -0.571286  0  2.231786  0
O  O69  1  0.17102039  0.95372295  0.23956370  1  0  -0.643578  0  1.993613  0  0  -0.588059  0  2.223484  0  0  -0.612076  0  2.210898  0  0  -0.316117  -0.571265  0  2.231697  0
O  O70  1  0.81528641  0.41667883  0.03483884  1  0  -0.644551  0  2.042369  0  0  -0.568395  0  2.24904  0  0  -0.596117  0  2.239306  0  0  -0.29719  -0.549046  0  2.255286  0
O  O71  1  0.18474518  0.91671896  0.96516323  1  0  -0.644466  0  2.042497  0  0  -0.568218  0  2.249091  0  0  -0.595952  0  2.239387  0  0  -0.297136  -0.548865  0  2.255323  0
