# generated using pymatgen
data_ZnHC12NCl5O4F
_symmetry_space_group_name_H-M   'P 1'
_cell_length_a   10.12197547
_cell_length_b   11.08492136
_cell_length_c   28.51876833
_cell_angle_alpha   90.10064048
_cell_angle_beta   89.13328743
_cell_angle_gamma   89.94609379
_symmetry_Int_Tables_number   1
_chemical_formula_structural   ZnHC12NCl5O4F
_chemical_formula_sum   'Zn4 H4 C48 N4 Cl20 O16 F4'
_cell_volume   3199.47041024
_cell_formula_units_Z   4
loop_
 _symmetry_equiv_pos_site_id
 _symmetry_equiv_pos_as_xyz
  1  'x, y, z'
loop_
 _atom_site_type_symbol
 _atom_site_label
 _atom_site_symmetry_multiplicity
 _atom_site_fract_x
 _atom_site_fract_y
 _atom_site_fract_z
 _atom_site_occupancy
 _atom_site_pbe_bader_charge
 _atom_site_pbe_bader_spin_density
 _atom_site_pbe_cm5_charge
 _atom_site_pbe_ddec_charge
 _atom_site_pbe_ddec_spin_density
 _atom_site_pbe_ddec_sum_bond_order
 _atom_site_pbe_magmom
Zn  Zn0  1  0.64566998  0.48921812  0.49744735  1  1.308094  0  0.667858  0.87625  0  2.247613  0
Zn  Zn1  1  0.36346826  0.48775561  0.49600277  1  1.318939  0  0.671082  0.887187  0  2.278671  0
Zn  Zn2  1  0.35489630  0.49179299  0.11947702  1  1.314329  0  0.66787  0.876079  0  2.24907  0
Zn  Zn3  1  0.63712305  0.49004383  0.12105540  1  1.321993  0  0.671165  0.886854  0  2.279012  0
H  H4  1  0.27237162  0.46484658  0.97147373  1  0.134654  0  0.108921  0.139801  0  1.004445  0
H  H5  1  0.69763831  0.49709882  0.97382409  1  0.123825  0  0.105737  0.13778  0  1.016163  0
H  H6  1  0.30281693  0.49642577  0.64311106  1  0.129992  0  0.105877  0.137665  0  1.017056  0
H  H7  1  0.72827010  0.46558748  0.64568432  1  0.132256  0  0.109019  0.140211  0  1.003579  0
C  C8  1  0.48746396  0.72088609  0.49925717  1  1.623725  0  0.211563  0.619611  0  4.131575  0
C  C9  1  0.51772399  0.47578589  0.58636719  1  1.612223  0  0.216141  0.60668  0  4.128813  0
C  C10  1  0.49060132  0.25631516  0.49455144  1  1.601635  0  0.215235  0.624377  0  4.115364  0
C  C11  1  0.52463618  0.53084584  0.40916544  1  1.626027  0  0.211249  0.618591  0  4.132494  0
C  C12  1  0.51281642  0.72323455  0.11765338  1  1.65621  0  0.211372  0.618381  0  4.128419  0
C  C13  1  0.48309729  0.47641654  0.03066310  1  1.540858  0  0.215894  0.604557  0  4.132892  0
C  C14  1  0.51112756  0.25871537  0.12288394  1  1.572272  0  0.215053  0.624828  0  4.115839  0
C  C15  1  0.47431508  0.53379814  0.20791953  1  1.627052  0  0.211756  0.62027  0  4.130824  0
C  C16  1  0.93398566  0.42824851  0.46476672  1  0.7401  0  0.149263  0.187401  0  4.04402  0
C  C17  1  0.07203100  0.54960964  0.53024641  1  0.726401  0  0.148904  0.185111  0  4.049547  0
C  C18  1  0.07402600  0.42985352  0.46400112  1  0.684733  0  0.147594  0.183324  0  4.054332  0
C  C19  1  0.93215439  0.55251158  0.52978251  1  0.697871  0  0.150386  0.184765  0  4.048387  0
C  C20  1  0.48914601  0.11874068  0.49605217  1  0.060608  0  -0.014772  -0.113808  0  3.852835  0
C  C21  1  0.48704065  0.85796574  0.49622912  1  0.063813  0  -0.015344  -0.110613  0  3.867881  0
C  C22  1  0.36950754  0.05264785  0.49511030  1  0.179483  0  0.013773  0.079327  0  3.985031  0
C  C23  1  0.60636733  0.92372190  0.49352314  1  0.157667  0  0.015141  0.079644  0  3.991393  0
C  C24  1  0.36860340  0.92526086  0.49747217  1  0.071368  0  0.01367  0.078832  0  3.990686  0
C  C25  1  0.60744441  0.05078431  0.49747750  1  0.091406  0  0.014967  0.078887  0  3.990044  0
C  C26  1  0.48478628  0.48061442  0.97819980  1  0.06636  0  -0.009608  0.032189  0  3.971087  0
C  C27  1  0.36677150  0.47537723  0.95322181  1  0.021807  0  -0.101821  -0.246845  0  3.992648  0
C  C28  1  0.37232856  0.48436649  0.90483702  1  0.416426  0  0.111628  0.275203  0  4.030418  0
C  C29  1  0.49186768  0.49683872  0.87910834  1  0.139846  0  -0.012  -0.077274  0  4.128574  0
C  C30  1  0.60761886  0.50096528  0.90610131  1  0.505135  0  0.111174  0.275039  0  4.039071  0
C  C31  1  0.60611339  0.49349370  0.95442258  1  0.009983  0  -0.102052  -0.243784  0  3.992042  0
C  C32  1  0.49664503  0.50175556  0.82989344  1  -0.03727  0  -0.032736  -0.054482  0  4.127838  0
C  C33  1  0.50313330  0.50189545  0.78716853  1  -0.208346  0  -0.031853  -0.051403  0  4.126026  0
C  C34  1  0.50812363  0.49714776  0.73794431  1  0.209729  0  -0.012196  -0.079447  0  4.132042  0
C  C35  1  0.39248356  0.50082103  0.71088421  1  0.432586  0  0.110722  0.275309  0  4.038904  0
C  C36  1  0.39430246  0.49321438  0.66255571  1  0.074187  0  -0.102614  -0.244132  0  3.992637  0
C  C37  1  0.51580852  0.48056787  0.63883639  1  -0.058463  0  -0.009293  0.032705  0  3.968923  0
C  C38  1  0.63373462  0.47593664  0.66388647  1  0.024913  0  -0.101015  -0.246421  0  3.991626  0
C  C39  1  0.62786548  0.48515870  0.71227394  1  0.485935  0  0.111325  0.274852  0  4.035609  0
C  C40  1  0.51484294  0.56957245  0.35833994  1  0.043872  0  -0.016286  -0.110287  0  3.867238  0
C  C41  1  0.48324472  0.57140784  0.25894737  1  0.029743  0  -0.016422  -0.110745  0  3.867627  0
C  C42  1  0.62548970  0.58111650  0.32790023  1  0.075077  0  0.012312  0.073914  0  4.004657  0
C  C43  1  0.37243208  0.58044675  0.28944202  1  0.13598  0  0.012436  0.075063  0  4.004288  0
C  C44  1  0.60853163  0.58946463  0.27905055  1  0.183899  0  0.013622  0.077879  0  4.001016  0
C  C45  1  0.38923806  0.58686735  0.33835114  1  0.128199  0  0.013129  0.07742  0  3.999149  0
C  C46  1  0.06672106  0.43074631  0.15182830  1  0.711715  0  0.149578  0.18764  0  4.045039  0
C  C47  1  0.92833546  0.55211271  0.08653169  1  0.736732  0  0.149087  0.184645  0  4.050067  0
C  C48  1  0.92675035  0.43381224  0.15299992  1  0.69701  0  0.147359  0.182835  0  4.055046  0
C  C49  1  0.06825821  0.55411402  0.08672615  1  0.670664  0  0.150561  0.185737  0  4.046561  0
C  C50  1  0.51210498  0.12112175  0.12143449  1  0.145634  0  -0.015195  -0.114393  0  3.856143  0
C  C51  1  0.51335555  0.86033965  0.12075672  1  0.112785  0  -0.01507  -0.110738  0  3.86506  0
C  C52  1  0.63122561  0.05449712  0.12370867  1  0.073379  0  0.014067  0.079737  0  3.98708  0
C  C53  1  0.39413034  0.92674419  0.12245139  1  0.0732  0  0.01539  0.079388  0  3.990328  0
C  C54  1  0.63204359  0.92719915  0.12079183  1  0.063484  0  0.013349  0.079072  0  3.988887  0
C  C55  1  0.39381448  0.05381752  0.11862869  1  0.152507  0  0.014884  0.078603  0  3.991802  0
N  N56  1  0.86535755  0.49063479  0.49733424  1  -1.213093  0  -0.284016  -0.238224  0  3.424054  0
N  N57  1  0.14105839  0.48972174  0.49701057  1  -1.18663  0  -0.281765  -0.241903  0  3.413073  0
N  N58  1  0.13520402  0.49229818  0.11910635  1  -1.182627  0  -0.284239  -0.238567  0  3.423945  0
N  N59  1  0.85951971  0.49325415  0.11998649  1  -1.181749  0  -0.281587  -0.24101  0  3.413259  0
Cl  Cl60  1  0.85177272  0.34635752  0.42470906  1  -0.063898  0  0.083826  0.036711  0  1.720942  0
Cl  Cl61  1  0.15286310  0.62205260  0.57333894  1  -0.072096  0  0.088411  0.036037  0  1.726661  0
Cl  Cl62  1  0.15811753  0.35592442  0.42130438  1  -0.068225  0  0.083502  0.033715  0  1.760035  0
Cl  Cl63  1  0.84826670  0.63517209  0.57020169  1  -0.073984  0  0.090321  0.039815  0  1.695234  0
Cl  Cl64  1  0.21766723  0.12076782  0.49045785  1  -0.164645  0  -0.010933  -0.057597  0  1.740726  0
Cl  Cl65  1  0.75517839  0.85289734  0.48298441  1  -0.165872  0  -0.006098  -0.050811  0  1.662718  0
Cl  Cl66  1  0.21665853  0.85685070  0.50241196  1  -0.163797  0  -0.011811  -0.061562  0  1.733464  0
Cl  Cl67  1  0.75843898  0.11756143  0.50630005  1  -0.158175  0  -0.00788  -0.052193  0  1.662646  0
Cl  Cl68  1  0.78427764  0.58602012  0.34833244  1  -0.15521  0  -0.006867  -0.054134  0  1.663981  0
Cl  Cl69  1  0.21371349  0.58476202  0.26894392  1  -0.166021  0  -0.007005  -0.054957  0  1.664964  0
Cl  Cl70  1  0.74174873  0.63022867  0.24457918  1  -0.162534  0  0.00015  -0.041647  0  1.679051  0
Cl  Cl71  1  0.25508835  0.62441889  0.37303222  1  -0.159446  0  -0.000343  -0.041961  0  1.679411  0
Cl  Cl72  1  0.14896181  0.34805230  0.19155709  1  -0.073275  0  0.083632  0.036339  0  1.723455  0
Cl  Cl73  1  0.84716271  0.62480591  0.04363515  1  -0.071618  0  0.087919  0.035195  0  1.721404  0
Cl  Cl74  1  0.84292949  0.36256584  0.19630841  1  -0.067944  0  0.083939  0.034811  0  1.76474  0
Cl  Cl75  1  0.15205828  0.63565099  0.04608554  1  -0.07315  0  0.08998  0.039072  0  1.695543  0
Cl  Cl76  1  0.78215248  0.12227579  0.13093639  1  -0.153887  0  -0.011278  -0.059146  0  1.742155  0
Cl  Cl77  1  0.24420967  0.85696957  0.13154157  1  -0.155416  0  -0.006485  -0.050788  0  1.664267  0
Cl  Cl78  1  0.78434818  0.85870243  0.11688064  1  -0.161828  0  -0.011356  -0.060391  0  1.729218  0
Cl  Cl79  1  0.24408147  0.12156302  0.10829273  1  -0.167468  0  -0.00758  -0.05161  0  1.658837  0
O  O80  1  0.58608657  0.67033706  0.51741387  1  -1.157026  0  -0.315269  -0.557331  0  2.384961  0
O  O81  1  0.38665413  0.66616002  0.48340137  1  -1.144469  0  -0.319087  -0.555254  0  2.428397  0
O  O82  1  0.41080242  0.50311948  0.56625760  1  -1.172367  0  -0.317609  -0.558361  0  2.39926  0
O  O83  1  0.62648212  0.44677099  0.56586342  1  -1.155795  0  -0.323842  -0.550425  0  2.336155  0
O  O84  1  0.38410872  0.30936971  0.50696006  1  -1.143813  0  -0.318522  -0.540084  0  2.406755  0
O  O85  1  0.59512899  0.30897782  0.48072467  1  -1.158729  0  -0.317986  -0.56021  0  2.403256  0
O  O86  1  0.62896099  0.55613310  0.43164334  1  -1.144513  0  -0.314861  -0.542299  0  2.395876  0
O  O87  1  0.42807355  0.47035621  0.42526953  1  -1.160059  0  -0.321031  -0.5628  0  2.392355  0
O  O88  1  0.41420207  0.67253677  0.09953298  1  -1.159465  0  -0.315529  -0.556981  0  2.382845  0
O  O89  1  0.61367973  0.66847743  0.13345786  1  -1.14927  0  -0.319117  -0.555135  0  2.431531  0
O  O90  1  0.59005235  0.50379795  0.05074765  1  -1.168945  0  -0.317635  -0.55705  0  2.398623  0
O  O91  1  0.37437107  0.44787200  0.05120770  1  -1.15837  0  -0.323464  -0.549438  0  2.339838  0
O  O92  1  0.61787463  0.31117009  0.11051310  1  -1.151323  0  -0.3184  -0.539174  0  2.399734  0
O  O93  1  0.40655707  0.31186531  0.13651190  1  -1.159648  0  -0.317709  -0.560559  0  2.404126  0
O  O94  1  0.37012529  0.55905988  0.18535374  1  -1.141775  0  -0.315489  -0.542596  0  2.39101  0
O  O95  1  0.57149854  0.47395098  0.19177417  1  -1.162803  0  -0.320055  -0.562661  0  2.392998  0
F  F96  1  0.72484415  0.51277211  0.88301019  1  -0.620695  0  -0.097131  -0.133652  0  1.3195  0
F  F97  1  0.25856735  0.48051210  0.88043017  1  -0.615634  0  -0.09717  -0.13341  0  1.316046  0
F  F98  1  0.74153278  0.48196112  0.73674496  1  -0.625742  0  -0.09706  -0.132936  0  1.318587  0
F  F99  1  0.27507131  0.51230722  0.73391956  1  -0.621214  0  -0.097308  -0.134109  0  1.317855  0
