# generated using pymatgen
data_Zn3H32C19N2O17
_symmetry_space_group_name_H-M   'P 1'
_cell_length_a   9.05861177
_cell_length_b   12.04191552
_cell_length_c   13.80711169
_cell_angle_alpha   90.56422551
_cell_angle_beta   100.97148256
_cell_angle_gamma   102.91122927
_symmetry_Int_Tables_number   1
_chemical_formula_structural   Zn3H32C19N2O17
_chemical_formula_sum   'Zn6 H64 C38 N4 O34'
_cell_volume   1439.04996709
_cell_formula_units_Z   2
loop_
 _symmetry_equiv_pos_site_id
 _symmetry_equiv_pos_as_xyz
  1  'x, y, z'
loop_
 _atom_site_type_symbol
 _atom_site_label
 _atom_site_symmetry_multiplicity
 _atom_site_fract_x
 _atom_site_fract_y
 _atom_site_fract_z
 _atom_site_occupancy
 _atom_site_hle17_bader_spin_density
 _atom_site_hle17_ddec_charge
 _atom_site_hle17_ddec_spin_density
 _atom_site_hle17_ddec_sum_bond_order
 _atom_site_hle17_magmom
 _atom_site_hse06_10hf_bader_spin_density
 _atom_site_hse06_10hf_ddec_charge
 _atom_site_hse06_10hf_ddec_spin_density
 _atom_site_hse06_10hf_ddec_sum_bond_order
 _atom_site_hse06_10hf_magmom
 _atom_site_hse06_bader_spin_density
 _atom_site_hse06_ddec_charge
 _atom_site_hse06_ddec_spin_density
 _atom_site_hse06_ddec_sum_bond_order
 _atom_site_hse06_magmom
 _atom_site_pbe_bader_spin_density
 _atom_site_pbe_cm5_charge
 _atom_site_pbe_ddec_charge
 _atom_site_pbe_ddec_spin_density
 _atom_site_pbe_ddec_sum_bond_order
 _atom_site_pbe_magmom
Zn  Zn0  1  0.62016023  0.20210256  0.36909678  1  0  1.104538  0  1.71895  0  0  0.937515  0  2.145319  0  0  0.984002  0  2.091868  0  0  0.678358  0.904746  0  2.182458  0
Zn  Zn1  1  0.37985397  0.79788887  0.63090857  1  0  1.104664  0  1.718899  0  0  0.937523  0  2.14532  0  0  0.984  0  2.091877  0  0  0.67839  0.904756  0  2.182461  0
Zn  Zn2  1  0.74025208  0.23772650  0.63723538  1  0  1.050877  0  1.799202  0  0  0.871628  0  2.239007  0  0  0.920064  0  2.185865  0  0  0.680547  0.837631  0  2.275421  0
Zn  Zn3  1  0.25974983  0.76225945  0.36276830  1  0  1.050913  0  1.799124  0  0  0.871639  0  2.238886  0  0  0.920093  0  2.185759  0  0  0.680602  0.837646  0  2.2753  0
Zn  Zn4  1  0.49998787  0.00000778  0.99999864  1  0  1.252306  0  1.55242  0  0  1.087784  0  1.994733  0  0  1.136673  0  1.933065  0  0  0.67465  1.052886  0  2.037382  0
Zn  Zn5  1  0.99999662  0.49999397  0.00000390  1  0  1.258262  0  1.596187  0  0  1.097461  0  2.045521  0  0  1.145178  0  1.983432  0  0  0.697021  1.063242  0  2.08866  0
H  H6  1  0.90684814  0.63908178  0.38802270  1  0  0.111782  0  0.963925  0  0  0.122292  0  1.027019  0  0  0.126062  0  1.02417  0  0  0.100365  0.119773  0  1.028485  0
H  H7  1  0.09314960  0.36091679  0.61197220  1  0  0.111726  0  0.963956  0  0  0.122256  0  1.027042  0  0  0.126026  0  1.024198  0  0  0.100349  0.119737  0  1.028502  0
H  H8  1  0.66321179  0.63796260  0.62687180  1  0  0.10454  0  0.978916  0  0  0.113782  0  1.045829  0  0  0.116973  0  1.044117  0  0  0.09472  0.111784  0  1.046213  0
H  H9  1  0.33678980  0.36203119  0.37313137  1  0  0.104597  0  0.978914  0  0  0.113833  0  1.045815  0  0  0.117025  0  1.044104  0  0  0.094744  0.111836  0  1.04621  0
H  H10  1  0.75863965  0.81643330  0.55517566  1  0  0.116884  0  0.961931  0  0  0.139529  0  1.019548  0  0  0.141112  0  1.019316  0  0  0.088943  0.138058  0  1.020249  0
H  H11  1  0.24136604  0.18355968  0.44482001  1  0  0.11686  0  0.961847  0  0  0.13945  0  1.019564  0  0  0.141031  0  1.019339  0  0  0.088873  0.137979  0  1.020265  0
H  H12  1  0.83932957  0.81764203  0.44624317  1  0  0.121357  0  0.965475  0  0  0.140827  0  1.026458  0  0  0.143126  0  1.02573  0  0  0.088705  0.139084  0  1.02713  0
H  H13  1  0.16067391  0.18235086  0.55375876  1  0  0.121246  0  0.965453  0  0  0.140801  0  1.026363  0  0  0.143099  0  1.025634  0  0  0.088735  0.13906  0  1.027032  0
H  H14  1  0.95505847  0.81298878  0.56257959  1  0  0.106139  0  0.993765  0  0  0.125774  0  1.061569  0  0  0.127665  0  1.060136  0  0  0.084189  0.124113  0  1.063085  0
H  H15  1  0.04494226  0.18700885  0.43741347  1  0  0.106011  0  0.993745  0  0  0.125678  0  1.061548  0  0  0.127564  0  1.060116  0  0  0.084136  0.124017  0  1.063064  0
H  H16  1  0.94721813  0.47250943  0.32494117  1  0  0.081158  0  0.95313  0  0  0.095316  0  1.015731  0  0  0.096049  0  1.016189  0  0  0.10169  0.09475  0  1.015241  0
H  H17  1  0.05278284  0.52749182  0.67504696  1  0  0.081209  0  0.953091  0  0  0.095361  0  1.015648  0  0  0.096095  0  1.016106  0  0  0.101746  0.094795  0  1.015161  0
H  H18  1  0.94676309  0.35859912  0.40551631  1  0  0.078433  0  0.967873  0  0  0.093339  0  1.031757  0  0  0.093486  0  1.03305  0  0  0.107738  0.093013  0  1.031062  0
H  H19  1  0.05323334  0.64140458  0.59448295  1  0  0.078516  0  0.967802  0  0  0.093275  0  1.031836  0  0  0.093421  0  1.033134  0  0  0.107727  0.09296  0  1.031135  0
H  H20  1  0.69258728  0.41586041  0.16024171  1  0  0.083494  0  0.949141  0  0  0.094027  0  1.018714  0  0  0.097034  0  1.015379  0  0  0.099633  0.091649  0  1.021514  0
H  H21  1  0.30743848  0.58415466  0.83976872  1  0  0.083499  0  0.949035  0  0  0.094054  0  1.018624  0  0  0.097059  0  1.015282  0  0  0.099619  0.091678  0  1.021426  0
H  H22  1  0.64233562  0.46511672  0.26802095  1  0  0.102303  0  0.941819  0  0  0.117376  0  1.00277  0  0  0.119544  0  1.001811  0  0  0.113683  0.11567  0  1.003641  0
H  H23  1  0.35768019  0.53489883  0.73198829  1  0  0.102344  0  0.941943  0  0  0.117429  0  1.002876  0  0  0.119562  0  1.001948  0  0  0.113733  0.115725  0  1.003748  0
H  H24  1  0.91521245  0.23152034  0.28147566  1  0  0.122784  0  0.915327  0  0  0.139279  0  0.96925  0  0  0.140988  0  0.96906  0  0  0.125986  0.13808  0  0.969259  0
H  H25  1  0.08478282  0.76846616  0.71851999  1  0  0.122678  0  0.915347  0  0  0.139167  0  0.969267  0  0  0.140877  0  0.969073  0  0  0.125969  0.137969  0  0.969276  0
H  H26  1  0.88372582  0.31869074  0.17920054  1  0  0.098466  0  0.953546  0  0  0.10909  0  1.018527  0  0  0.111748  0  1.016524  0  0  0.106289  0.107149  0  1.019926  0
H  H27  1  0.11628331  0.68130790  0.82080371  1  0  0.098392  0  0.953572  0  0  0.109066  0  1.018495  0  0  0.111693  0  1.016528  0  0  0.106266  0.107125  0  1.019892  0
H  H28  1  0.49414265  0.46381783  0.65491823  1  0  0.059125  0  0.948985  0  0  0.073319  0  1.018931  0  0  0.073383  0  1.019768  0  0  0.097474  0.073255  0  1.01819  0
H  H29  1  0.50585233  0.53617684  0.34506678  1  0  0.059001  0  0.948975  0  0  0.073278  0  1.018873  0  0  0.07334  0  1.019712  0  0  0.097367  0.073196  0  1.018121  0
H  H30  1  0.46973396  0.34333338  0.57424682  1  0  0.081991  0  0.960568  0  0  0.097701  0  1.021258  0  0  0.09813  0  1.022254  0  0  0.109871  0.097175  0  1.020799  0
H  H31  1  0.53026070  0.65666883  0.42574709  1  0  0.08205  0  0.960525  0  0  0.097745  0  1.021255  0  0  0.098173  0  1.022252  0  0  0.109894  0.097203  0  1.020787  0
H  H32  1  0.40274572  0.30288366  0.75096023  1  0  0.100377  0  0.906455  0  0  0.114229  0  0.964499  0  0  0.116816  0  0.962357  0  0  0.10937  0.112495  0  0.965831  0
H  H33  1  0.59723738  0.69710309  0.24904409  1  0  0.100351  0  0.906512  0  0  0.114257  0  0.964517  0  0  0.116837  0  0.962386  0  0  0.109407  0.11252  0  0.965845  0
H  H34  1  0.54298846  0.23232791  0.81459067  1  0  0.126181  0  0.931039  0  0  0.139503  0  0.990656  0  0  0.142248  0  0.988583  0  0  0.120084  0.137412  0  0.992425  0
H  H35  1  0.45699380  0.76767119  0.18540889  1  0  0.126134  0  0.931047  0  0  0.139483  0  0.990656  0  0  0.142226  0  0.988584  0  0  0.120059  0.137384  0  0.992433  0
H  H36  1  0.70409845  0.39520372  0.85733376  1  0  0.111095  0  0.966448  0  0  0.126895  0  1.024765  0  0  0.128914  0  1.023463  0  0  0.115562  0.125478  0  1.025834  0
H  H37  1  0.29588439  0.60480841  0.14266485  1  0  0.111088  0  0.966495  0  0  0.12694  0  1.024828  0  0  0.128977  0  1.023507  0  0  0.115533  0.12552  0  1.0259  0
H  H38  1  0.72698254  0.50642342  0.77502463  1  0  0.113152  0  0.910185  0  0  0.131471  0  0.962845  0  0  0.133109  0  0.962652  0  0  0.118605  0.130264  0  0.962984  0
H  H39  1  0.27303006  0.49358199  0.22495345  1  0  0.113247  0  0.910117  0  0  0.131572  0  0.962838  0  0  0.133195  0  0.962683  0  0  0.118602  0.130366  0  0.962982  0
H  H40  1  0.90322343  0.92280326  0.78842036  1  0  0.134455  0  0.934485  0  0  0.152811  0  0.993099  0  0  0.155805  0  0.991054  0  0  0.094649  0.150477  0  0.994683  0
H  H41  1  0.09676702  0.07720239  0.21158041  1  0  0.134458  0  0.934553  0  0  0.152849  0  0.993133  0  0  0.155842  0  0.991089  0  0  0.094653  0.150514  0  0.994716  0
H  H42  1  0.07379281  0.02200353  0.76867846  1  0  0.143143  0  0.939336  0  0  0.160305  0  1.001985  0  0  0.163332  0  1.000336  0  0  0.098541  0.158126  0  1.003229  0
H  H43  1  0.92620713  0.97798671  0.23130266  1  0  0.143162  0  0.93923  0  0  0.160334  0  1.001887  0  0  0.16336  0  1.000243  0  0  0.098529  0.158156  0  1.003127  0
H  H44  1  0.95246346  0.93459096  0.66813976  1  0  0.137728  0  0.970207  0  0  0.156844  0  1.03048  0  0  0.1591  0  1.030106  0  0  0.098105  0.155239  0  1.030706  0
H  H45  1  0.04753025  0.06538854  0.33185981  1  0  0.137846  0  0.970207  0  0  0.156985  0  1.030434  0  0  0.159238  0  1.030055  0  0  0.098147  0.155378  0  1.030661  0
H  H46  1  0.75748264  0.02426693  0.38587360  1  0  0.421857  0  0.885575  0  0  0.386738  0  0.956048  0  0  0.39883  0  0.938656  0  0  0.287804  0.378266  0  0.968234  0
H  H47  1  0.24252003  0.97571816  0.61412870  1  0  0.421935  0  0.885453  0  0  0.386696  0  0.956107  0  0  0.398789  0  0.938714  0  0  0.287724  0.378223  0  0.968293  0
H  H48  1  0.81733598  0.09329243  0.49257809  1  0  0.432912  0  0.856639  0  0  0.404033  0  0.916009  0  0  0.414625  0  0.900516  0  0  0.299652  0.396475  0  0.927123  0
H  H49  1  0.18267658  0.90670379  0.50741562  1  0  0.432961  0  0.856544  0  0  0.404038  0  0.91602  0  0  0.414643  0  0.900508  0  0  0.299609  0.396479  0  0.927134  0
H  H50  1  0.45612475  0.09836962  0.48762594  1  0  0.419221  0  0.879482  0  0  0.386373  0  0.9516  0  0  0.39687  0  0.936292  0  0  0.299262  0.378808  0  0.962726  0
H  H51  1  0.54389710  0.90163247  0.51238866  1  0  0.419159  0  0.879597  0  0  0.386387  0  0.951572  0  0  0.39688  0  0.936268  0  0  0.299287  0.378822  0  0.962698  0
H  H52  1  0.45756536  0.00929717  0.40136505  1  0  0.41855  0  0.885453  0  0  0.38505  0  0.955979  0  0  0.395794  0  0.940438  0  0  0.296313  0.377511  0  0.96689  0
H  H53  1  0.54244908  0.99070602  0.59865231  1  0  0.418558  0  0.885464  0  0  0.385062  0  0.955967  0  0  0.39581  0  0.94042  0  0  0.296339  0.377522  0  0.966878  0
H  H54  1  0.37784414  0.19604491  0.03426916  1  0  0.434798  0  0.859703  0  0  0.400822  0  0.927039  0  0  0.41161  0  0.911271  0  0  0.289729  0.393125  0  0.938317  0
H  H55  1  0.62215484  0.80395960  0.96572826  1  0  0.434772  0  0.859751  0  0  0.400777  0  0.927089  0  0  0.411559  0  0.91133  0  0  0.289749  0.393081  0  0.938365  0
H  H56  1  0.25932070  0.10668438  0.95586262  1  0  0.426159  0  0.818264  0  0  0.412918  0  0.866041  0  0  0.420772  0  0.857185  0  0  0.327921  0.40727  0  0.872512  0
H  H57  1  0.74066360  0.89332884  0.04412678  1  0  0.426217  0  0.818226  0  0  0.412972  0  0.866018  0  0  0.420828  0  0.857161  0  0  0.327956  0.407323  0  0.872489  0
H  H58  1  0.48898898  0.00489621  0.17370503  1  0  0.423818  0  0.888407  0  0  0.390191  0  0.955134  0  0  0.402144  0  0.938112  0  0  0.292866  0.381781  0  0.967078  0
H  H59  1  0.51099154  0.99511015  0.82628731  1  0  0.423787  0  0.888445  0  0  0.390203  0  0.955113  0  0  0.402157  0  0.938092  0  0  0.292909  0.381796  0  0.967054  0
H  H60  1  0.31534257  0.93113530  0.13877975  1  0  0.450471  0  0.835869  0  0  0.420264  0  0.896055  0  0  0.431866  0  0.879147  0  0  0.299333  0.411995  0  0.908099  0
H  H61  1  0.68463259  0.06885729  0.86121584  1  0  0.450543  0  0.83578  0  0  0.420247  0  0.896087  0  0  0.431846  0  0.879182  0  0  0.299315  0.41198  0  0.908124  0
H  H62  1  0.27308717  0.38714982  0.05592624  1  0  0.449416  0  0.842991  0  0  0.414671  0  0.91084  0  0  0.425958  0  0.894371  0  0  0.290311  0.406525  0  0.922745  0
H  H63  1  0.72689719  0.61285152  0.94408161  1  0  0.449422  0  0.843014  0  0  0.414647  0  0.91092  0  0  0.425937  0  0.894446  0  0  0.290248  0.406503  0  0.922826  0
H  H64  1  0.19020545  0.39815488  0.94433666  1  0  0.433621  0  0.818693  0  0  0.413567  0  0.874282  0  0  0.423205  0  0.862956  0  0  0.318529  0.40652  0  0.882662  0
H  H65  1  0.80978590  0.60185567  0.05567235  1  0  0.433645  0  0.818508  0  0  0.413576  0  0.874137  0  0  0.423214  0  0.862812  0  0  0.318534  0.406526  0  0.882519  0
H  H66  1  0.21052900  0.74135519  0.97326054  1  0  0.439112  0  0.847062  0  0  0.409959  0  0.905915  0  0  0.421031  0  0.889904  0  0  0.298038  0.402031  0  0.917401  0
H  H67  1  0.78945859  0.25864902  0.02673476  1  0  0.439023  0  0.847086  0  0  0.409877  0  0.906001  0  0  0.420948  0  0.889992  0  0  0.297979  0.401948  0  0.917487  0
H  H68  1  0.27364431  0.63050761  0.98604870  1  0  0.415827  0  0.837832  0  0  0.39384  0  0.902689  0  0  0.402673  0  0.892028  0  0  0.311026  0.387411  0  0.910572  0
H  H69  1  0.72635811  0.36950273  0.01395150  1  0  0.415784  0  0.838028  0  0  0.393792  0  0.902893  0  0  0.402629  0  0.892226  0  0  0.311022  0.38736  0  0.910781  0
C  C70  1  0.80980279  0.47353228  0.43424099  1  0  -0.044907  0  3.77646  0  0  -0.025158  0  4.021943  0  0  -0.030245  0  4.047488  0  0  -0.034392  -0.022433  0  4.00399  0
C  C71  1  0.19019506  0.52646357  0.56575746  1  0  -0.044956  0  3.776523  0  0  -0.025226  0  4.022011  0  0  -0.030308  0  4.047551  0  0  -0.03442  -0.022498  0  4.004061  0
C  C72  1  0.84111434  0.59290781  0.43960205  1  0  -0.16212  0  3.708948  0  0  -0.194547  0  3.962584  0  0  -0.195739  0  3.981997  0  0  -0.097091  -0.192698  0  3.948328  0
C  C73  1  0.15889469  0.40709348  0.56040083  1  0  -0.162133  0  3.709142  0  0  -0.194573  0  3.962816  0  0  -0.195769  0  3.982229  0  0  -0.097126  -0.192722  0  3.948554  0
C  C74  1  0.79451945  0.65390392  0.51067523  1  0  0.123084  0  3.811562  0  0  0.147203  0  4.057424  0  0  0.146661  0  4.081953  0  0  -0.029283  0.146671  0  4.041069  0
C  C75  1  0.20548536  0.34609237  0.48932697  1  0  0.123155  0  3.811258  0  0  0.147228  0  4.057215  0  0  0.146685  0  4.081747  0  0  -0.029218  0.1467  0  4.040855  0
C  C76  1  0.70719723  0.59197078  0.57414057  1  0  -0.162239  0  3.723509  0  0  -0.191331  0  3.972665  0  0  -0.19305  0  3.993619  0  0  -0.099278  -0.188984  0  3.957166  0
C  C77  1  0.29281555  0.40802855  0.42586414  1  0  -0.162368  0  3.723504  0  0  -0.19142  0  3.97263  0  0  -0.193142  0  3.993587  0  0  -0.099338  -0.189084  0  3.957144  0
C  C78  1  0.66887445  0.47278484  0.56838561  1  0  -0.057033  0  3.789441  0  0  -0.037497  0  4.035888  0  0  -0.042959  0  4.062347  0  0  -0.040737  -0.034687  0  4.017704  0
C  C79  1  0.33113556  0.52721038  0.43161574  1  0  -0.056853  0  3.789524  0  0  -0.037289  0  4.035983  0  0  -0.042757  0  4.062452  0  0  -0.040659  -0.0345  0  4.017778  0
C  C80  1  0.72535562  0.41273550  0.50061205  1  0  0.245718  0  3.837979  0  0  0.22173  0  4.097648  0  0  0.232778  0  4.116113  0  0  0.065012  0.214281  0  4.083584  0
C  C81  1  0.27466346  0.58726257  0.49939629  1  0  0.245791  0  3.837922  0  0  0.221753  0  4.097583  0  0  0.232801  0  4.116054  0  0  0.065045  0.214304  0  4.083527  0
C  C82  1  0.83759942  0.78183581  0.51881913  1  0  -0.35719  0  3.718454  0  0  -0.437662  0  3.950647  0  0  -0.440559  0  3.959317  0  0  -0.256359  -0.435054  0  3.945327  0
C  C83  1  0.16240339  0.21815546  0.48117976  1  0  -0.356975  0  3.718092  0  0  -0.437512  0  3.950346  0  0  -0.4404  0  3.959035  0  0  -0.256306  -0.434908  0  3.945019  0
C  C84  1  0.87424467  0.41084779  0.36398310  1  0  -0.044569  0  3.651521  0  0  -0.105431  0  3.899437  0  0  -0.101107  0  3.910902  0  0  -0.074648  -0.107979  0  3.891426  0
C  C85  1  0.12575552  0.58915418  0.63601076  1  0  -0.044618  0  3.651431  0  0  -0.105409  0  3.899285  0  0  -0.101083  0  3.910749  0  0  -0.0747  -0.107972  0  3.891282  0
C  C86  1  0.64809688  0.38789648  0.22685038  1  0  -0.178569  0  3.634711  0  0  -0.23379  0  3.886325  0  0  -0.235296  0  3.893634  0  0  -0.079162  -0.232774  0  3.881562  0
C  C87  1  0.35191948  0.61211482  0.77315516  1  0  -0.178431  0  3.634624  0  0  -0.233815  0  3.88627  0  0  -0.235277  0  3.893564  0  0  -0.079174  -0.232806  0  3.881507  0
C  C88  1  0.48159602  0.31528512  0.20068828  1  0  0.676989  0  3.89032  0  0  0.62565  0  4.202939  0  0  0.657764  0  4.19671  0  0  0.199583  0.603908  0  4.206271  0
C  C89  1  0.51841890  0.68472536  0.79931778  1  0  0.67683  0  3.890079  0  0  0.625476  0  4.202738  0  0  0.657583  0  4.196504  0  0  0.199541  0.603738  0  4.20607  0
C  C90  1  0.82701869  0.26449607  0.23135410  1  0  -0.190683  0  3.630337  0  0  -0.244146  0  3.877239  0  0  -0.246229  0  3.88521  0  0  -0.073225  -0.242571  0  3.871485  0
C  C91  1  0.17298568  0.73550207  0.76864521  1  0  -0.190561  0  3.630242  0  0  -0.244133  0  3.876965  0  0  -0.246196  0  3.884957  0  0  -0.073251  -0.242556  0  3.871207  0
C  C92  1  0.70745562  0.16091068  0.17857389  1  0  0.696885  0  3.80659  0  0  0.645738  0  4.104645  0  0  0.67839  0  4.100241  0  0  0.223168  0.623531  0  4.106883  0
C  C93  1  0.29253685  0.83910016  0.82142440  1  0  0.696952  0  3.806813  0  0  0.64597  0  4.104613  0  0  0.678628  0  4.100198  0  0  0.2232  0.62376  0  4.106859  0
C  C94  1  0.55617258  0.40650903  0.62522498  1  0  -0.046096  0  3.688572  0  0  -0.107612  0  3.93672  0  0  -0.103512  0  3.949286  0  0  -0.073736  -0.110107  0  3.928265  0
C  C95  1  0.44382969  0.59348670  0.37477110  1  0  -0.046086  0  3.688589  0  0  -0.107713  0  3.936896  0  0  -0.103609  0  3.949458  0  0  -0.073675  -0.110125  0  3.928327  0
C  C96  1  0.49750368  0.26222415  0.74238558  1  0  -0.181813  0  3.637299  0  0  -0.239422  0  3.893565  0  0  -0.240638  0  3.900324  0  0  -0.070955  -0.238627  0  3.888985  0
C  C97  1  0.50249318  0.73777779  0.25761367  1  0  -0.181707  0  3.637092  0  0  -0.239442  0  3.893386  0  0  -0.240645  0  3.900127  0  0  -0.070995  -0.238632  0  3.888801  0
C  C98  1  0.42899085  0.15394163  0.67533687  1  0  0.700506  0  3.812122  0  0  0.643165  0  4.124409  0  0  0.675742  0  4.117793  0  0  0.2226  0.62109  0  4.128292  0
C  C99  1  0.57102558  0.84605830  0.32467120  1  0  0.700392  0  3.81245  0  0  0.643216  0  4.12455  0  0  0.675788  0  4.117933  0  0  0.222708  0.621144  0  4.12843  0
C  C100  1  0.73219066  0.41669630  0.78530396  1  0  -0.18591  0  3.649576  0  0  -0.243642  0  3.893009  0  0  -0.245617  0  3.902028  0  0  -0.074502  -0.242278  0  3.886857  0
C  C101  1  0.26779227  0.58330454  0.21469428  1  0  -0.185926  0  3.649336  0  0  -0.243952  0  3.893121  0  0  -0.245961  0  3.902204  0  0  -0.074485  -0.242597  0  3.886988  0
C  C102  1  0.89923909  0.41010896  0.78929116  1  0  0.709033  0  3.813071  0  0  0.657376  0  4.116863  0  0  0.691741  0  4.10864  0  0  0.220739  0.633951  0  4.121873  0
C  C103  1  0.10074005  0.58988478  0.21071726  1  0  0.709106  0  3.813261  0  0  0.657607  0  4.116915  0  0  0.691987  0  4.108677  0  0  0.220829  0.634182  0  4.121929  0
C  C104  1  0.86541728  0.07360184  0.71573987  1  0  0.770403  0  3.798293  0  0  0.729689  0  4.087878  0  0  0.763715  0  4.080429  0  0  0.213204  0.706807  0  4.091927  0
C  C105  1  0.13460691  0.92639847  0.28424597  1  0  0.770519  0  3.798038  0  0  0.730209  0  4.087051  0  0  0.76428  0  4.079543  0  0  0.213524  0.707315  0  4.091122  0
C  C106  1  0.95274255  0.98124257  0.73646619  1  0  -0.453868  0  3.66116  0  0  -0.530385  0  3.891729  0  0  -0.537949  0  3.894096  0  0  -0.246881  -0.524877  0  3.8898  0
C  C107  1  0.04725872  0.01875070  0.26352678  1  0  -0.453985  0  3.661147  0  0  -0.530702  0  3.891611  0  0  -0.538258  0  3.893952  0  0  -0.246944  -0.525188  0  3.88969  0
N  N108  1  0.75380074  0.33012907  0.29148190  1  0  -0.18881  0  3.291289  0  0  -0.094461  0  3.532171  0  0  -0.11152  0  3.552114  0  0  -0.334939  -0.082757  0  3.518208  0
N  N109  1  0.24620907  0.66987144  0.70851742  1  0  -0.188797  0  3.291169  0  0  -0.094194  0  3.531719  0  0  -0.111255  0  3.551646  0  0  -0.33483  -0.082487  0  3.517755  0
N  N110  1  0.62262710  0.34121102  0.70679714  1  0  -0.186436  0  3.326209  0  0  -0.088676  0  3.566849  0  0  -0.105625  0  3.586727  0  0  -0.342205  -0.077133  0  3.553001  0
N  N111  1  0.37736212  0.65878866  0.29320183  1  0  -0.186388  0  3.326028  0  0  -0.088519  0  3.566781  0  0  -0.105453  0  3.586652  0  0  -0.342153  -0.076995  0  3.552913  0
O  O112  1  0.69764493  0.29756492  0.50027594  1  0  -0.678254  0  2.190587  0  0  -0.582851  0  2.486687  0  0  -0.61092  0  2.473018  0  0  -0.357779  -0.562261  0  2.49486  0
O  O113  1  0.30236806  0.70242918  0.49972935  1  0  -0.678448  0  2.190666  0  0  -0.58294  0  2.486741  0  0  -0.61097  0  2.472991  0  0  -0.357841  -0.562358  0  2.494925  0
O  O114  1  0.43009213  0.25999295  0.26897611  1  0  -0.610436  0  1.980388  0  0  -0.558548  0  2.229838  0  0  -0.583767  0  2.218171  0  0  -0.312934  -0.541069  0  2.236883  0
O  O115  1  0.56991264  0.74003178  0.73103282  1  0  -0.610545  0  1.980525  0  0  -0.558533  0  2.229892  0  0  -0.583772  0  2.218271  0  0  -0.312928  -0.541051  0  2.236938  0
O  O116  1  0.40669795  0.31892281  0.11259381  1  0  -0.696975  0  1.960737  0  0  -0.636388  0  2.181851  0  0  -0.660053  0  2.16665  0  0  -0.34857  -0.619487  0  2.191774  0
O  O117  1  0.59331321  0.68108954  0.88741331  1  0  -0.696886  0  1.96063  0  0  -0.636286  0  2.181764  0  0  -0.659947  0  2.166571  0  0  -0.348551  -0.619385  0  2.191685  0
O  O118  1  0.61432174  0.10801045  0.22983719  1  0  -0.617192  0  2.10803  0  0  -0.538707  0  2.335658  0  0  -0.56799  0  2.327569  0  0  -0.290563  -0.518452  0  2.340846  0
O  O119  1  0.38567536  0.89199485  0.77016509  1  0  -0.617238  0  2.108454  0  0  -0.538767  0  2.335959  0  0  -0.56805  0  2.327867  0  0  -0.290555  -0.518511  0  2.341148  0
O  O120  1  0.70579244  0.13288383  0.08892591  1  0  -0.656403  0  1.948182  0  0  -0.587925  0  2.178198  0  0  -0.616265  0  2.16663  0  0  -0.308524  -0.568042  0  2.185716  0
O  O121  1  0.29419208  0.86713260  0.91107159  1  0  -0.656427  0  1.948004  0  0  -0.588147  0  2.17812  0  0  -0.616488  0  2.166543  0  0  -0.30857  -0.568263  0  2.185645  0
O  O122  1  0.51413602  0.12604272  0.61740176  1  0  -0.704288  0  2.119229  0  0  -0.617312  0  2.363859  0  0  -0.64676  0  2.350979  0  0  -0.318749  -0.596796  0  2.3722  0
O  O123  1  0.48587020  0.87394553  0.38260542  1  0  -0.704245  0  2.119252  0  0  -0.61733  0  2.363741  0  0  -0.646803  0  2.350931  0  0  -0.318726  -0.596813  0  2.37208  0
O  O124  1  0.29859447  0.09719118  0.68201777  1  0  -0.578527  0  1.970343  0  0  -0.526433  0  2.190233  0  0  -0.550615  0  2.182102  0  0  -0.294528  -0.509923  0  2.195616  0
O  O125  1  0.70142272  0.90280736  0.31800557  1  0  -0.578432  0  1.970771  0  0  -0.526449  0  2.190597  0  0  -0.550626  0  2.182466  0  0  -0.294638  -0.509942  0  2.195981  0
O  O126  1  0.93271230  0.35301146  0.72339440  1  0  -0.589944  0  2.048405  0  0  -0.528681  0  2.301151  0  0  -0.554655  0  2.288308  0  0  -0.292087  -0.510845  0  2.309013  0
O  O127  1  0.06727391  0.64698021  0.27661482  1  0  -0.590027  0  2.048665  0  0  -0.528787  0  2.301327  0  0  -0.554762  0  2.288477  0  0  -0.292209  -0.510954  0  2.309189  0
O  O128  1  0.00302965  0.46833913  0.85915303  1  0  -0.696549  0  2.075212  0  0  -0.62471  0  2.351941  0  0  -0.655836  0  2.336068  0  0  -0.333983  -0.602618  0  2.36212  0
O  O129  1  0.99695371  0.53165977  0.14085101  1  0  -0.696649  0  2.075528  0  0  -0.624801  0  2.352155  0  0  -0.655931  0  2.336286  0  0  -0.333998  -0.602692  0  2.3623  0
O  O130  1  0.78662937  0.10210731  0.42108102  1  0  -0.847083  0  1.919062  0  0  -0.785734  0  2.125702  0  0  -0.807425  0  2.090147  0  0  -0.578539  -0.77056  0  2.150983  0
O  O131  1  0.21337565  0.89788398  0.57891451  1  0  -0.847185  0  1.918873  0  0  -0.78572  0  2.125654  0  0  -0.807417  0  2.090084  0  0  -0.578445  -0.770545  0  2.150936  0
O  O132  1  0.44571888  0.08784351  0.41507880  1  0  -0.795737  0  1.935368  0  0  -0.727504  0  2.144115  0  0  -0.749357  0  2.109745  0  0  -0.566998  -0.712271  0  2.168472  0
O  O133  1  0.55428870  0.91215668  0.58493328  1  0  -0.795655  0  1.935441  0  0  -0.727529  0  2.144155  0  0  -0.749381  0  2.109787  0  0  -0.567063  -0.712298  0  2.168513  0
O  O134  1  0.85378504  0.11433980  0.62845928  1  0  -0.672176  0  1.999224  0  0  -0.587138  0  2.239341  0  0  -0.618141  0  2.225791  0  0  -0.327813  -0.565833  0  2.248578  0
O  O135  1  0.14625010  0.88566249  0.37153085  1  0  -0.672333  0  1.999224  0  0  -0.58735  0  2.239075  0  0  -0.618444  0  2.225569  0  0  -0.328064  -0.566046  0  2.248327  0
O  O136  1  0.80905836  0.11309737  0.78171417  1  0  -0.667942  0  1.916838  0  0  -0.612531  0  2.132766  0  0  -0.638121  0  2.120968  0  0  -0.331766  -0.594637  0  2.14027  0
O  O137  1  0.19091060  0.88688588  0.21825645  1  0  -0.667934  0  1.916836  0  0  -0.612716  0  2.132572  0  0  -0.638304  0  2.120746  0  0  -0.331797  -0.594819  0  2.140086  0
O  O138  1  0.36903534  0.13648286  0.98124460  1  0  -0.828235  0  1.843559  0  0  -0.775044  0  2.028724  0  0  -0.794498  0  1.998089  0  0  -0.565783  -0.761359  0  2.050123  0
O  O139  1  0.63094581  0.86351634  0.01875338  1  0  -0.828308  0  1.843467  0  0  -0.77511  0  2.028745  0  0  -0.794559  0  1.998117  0  0  -0.565877  -0.761427  0  2.05014  0
O  O140  1  0.42004555  0.94618325  0.12206715  1  0  -0.867831  0  1.929984  0  0  -0.799123  0  2.14713  0  0  -0.824805  0  2.109421  0  0  -0.577861  -0.780888  0  2.173142  0
O  O141  1  0.57993472  0.05381950  0.87792939  1  0  -0.867894  0  1.930088  0  0  -0.799157  0  2.147365  0  0  -0.824835  0  2.109645  0  0  -0.577858  -0.780922  0  2.17338  0
O  O142  1  0.20752669  0.43064914  0.01164952  1  0  -0.862151  0  1.858667  0  0  -0.80223  0  2.057564  0  0  -0.823172  0  2.023734  0  0  -0.571484  -0.787458  0  2.081605  0
O  O143  1  0.79246798  0.56936121  0.98836133  1  0  -0.862167  0  1.858305  0  0  -0.802255  0  2.057241  0  0  -0.823196  0  2.023413  0  0  -0.571482  -0.787486  0  2.081283  0
O  O144  1  0.19075360  0.66396115  0.99988538  1  0  -0.823771  0  1.855854  0  0  -0.769772  0  2.043904  0  0  -0.789282  0  2.013577  0  0  -0.568657  -0.755926  0  2.065355  0
O  O145  1  0.80923807  0.33604210  0.00010749  1  0  -0.823594  0  1.85597  0  0  -0.769618  0  2.044143  0  0  -0.789133  0  2.013819  0  0  -0.568578  -0.755769  0  2.065594  0
