# generated using pymatgen
data_CdH16C17SN2O7
_symmetry_space_group_name_H-M   'P 1'
_cell_length_a   8.02102932
_cell_length_b   8.43384246
_cell_length_c   14.88552823
_cell_angle_alpha   84.86649279
_cell_angle_beta   74.42030310
_cell_angle_gamma   70.76955174
_symmetry_Int_Tables_number   1
_chemical_formula_structural   CdH16C17SN2O7
_chemical_formula_sum   'Cd2 H32 C34 S2 N4 O14'
_cell_volume   915.85511403
_cell_formula_units_Z   2
loop_
 _symmetry_equiv_pos_site_id
 _symmetry_equiv_pos_as_xyz
  1  'x, y, z'
loop_
 _atom_site_type_symbol
 _atom_site_label
 _atom_site_symmetry_multiplicity
 _atom_site_fract_x
 _atom_site_fract_y
 _atom_site_fract_z
 _atom_site_occupancy
 _atom_site_hle17_bader_spin_density
 _atom_site_hle17_ddec_charge
 _atom_site_hle17_ddec_spin_density
 _atom_site_hle17_ddec_sum_bond_order
 _atom_site_hle17_magmom
 _atom_site_hse06_10hf_bader_spin_density
 _atom_site_hse06_10hf_ddec_charge
 _atom_site_hse06_10hf_ddec_spin_density
 _atom_site_hse06_10hf_ddec_sum_bond_order
 _atom_site_hse06_10hf_magmom
 _atom_site_hse06_bader_spin_density
 _atom_site_hse06_ddec_charge
 _atom_site_hse06_ddec_spin_density
 _atom_site_hse06_ddec_sum_bond_order
 _atom_site_hse06_magmom
 _atom_site_pbe_bader_spin_density
 _atom_site_pbe_cm5_charge
 _atom_site_pbe_ddec_charge
 _atom_site_pbe_ddec_spin_density
 _atom_site_pbe_ddec_sum_bond_order
 _atom_site_pbe_magmom
Cd  Cd0  1  0.09312947  0.00139609  0.78584042  1  0  1.165719  0  1.632494  0  0  0.973767  0  2.073622  0  0  1.031236  0  2.018314  0  0  0.803214  0.932774  0  2.111736  0
Cd  Cd1  1  0.88003732  0.50104271  0.21468115  1  0  1.165517  0  1.63077  0  0  0.973508  0  2.071356  0  0  1.03104  0  2.016102  0  0  0.802843  0.93246  0  2.109449  0
H  H2  1  0.89340009  0.12714765  0.57351323  1  0  0.099533  0  0.941269  0  0  0.111075  0  1.001576  0  0  0.113977  0  0.999798  0  0  0.106676  0.10895  0  1.002915  0
H  H3  1  0.46941701  0.62520112  0.42643137  1  0  0.099746  0  0.94196  0  0  0.111205  0  1.002439  0  0  0.114014  0  1.000833  0  0  0.10682  0.109167  0  1.00364  0
H  H4  1  0.83353659  0.41429295  0.50600407  1  0  0.089269  0  0.965353  0  0  0.099646  0  1.025839  0  0  0.102556  0  1.024908  0  0  0.099781  0.097522  0  1.02668  0
H  H5  1  0.34325854  0.91211081  0.49405839  1  0  0.090035  0  0.96445  0  0  0.100822  0  1.024536  0  0  0.103717  0  1.02361  0  0  0.100127  0.098738  0  1.025337  0
H  H6  1  0.56733675  0.65109148  0.59004081  1  0  0.108393  0  0.945018  0  0  0.11855  0  1.006018  0  0  0.12212  0  1.003434  0  0  0.106048  0.115941  0  1.007953  0
H  H7  1  0.16043732  0.14964775  0.41032317  1  0  0.108796  0  0.943649  0  0  0.118186  0  1.005544  0  0  0.121755  0  1.002979  0  0  0.10555  0.11559  0  1.00746  0
H  H8  1  0.41143871  0.30673593  0.79968711  1  0  0.113636  0  0.944551  0  0  0.120349  0  1.010742  0  0  0.124536  0  1.007301  0  0  0.107599  0.117304  0  1.013261  0
H  H9  1  0.21173119  0.80677117  0.20064415  1  0  0.114325  0  0.943854  0  0  0.120818  0  1.010088  0  0  0.124982  0  1.006665  0  0  0.10797  0.117785  0  1.012624  0
H  H10  1  0.38664837  0.05289243  0.59880473  1  0  0.087741  0  0.947982  0  0  0.095905  0  1.012833  0  0  0.098945  0  1.009813  0  0  0.117685  0.093591  0  1.015192  0
H  H11  1  0.98568482  0.55319800  0.40200316  1  0  0.086924  0  0.94749  0  0  0.094945  0  1.012841  0  0  0.097932  0  1.009862  0  0  0.117437  0.092707  0  1.015089  0
H  H12  1  0.42396167  0.27970655  0.47861220  1  0  0.110827  0  0.952259  0  0  0.121123  0  1.010862  0  0  0.123983  0  1.010496  0  0  0.1103  0.119048  0  1.011291  0
H  H13  1  0.90331949  0.78065428  0.52162808  1  0  0.110963  0  0.952213  0  0  0.121317  0  1.0107  0  0  0.124295  0  1.010161  0  0  0.109957  0.119172  0  1.011253  0
H  H14  1  0.21306830  0.57219862  0.51531585  1  0  0.0886  0  0.968306  0  0  0.100189  0  1.029259  0  0  0.102132  0  1.028648  0  0  0.105986  0.098779  0  1.029707  0
H  H15  1  0.72986577  0.07314180  0.48395627  1  0  0.088285  0  0.968785  0  0  0.100304  0  1.029429  0  0  0.102225  0  1.028811  0  0  0.105978  0.098877  0  1.029915  0
H  H16  1  0.97040200  0.62985360  0.66339944  1  0  0.12103  0  0.961939  0  0  0.130167  0  1.022666  0  0  0.133828  0  1.020839  0  0  0.1116  0.127491  0  1.024221  0
H  H17  1  0.63576731  0.13007063  0.33565373  1  0  0.121223  0  0.962481  0  0  0.129831  0  1.023722  0  0  0.133547  0  1.02182  0  0  0.111299  0.127109  0  1.025329  0
H  H18  1  0.76222018  0.65675399  0.77384429  1  0  0.112599  0  0.98228  0  0  0.11838  0  1.049339  0  0  0.122112  0  1.047109  0  0  0.108915  0.115656  0  1.051053  0
H  H19  1  0.53729509  0.15663697  0.22543931  1  0  0.112126  0  0.982464  0  0  0.118155  0  1.049192  0  0  0.121878  0  1.047031  0  0  0.108939  0.11543  0  1.050931  0
H  H20  1  0.50462598  0.67966998  0.91307051  1  0  0.096895  0  0.936602  0  0  0.110162  0  0.99218  0  0  0.112625  0  0.990636  0  0  0.112818  0.108318  0  0.993404  0
H  H21  1  0.41811064  0.17915274  0.08630769  1  0  0.096986  0  0.936308  0  0  0.110313  0  0.991889  0  0  0.112786  0  0.990313  0  0  0.112872  0.108475  0  0.993107  0
H  H22  1  0.49244864  0.42158971  0.01042534  1  0  0.109972  0  0.977486  0  0  0.119097  0  1.039639  0  0  0.122254  0  1.038356  0  0  0.108262  0.116782  0  1.040732  0
H  H23  1  0.50258499  0.92081214  0.98953959  1  0  0.110188  0  0.975989  0  0  0.118487  0  1.039088  0  0  0.121696  0  1.037708  0  0  0.10819  0.116152  0  1.040247  0
H  H24  1  0.73590510  0.14867545  0.95769112  1  0  0.073961  0  0.945634  0  0  0.084788  0  1.007103  0  0  0.086486  0  1.006085  0  0  0.11679  0.08352  0  1.007928  0
H  H25  1  0.69382347  0.64814236  0.04254022  1  0  0.073844  0  0.94444  0  0  0.08462  0  1.006194  0  0  0.0863  0  1.005211  0  0  0.11664  0.083332  0  1.00702  0
H  H26  1  0.17082584  0.12102516  0.94250612  1  0  0.439213  0  0.861417  0  0  0.406623  0  0.925493  0  0  0.418496  0  0.908611  0  0  0.283462  0.398241  0  0.937362  0
H  H27  1  0.11343647  0.62058913  0.05758276  1  0  0.439355  0  0.861117  0  0  0.406568  0  0.925526  0  0  0.41845  0  0.908647  0  0  0.283858  0.398197  0  0.937373  0
H  H28  1  0.36116796  0.01030105  0.87265364  1  0  0.431218  0  0.871155  0  0  0.39795  0  0.938329  0  0  0.408919  0  0.922348  0  0  0.289299  0.39018  0  0.949621  0
H  H29  1  0.23441172  0.50987821  0.12738835  1  0  0.430774  0  0.871714  0  0  0.397587  0  0.938761  0  0  0.408556  0  0.922789  0  0  0.289424  0.389816  0  0.950053  0
H  H30  1  0.11966019  0.70820172  0.92270639  1  0  0.411847  0  0.902146  0  0  0.37977  0  0.968708  0  0  0.391122  0  0.952036  0  0  0.277719  0.371773  0  0.98043  0
H  H31  1  0.04298676  0.20878775  0.07720425  1  0  0.413334  0  0.900108  0  0  0.381112  0  0.966929  0  0  0.392446  0  0.950278  0  0  0.27821  0.373146  0  0.978607  0
H  H32  1  0.14017293  0.85057978  0.97544056  1  0  0.41575  0  0.878432  0  0  0.389216  0  0.934774  0  0  0.398895  0  0.92033  0  0  0.287846  0.382342  0  0.945021  0
H  H33  1  0.11566822  0.35110746  0.02416295  1  0  0.416098  0  0.878069  0  0  0.38999  0  0.933586  0  0  0.399643  0  0.9192  0  0  0.288025  0.383131  0  0.943804  0
C  C34  1  0.65376647  0.19920429  0.68936692  1  0  -0.136593  0  3.772347  0  0  -0.106563  0  4.021585  0  0  -0.115341  0  4.044942  0  0  -0.024576  -0.100944  0  4.00592  0
C  C35  1  0.34470506  0.69840814  0.31072916  1  0  -0.134953  0  3.774868  0  0  -0.105552  0  4.024278  0  0  -0.114207  0  4.047467  0  0  -0.024958  -0.100024  0  4.008793  0
C  C36  1  0.77357141  0.22920269  0.60710782  1  0  -0.067378  0  3.757637  0  0  -0.095898  0  4.011383  0  0  -0.09401  0  4.03052  0  0  -0.087288  -0.096818  0  3.998301  0
C  C37  1  0.38308890  0.72766886  0.39293894  1  0  -0.068414  0  3.758301  0  0  -0.096626  0  4.012241  0  0  -0.09478  0  4.031427  0  0  -0.087801  -0.097562  0  3.999158  0
C  C38  1  0.74036225  0.39116203  0.57010651  1  0  -0.078393  0  3.770099  0  0  -0.088113  0  4.024295  0  0  -0.092528  0  4.045689  0  0  -0.092633  -0.085237  0  4.009746  0
C  C39  1  0.31347644  0.88944945  0.43003091  1  0  -0.079407  0  3.770678  0  0  -0.089708  0  4.02477  0  0  -0.094104  0  4.046192  0  0  -0.092879  -0.086861  0  4.010196  0
C  C40  1  0.59116548  0.52264154  0.61583967  1  0  -0.054395  0  3.699526  0  0  -0.083752  0  3.950091  0  0  -0.081169  0  3.967987  0  0  -0.079693  -0.085191  0  3.937884  0
C  C41  1  0.20969626  0.02130026  0.38446679  1  0  -0.056112  0  3.699398  0  0  -0.08484  0  3.949976  0  0  -0.082315  0  3.967888  0  0  -0.079771  -0.086252  0  3.937778  0
C  C42  1  0.47230329  0.49192796  0.69843421  1  0  -0.061232  0  3.740145  0  0  -0.032657  0  3.971309  0  0  -0.041837  0  3.995145  0  0  -0.015363  -0.026863  0  3.955389  0
C  C43  1  0.17248592  0.99130193  0.30193889  1  0  -0.058637  0  3.738254  0  0  -0.029903  0  3.96859  0  0  -0.03898  0  3.992324  0  0  -0.015125  -0.024204  0  3.952785  0
C  C44  1  0.50343950  0.32909665  0.73500830  1  0  -0.067212  0  3.725884  0  0  -0.107598  0  3.979287  0  0  -0.105536  0  4.000169  0  0  -0.080985  -0.108652  0  3.965184  0
C  C45  1  0.23961304  0.82869260  0.26526395  1  0  -0.069096  0  3.72795  0  0  -0.108978  0  3.980964  0  0  -0.106938  0  4.001736  0  0  -0.080947  -0.110018  0  3.966919  0
C  C46  1  0.31511260  0.63336059  0.75088428  1  0  0.648101  0  3.930934  0  0  0.594674  0  4.227816  0  0  0.629287  0  4.222305  0  0  0.203531  0.571248  0  4.230618  0
C  C47  1  0.06740169  0.13332556  0.24970047  1  0  0.646577  0  3.933941  0  0  0.592999  0  4.230982  0  0  0.627595  0  4.22547  0  0  0.203044  0.569593  0  4.233778  0
C  C48  1  0.29347924  0.18143612  0.60752622  1  0  0.128051  0  3.720457  0  0  0.096428  0  3.974992  0  0  0.102703  0  3.994415  0  0  0.048052  0.09243  0  3.961731  0
C  C49  1  0.90152405  0.68174290  0.39291178  1  0  0.130284  0  3.719321  0  0  0.098612  0  3.974197  0  0  0.10492  0  3.993663  0  0  0.04907  0.094582  0  3.960866  0
C  C50  1  0.31664414  0.30726784  0.54314749  1  0  -0.103066  0  3.711996  0  0  -0.115956  0  3.962424  0  0  -0.122839  0  3.984881  0  0  -0.076864  -0.111556  0  3.947346  0
C  C51  1  0.86054211  0.80785926  0.45699514  1  0  -0.104268  0  3.711908  0  0  -0.117298  0  3.962851  0  0  -0.124226  0  3.985237  0  0  -0.076613  -0.112889  0  3.947839  0
C  C52  1  0.19771318  0.47009229  0.56359899  1  0  0.00233  0  3.712585  0  0  -0.015664  0  3.960674  0  0  -0.012339  0  3.979479  0  0  -0.063116  -0.017589  0  3.947828  0
C  C53  1  0.76258693  0.97066823  0.43601691  1  0  0.003191  0  3.713227  0  0  -0.015308  0  3.961237  0  0  -0.011939  0  3.980042  0  0  -0.062938  -0.017228  0  3.948394  0
C  C54  1  0.06000419  0.50210756  0.64599017  1  0  -0.126245  0  3.662824  0  0  -0.145563  0  3.909365  0  0  -0.152488  0  3.929583  0  0  -0.070836  -0.141126  0  3.895866  0
C  C55  1  0.70752881  0.00232895  0.35343299  1  0  -0.126369  0  3.664435  0  0  -0.145125  0  3.910557  0  0  -0.152046  0  3.930698  0  0  -0.070816  -0.140689  0  3.897121  0
C  C56  1  0.03927505  0.36769290  0.70559622  1  0  0.189791  0  3.747549  0  0  0.184545  0  3.987584  0  0  0.191841  0  4.008365  0  0  0.126604  0.179719  0  3.973424  0
C  C57  1  0.74606970  0.86767879  0.29421309  1  0  0.189074  0  3.75087  0  0  0.18431  0  3.990019  0  0  0.191503  0  4.010876  0  0  0.126471  0.179526  0  3.97582  0
C  C58  1  0.88632730  0.38952590  0.79091636  1  0  0.185592  0  3.737093  0  0  0.182518  0  3.972429  0  0  0.189055  0  3.993924  0  0  0.126095  0.178106  0  3.957835  0
C  C59  1  0.67823558  0.88935473  0.20885838  1  0  0.184991  0  3.734246  0  0  0.181317  0  3.970189  0  0  0.187971  0  3.991605  0  0  0.125731  0.17687  0  3.9556  0
C  C60  1  0.75481145  0.54626290  0.81607246  1  0  -0.114995  0  3.658385  0  0  -0.133382  0  3.901587  0  0  -0.139917  0  3.922276  0  0  -0.068383  -0.129128  0  3.887853  0
C  C61  1  0.57179087  0.04604712  0.18346760  1  0  -0.114788  0  3.657261  0  0  -0.133114  0  3.900715  0  0  -0.139707  0  3.921337  0  0  -0.068689  -0.128862  0  3.886967  0
C  C62  1  0.61024823  0.55892820  0.89457225  1  0  0.009003  0  3.702445  0  0  -0.00917  0  3.951139  0  0  -0.0062  0  3.969879  0  0  -0.058604  -0.010882  0  3.938328  0
C  C63  1  0.50525741  0.05849902  0.10503977  1  0  0.008746  0  3.70296  0  0  -0.009721  0  3.951758  0  0  -0.006702  0  3.970417  0  0  -0.058684  -0.011463  0  3.939017  0
C  C64  1  0.60123516  0.41607487  0.94767835  1  0  -0.106228  0  3.696583  0  0  -0.120947  0  3.949351  0  0  -0.12736  0  3.969486  0  0  -0.075171  -0.116814  0  3.935858  0
C  C65  1  0.54897132  0.91550537  0.05223115  1  0  -0.10673  0  3.696183  0  0  -0.120542  0  3.948963  0  0  -0.126929  0  3.968946  0  0  -0.075369  -0.116441  0  3.935566  0
C  C66  1  0.73708167  0.26437675  0.91896859  1  0  0.156679  0  3.708305  0  0  0.122627  0  3.963898  0  0  0.130263  0  3.982358  0  0  0.055457  0.117615  0  3.95124  0
C  C67  1  0.65635865  0.76392061  0.08109093  1  0  0.157154  0  3.705257  0  0  0.123011  0  3.960751  0  0  0.130655  0  3.979259  0  0  0.055851  0.118022  0  3.948073  0
S  S68  1  0.69219050  0.98990985  0.73265906  1  0  1.298032  0  5.668128  0  0  1.198797  0  6.189864  0  0  1.247756  0  6.165752  0  0  0.505112  1.164945  0  6.205377  0
S  S69  1  0.42593655  0.48942249  0.26717721  1  0  1.29506  0  5.667608  0  0  1.195934  0  6.189624  0  0  1.24485  0  6.165548  0  0  0.50434  1.16211  0  6.205109  0
N  N70  1  0.15662955  0.21114252  0.68553176  1  0  -0.38198  0  3.270094  0  0  -0.309023  0  3.535569  0  0  -0.329504  0  3.553718  0  0  -0.33384  -0.294982  0  3.522908  0
N  N71  1  0.84297043  0.71112766  0.31473087  1  0  -0.382358  0  3.271051  0  0  -0.309377  0  3.536379  0  0  -0.329855  0  3.554542  0  0  -0.333893  -0.295331  0  3.523719  0
N  N72  1  0.87429575  0.25135138  0.84233035  1  0  -0.380572  0  3.281655  0  0  -0.303916  0  3.540088  0  0  -0.325835  0  3.560243  0  0  -0.328586  -0.288808  0  3.526025  0
N  N73  1  0.71739490  0.75100878  0.15768528  1  0  -0.379266  0  3.274768  0  0  -0.302439  0  3.533074  0  0  -0.324397  0  3.553215  0  0  -0.32799  -0.287309  0  3.518979  0
O  O74  1  0.89045739  0.92056762  0.72781181  1  0  -0.709275  0  2.026264  0  0  -0.645489  0  2.306871  0  0  -0.669546  0  2.286962  0  0  -0.358815  -0.628322  0  2.319923  0
O  O75  1  0.61944197  0.41988728  0.27188672  1  0  -0.708538  0  2.025285  0  0  -0.644629  0  2.305652  0  0  -0.668686  0  2.285796  0  0  -0.358625  -0.627465  0  2.318676  0
O  O76  1  0.64346796  0.89898811  0.67010739  1  0  -0.644419  0  1.929752  0  0  -0.599964  0  2.180691  0  0  -0.62196  0  2.169105  0  0  -0.335945  -0.58427  0  2.188004  0
O  O77  1  0.31488121  0.39820538  0.32963389  1  0  -0.643675  0  1.930598  0  0  -0.599148  0  2.181161  0  0  -0.621039  0  2.169499  0  0  -0.335507  -0.583483  0  2.188453  0
O  O78  1  0.57999459  0.00263102  0.82968140  1  0  -0.683667  0  1.992435  0  0  -0.62627  0  2.23733  0  0  -0.648153  0  2.223053  0  0  -0.340981  -0.610751  0  2.246615  0
O  O79  1  0.41009920  0.50309706  0.17018461  1  0  -0.681913  0  1.992463  0  0  -0.62469  0  2.237437  0  0  -0.646525  0  2.223154  0  0  -0.340446  -0.609205  0  2.24672  0
O  O80  1  0.21456796  0.60003948  0.82600974  1  0  -0.633926  0  1.961466  0  0  -0.577898  0  2.177444  0  0  -0.603114  0  2.168066  0  0  -0.322858  -0.560212  0  2.183245  0
O  O81  1  0.04251374  0.10088010  0.17422418  1  0  -0.63399  0  1.963599  0  0  -0.577688  0  2.179597  0  0  -0.602946  0  2.170251  0  0  -0.322355  -0.559983  0  2.185385  0
O  O82  1  0.29913745  0.77944981  0.71376410  1  0  -0.637788  0  2.014424  0  0  -0.563043  0  2.270408  0  0  -0.5948  0  2.259155  0  0  -0.334662  -0.54073  0  2.277242  0
O  O83  1  0.01341504  0.27894970  0.28735638  1  0  -0.637657  0  2.014376  0  0  -0.562819  0  2.269862  0  0  -0.59464  0  2.258759  0  0  -0.335092  -0.540468  0  2.276592  0
O  O84  1  0.23277706  0.01403284  0.90309535  1  0  -0.879093  0  1.870766  0  0  -0.803884  0  2.067749  0  0  -0.82917  0  2.031086  0  0  -0.580028  -0.785904  0  2.093151  0
O  O85  1  0.13616567  0.51355802  0.09709364  1  0  -0.878994  0  1.870777  0  0  -0.803918  0  2.06798  0  0  -0.829228  0  2.031326  0  0  -0.580675  -0.785951  0  2.093374  0
O  O86  1  0.07442925  0.76790137  0.98449790  1  0  -0.827518  0  1.805018  0  0  -0.771525  0  1.946368  0  0  -0.791498  0  1.916537  0  0  -0.589558  -0.757348  0  1.967183  0
O  O87  1  0.05900547  0.26830569  0.01530027  1  0  -0.828239  0  1.804116  0  0  -0.7726  0  1.945273  0  0  -0.792547  0  1.915447  0  0  -0.589544  -0.758445  0  1.96607  0
