# generated using pymatgen
data_SmH14C12N3O10
_symmetry_space_group_name_H-M   'P 1'
_cell_length_a   7.54364132
_cell_length_b   12.51356993
_cell_length_c   19.58374034
_cell_angle_alpha   90.00026031
_cell_angle_beta   90.00013494
_cell_angle_gamma   98.45760666
_symmetry_Int_Tables_number   1
_chemical_formula_structural   SmH14C12N3O10
_chemical_formula_sum   'Sm4 H56 C48 N12 O40'
_cell_volume   1828.55933776
_cell_formula_units_Z   4
loop_
 _symmetry_equiv_pos_site_id
 _symmetry_equiv_pos_as_xyz
  1  'x, y, z'
loop_
 _atom_site_type_symbol
 _atom_site_label
 _atom_site_symmetry_multiplicity
 _atom_site_fract_x
 _atom_site_fract_y
 _atom_site_fract_z
 _atom_site_occupancy
 _atom_site_pbe_bader_charge
 _atom_site_pbe_bader_spin_density
 _atom_site_pbe_cm5_charge
 _atom_site_pbe_ddec_charge
 _atom_site_pbe_ddec_spin_density
 _atom_site_pbe_ddec_sum_bond_order
 _atom_site_pbe_magmom
Sm  Sm0  1  0.76069600  0.52325040  0.96847900  1  2.202943  0  1.528715  2.088278  0  2.163971  0
Sm  Sm1  1  0.73929659  0.97675042  0.46847863  1  2.202777  0  1.528688  2.088339  0  2.16398  0
Sm  Sm2  1  0.23930868  0.47675811  0.03152541  1  2.202714  0  1.528721  2.088403  0  2.163764  0
Sm  Sm3  1  0.26068267  0.02324116  0.53152221  1  2.202915  0  1.528713  2.088239  0  2.163855  0
H  H4  1  0.35271995  0.18539539  0.95481956  1  0.128815  0  0.133618  0.149026  0  0.963736  0
H  H5  1  0.14730159  0.31459750  0.45481710  1  0.128972  0  0.133595  0.149004  0  0.963794  0
H  H6  1  0.64730943  0.81460581  0.04518792  1  0.129067  0  0.133644  0.149025  0  0.963705  0
H  H7  1  0.85271225  0.68538917  0.54518118  1  0.128835  0  0.133611  0.14902  0  0.963662  0
H  H8  1  0.23991115  0.26765289  0.90136916  1  0.095121  0  0.126972  0.134974  0  0.965237  0
H  H9  1  0.26008397  0.23233639  0.40136453  1  0.09505  0  0.126985  0.134987  0  0.965255  0
H  H10  1  0.76010092  0.73234268  0.09863934  1  0.094878  0  0.127022  0.134985  0  0.965175  0
H  H11  1  0.73988943  0.76764227  0.59863069  1  0.09495  0  0.126973  0.135004  0  0.965234  0
H  H12  1  0.45849966  0.32540557  0.79288598  1  0.095384  0  0.12527  0.132009  0  0.973271  0
H  H13  1  0.04152603  0.17459734  0.29287997  1  0.095129  0  0.125264  0.131964  0  0.973403  0
H  H14  1  0.54152755  0.67460290  0.20712201  1  0.095191  0  0.125282  0.131897  0  0.973534  0
H  H15  1  0.95845882  0.82540070  0.70711729  1  0.095306  0  0.125294  0.131997  0  0.973411  0
H  H16  1  0.28719704  0.22095855  0.76527816  1  0.076383  0  0.11333  0.107671  0  0.964874  0
H  H17  1  0.21282043  0.27905467  0.26527668  1  0.076313  0  0.113304  0.107628  0  0.964801  0
H  H18  1  0.71282599  0.77904913  0.23472830  1  0.076038  0  0.113343  0.107629  0  0.964869  0
H  H19  1  0.78717707  0.72094092  0.73472364  1  0.076228  0  0.113334  0.10765  0  0.964855  0
H  H20  1  0.65869230  0.99497296  0.81707137  1  0.12374  0  0.123503  0.125258  0  0.9783  0
H  H21  1  0.84129440  0.50501858  0.31707689  1  0.12358  0  0.123478  0.125223  0  0.978256  0
H  H22  1  0.34130274  0.00502345  0.18293100  1  0.123527  0  0.123503  0.125289  0  0.978209  0
H  H23  1  0.15871000  0.49498346  0.68293263  1  0.123223  0  0.123508  0.125248  0  0.978305  0
H  H24  1  0.44147945  0.97434884  0.77877162  1  0.086544  0  0.118601  0.120018  0  0.944643  0
H  H25  1  0.05851084  0.52564676  0.27877847  1  0.086757  0  0.118563  0.119916  0  0.944638  0
H  H26  1  0.55851407  0.02564676  0.22123331  1  0.086483  0  0.118604  0.120008  0  0.944704  0
H  H27  1  0.94149508  0.47435609  0.72123105  1  0.086575  0  0.118567  0.119947  0  0.944671  0
H  H28  1  0.81598638  0.01834670  0.71874920  1  0.111292  0  0.125287  0.129861  0  0.95569  0
H  H29  1  0.68399276  0.48163678  0.21874981  1  0.111169  0  0.125243  0.129834  0  0.955781  0
H  H30  1  0.18398498  0.98163439  0.28124653  1  0.11068  0  0.125234  0.129879  0  0.955766  0
H  H31  1  0.31601855  0.51837172  0.78125052  1  0.110756  0  0.125236  0.129868  0  0.955793  0
H  H32  1  0.82728299  0.14194091  0.67438707  1  0.122095  0  0.129848  0.142329  0  0.95597  0
H  H33  1  0.67271911  0.35804541  0.17438732  1  0.12194  0  0.12985  0.14234  0  0.95595  0
H  H34  1  0.17270234  0.85803773  0.32561019  1  0.12179  0  0.129831  0.142462  0  0.955927  0
H  H35  1  0.32729910  0.64196955  0.82561148  1  0.121661  0  0.129839  0.142408  0  0.955915  0
H  H36  1  0.72346451  0.18272085  0.03450625  1  0.123362  0  0.134096  0.146736  0  0.930349  0
H  H37  1  0.77653092  0.31727407  0.53450544  1  0.123516  0  0.13408  0.146696  0  0.930267  0
H  H38  1  0.27653287  0.81727959  0.96547927  1  0.123103  0  0.13411  0.146745  0  0.930175  0
H  H39  1  0.22346497  0.68271506  0.46547293  1  0.123628  0  0.134116  0.146702  0  0.930191  0
H  H40  1  0.77084693  0.19739693  0.94539970  1  0.139679  0  0.128442  0.135425  0  0.991373  0
H  H41  1  0.72913962  0.30259481  0.44539831  1  0.140036  0  0.128436  0.135443  0  0.991316  0
H  H42  1  0.22918100  0.80260912  0.05458837  1  0.139381  0  0.128463  0.135506  0  0.991351  0
H  H43  1  0.27080411  0.69738713  0.55458312  1  0.139872  0  0.128464  0.135519  0  0.991235  0
H  H44  1  0.03659956  0.11133677  0.09222873  1  0.099965  0  0.114095  0.117847  0  0.988095  0
H  H45  1  0.46341715  0.38866699  0.59223135  1  0.100028  0  0.114035  0.11774  0  0.988394  0
H  H46  1  0.96338987  0.88866369  0.90776854  1  0.099823  0  0.114095  0.117797  0  0.98808  0
H  H47  1  0.53661793  0.61133582  0.40776745  1  0.100107  0  0.114114  0.117853  0  0.988091  0
H  H48  1  0.82393118  0.03072117  0.09120158  1  0.125027  0  0.116869  0.12086  0  1.006555  0
H  H49  1  0.67608342  0.46928549  0.59119600  1  0.124991  0  0.116812  0.120831  0  1.006639  0
H  H50  1  0.17606929  0.96927038  0.90878751  1  0.12523  0  0.116863  0.120831  0  1.006546  0
H  H51  1  0.32394459  0.53072622  0.40878390  1  0.125104  0  0.116889  0.120854  0  1.006534  0
H  H52  1  0.72702649  0.69594042  0.87542704  1  0.618952  0  0.327761  0.416706  0  0.875687  0
H  H53  1  0.77296503  0.80406370  0.37542263  1  0.619013  0  0.327771  0.416758  0  0.875564  0
H  H54  1  0.27298189  0.30406162  0.12457584  1  0.619006  0  0.32777  0.416776  0  0.875516  0
H  H55  1  0.22701685  0.19593838  0.62457310  1  0.618993  0  0.327722  0.416728  0  0.875585  0
H  H56  1  0.78317576  0.59713960  0.83829867  1  0.648018  0  0.309718  0.394329  0  0.931709  0
H  H57  1  0.71682706  0.90286825  0.33829552  1  0.647979  0  0.309666  0.394234  0  0.931844  0
H  H58  1  0.21682844  0.40286164  0.16170420  1  0.648031  0  0.309681  0.394284  0  0.931784  0
H  H59  1  0.28316357  0.09713705  0.66170481  1  0.648058  0  0.309704  0.394307  0  0.931735  0
C  C60  1  0.50207186  0.34093219  0.93171854  1  1.557657  0  0.21774  0.647916  0  4.138671  0
C  C61  1  0.99794767  0.15906989  0.43171902  1  1.55768  0  0.217804  0.648104  0  4.138345  0
C  C62  1  0.49795177  0.65907791  0.06828536  1  1.558526  0  0.217743  0.648146  0  4.138546  0
C  C63  1  0.00205348  0.84092973  0.56828794  1  1.558677  0  0.217716  0.647943  0  4.139002  0
C  C64  1  0.37077937  0.24199899  0.91177731  1  0.313907  0  -0.049431  -0.217756  0  3.883413  0
C  C65  1  0.12923009  0.25799439  0.41177672  1  0.313695  0  -0.049413  -0.217849  0  3.883441  0
C  C66  1  0.62924073  0.75800222  0.08823017  1  0.313857  0  -0.049615  -0.217958  0  3.883304  0
C  C67  1  0.87076050  0.74199475  0.58822361  1  0.3139  0  -0.049464  -0.217803  0  3.8832  0
C  C68  1  0.42435818  0.23773888  0.78666078  1  0.292491  0  -0.049103  -0.185246  0  3.918011  0
C  C69  1  0.07565613  0.26226643  0.28666271  1  0.292862  0  -0.04918  -0.185329  0  3.918066  0
C  C70  1  0.57566598  0.76226798  0.21334466  1  0.292673  0  -0.049148  -0.185045  0  3.917986  0
C  C71  1  0.92433554  0.73773241  0.71334017  1  0.292416  0  -0.049171  -0.185297  0  3.918203  0
C  C72  1  0.55443552  0.20576387  0.73400997  1  1.41371  0  0.233212  0.432808  0  4.144694  0
C  C73  1  0.94557891  0.29424392  0.23400517  1  1.413151  0  0.233379  0.433055  0  4.144622  0
C  C74  1  0.44559486  0.79424136  0.26600006  1  1.412937  0  0.233447  0.43332  0  4.144293  0
C  C75  1  0.05441750  0.70576865  0.76599464  1  1.413434  0  0.233523  0.433342  0  4.14443  0
C  C76  1  0.47939700  0.08703470  0.86147061  1  1.425348  0  0.243515  0.44284  0  4.12679  0
C  C77  1  0.02059880  0.41295831  0.36147547  1  1.425429  0  0.243495  0.442747  0  4.126889  0
C  C78  1  0.52061250  0.91296653  0.13853330  1  1.425086  0  0.243396  0.442618  0  4.127264  0
C  C79  1  0.97940319  0.58703404  0.63853047  1  1.425289  0  0.243586  0.442896  0  4.126963  0
C  C80  1  0.54900419  0.03613402  0.79875068  1  0.260616  0  -0.048741  -0.187313  0  3.922164  0
C  C81  1  0.95098503  0.46386139  0.29875556  1  0.260471  0  -0.048644  -0.187105  0  3.921757  0
C  C82  1  0.45099636  0.96386318  0.20125067  1  0.261033  0  -0.048636  -0.187145  0  3.922171  0
C  C83  1  0.04901672  0.53614066  0.70125038  1  0.26116  0  -0.04867  -0.187142  0  3.92199  0
C  C84  1  0.73418021  0.07355988  0.69471553  1  0.283446  0  -0.04785  -0.209982  0  3.882606  0
C  C85  1  0.76580888  0.42643228  0.19471708  1  0.283897  0  -0.047787  -0.210019  0  3.882555  0
C  C86  1  0.26580050  0.92642685  0.30528225  1  0.28423  0  -0.047837  -0.210362  0  3.882493  0
C  C87  1  0.23420211  0.57358026  0.80528529  1  0.28421  0  -0.047798  -0.210248  0  3.882781  0
C  C88  1  0.63316602  0.01882994  0.63333030  1  1.60758  0  0.239385  0.686252  0  4.100439  0
C  C89  1  0.86680788  0.48116661  0.13333107  1  1.607408  0  0.239544  0.686651  0  4.100115  0
C  C90  1  0.36678675  0.98116169  0.36667718  1  1.60742  0  0.239432  0.686482  0  4.10034  0
C  C91  1  0.13320696  0.51885077  0.86667538  1  1.607241  0  0.239523  0.686608  0  4.099986  0
C  C92  1  0.96487919  0.28894318  0.00962311  1  1.554127  0  0.231031  0.676669  0  4.093383  0
C  C93  1  0.53509841  0.21104996  0.50962689  1  1.5545  0  0.230811  0.676425  0  4.093969  0
C  C94  1  0.03512337  0.71106211  0.99037517  1  1.554116  0  0.230988  0.676701  0  4.093429  0
C  C95  1  0.46485600  0.78893763  0.49037293  1  1.553677  0  0.230998  0.676533  0  4.093607  0
C  C96  1  0.83045613  0.18883204  0.99583646  1  0.283527  0  -0.044119  -0.205129  0  3.85989  0
C  C97  1  0.66953389  0.31116171  0.49583503  1  0.282969  0  -0.044073  -0.204985  0  3.859598  0
C  C98  1  0.16955458  0.81117404  0.00415519  1  0.283973  0  -0.044117  -0.205262  0  3.859651  0
C  C99  1  0.33043827  0.68882261  0.50415048  1  0.283242  0  -0.044154  -0.205221  0  3.859688  0
C  C100  1  0.96117549  0.05164374  0.93579263  1  1.434459  0  0.237698  0.446892  0  4.125094  0
C  C101  1  0.53883175  0.44835678  0.43578944  1  1.434207  0  0.237744  0.447015  0  4.124964  0
C  C102  1  0.03884297  0.94836151  0.06420208  1  1.410471  0  0.237664  0.44696  0  4.124898  0
C  C103  1  0.46115117  0.55163884  0.56420323  1  1.411107  0  0.237633  0.446864  0  4.125383  0
C  C104  1  0.95066000  0.04887390  0.06295783  1  0.272816  0  -0.053018  -0.190588  0  3.916919  0
C  C105  1  0.54934409  0.45112850  0.56295617  1  0.272654  0  -0.052895  -0.1905  0  3.91731  0
C  C106  1  0.04934176  0.95112815  0.93703535  1  0.272972  0  -0.052967  -0.19037  0  3.916764  0
C  C107  1  0.45066316  0.54887435  0.43703394  1  0.272747  0  -0.053007  -0.190484  0  3.916931  0
N  N108  1  0.43134916  0.18672341  0.85320571  1  -1.190322  0  -0.278672  -0.076839  0  3.658262  0
N  N109  1  0.06865838  0.31327435  0.35320675  1  -1.190345  0  -0.278607  -0.07668  0  3.658096  0
N  N110  1  0.56867134  0.81327941  0.14680075  1  -1.190241  0  -0.278555  -0.076809  0  3.658138  0
N  N111  1  0.93133382  0.68672125  0.64679664  1  -1.19034  0  -0.278709  -0.076982  0  3.65818  0
N  N112  1  0.61919082  0.11189499  0.74543209  1  -1.190839  0  -0.275575  -0.074267  0  3.672151  0
N  N113  1  0.88080041  0.38809919  0.24543363  1  -1.190969  0  -0.275662  -0.074413  0  3.672179  0
N  N114  1  0.38081117  0.88809736  0.25456721  1  -1.190748  0  -0.275707  -0.074525  0  3.671897  0
N  N115  1  0.11919612  0.61190853  0.75456924  1  -1.190759  0  -0.275748  -0.074563  0  3.672007  0
N  N116  1  0.91277088  0.09146626  0.99616979  1  -1.202695  0  -0.271791  -0.063043  0  3.650966  0
N  N117  1  0.58722280  0.40853153  0.49616909  1  -1.202741  0  -0.27188  -0.063169  0  3.651149  0
N  N118  1  0.08724035  0.90853659  0.00382236  1  -1.178315  0  -0.271873  -0.063084  0  3.650628  0
N  N119  1  0.41276482  0.59146165  0.50381949  1  -1.178292  0  -0.271844  -0.063069  0  3.650735  0
O  O120  1  0.48257591  0.38661252  0.99014155  1  -1.217606  0  -0.448484  -0.753578  0  2.31721  0
O  O121  1  0.01741009  0.11339122  0.49013892  1  -1.217703  0  -0.448485  -0.753646  0  2.317246  0
O  O122  1  0.51742857  0.61339519  0.00986694  1  -1.218059  0  -0.44855  -0.753696  0  2.317488  0
O  O123  1  0.98255367  0.88660200  0.50986192  1  -1.218129  0  -0.448496  -0.753634  0  2.317073  0
O  O124  1  0.62894180  0.37753158  0.89245546  1  -1.170687  0  -0.358638  -0.584516  0  2.185986  0
O  O125  1  0.87104898  0.12246781  0.39245369  1  -1.170604  0  -0.358677  -0.584645  0  2.185529  0
O  O126  1  0.37105963  0.62247451  0.10754997  1  -1.170891  0  -0.358545  -0.584588  0  2.185759  0
O  O127  1  0.12891591  0.87752460  0.60754970  1  -1.170925  0  -0.358493  -0.584394  0  2.186355  0
O  O128  1  0.46862533  0.03745128  0.91646666  1  -1.143278  0  -0.305005  -0.487582  0  2.123708  0
O  O129  1  0.03136614  0.46253893  0.41647015  1  -1.143251  0  -0.305022  -0.48757  0  2.123905  0
O  O130  1  0.53137482  0.96254431  0.08353673  1  -1.143116  0  -0.304956  -0.487462  0  2.123913  0
O  O131  1  0.96863930  0.53745664  0.58353478  1  -1.143216  0  -0.304996  -0.487519  0  2.123923  0
O  O132  1  0.59417075  0.26391594  0.68318576  1  -1.156192  0  -0.317586  -0.515137  0  2.106857  0
O  O133  1  0.90586680  0.23609544  0.18317719  1  -1.155716  0  -0.317639  -0.515195  0  2.107073  0
O  O134  1  0.40588373  0.73610622  0.31683039  1  -1.155383  0  -0.317695  -0.515393  0  2.107153  0
O  O135  1  0.09414021  0.76391711  0.81681905  1  -1.155757  0  -0.317743  -0.515324  0  2.107075  0
O  O136  1  0.46607236  0.02135235  0.62844148  1  -1.204756  0  -0.370358  -0.660042  0  2.308832  0
O  O137  1  0.03391918  0.47864527  0.12844092  1  -1.204379  0  -0.370501  -0.660411  0  2.308546  0
O  O138  1  0.53390935  0.97863842  0.37156447  1  -1.204648  0  -0.370574  -0.660412  0  2.308107  0
O  O139  1  0.96610149  0.52136887  0.87156502  1  -1.20466  0  -0.370538  -0.66043  0  2.30844  0
O  O140  1  0.72802476  0.97697803  0.59006878  1  -1.210199  0  -0.394305  -0.673582  0  2.284206  0
O  O141  1  0.77196082  0.52300928  0.09007173  1  -1.210282  0  -0.394274  -0.673509  0  2.284292  0
O  O142  1  0.27192459  0.02299986  0.40993002  1  -1.210057  0  -0.394051  -0.673242  0  2.285082  0
O  O143  1  0.22807707  0.47700483  0.90993370  1  -1.209836  0  -0.394232  -0.67346  0  2.284328  0
O  O144  1  0.91708972  0.38223810  0.00026342  1  -1.223857  0  -0.449997  -0.76673  0  2.441499  0
O  O145  1  0.58290430  0.11775735  0.50026442  1  -1.223859  0  -0.449903  -0.766629  0  2.441598  0
O  O146  1  0.08291589  0.61776879  0.99974099  1  -1.223647  0  -0.449974  -0.766767  0  2.441482  0
O  O147  1  0.41707264  0.88223019  0.49973591  1  -1.223725  0  -0.44992  -0.766584  0  2.441639  0
O  O148  1  0.12235646  0.28136910  0.02904343  1  -1.185983  0  -0.362489  -0.629406  0  2.25066  0
O  O149  1  0.37764262  0.21862933  0.52904600  1  -1.186347  0  -0.362382  -0.629261  0  2.251131  0
O  O150  1  0.87765457  0.71863293  0.97095741  1  -1.186008  0  -0.362486  -0.62938  0  2.250896  0
O  O151  1  0.62234017  0.78137114  0.47095382  1  -1.185725  0  -0.362545  -0.62941  0  2.250668  0
O  O152  1  0.93517071  0.09362490  0.87967470  1  -1.165952  0  -0.329344  -0.521383  0  2.07924  0
O  O153  1  0.56484270  0.40637516  0.37967550  1  -1.165698  0  -0.329343  -0.521408  0  2.079234  0
O  O154  1  0.06485305  0.90638034  0.12031695  1  -1.165607  0  -0.329181  -0.521255  0  2.079311  0
O  O155  1  0.43514319  0.59361641  0.62031258  1  -1.166005  0  -0.32914  -0.521125  0  2.079791  0
O  O156  1  0.68021074  0.62225499  0.86116355  1  -1.235032  0  -0.604321  -0.792739  0  1.974814  0
O  O157  1  0.81978616  0.87774982  0.36116143  1  -1.235067  0  -0.604273  -0.7927  0  1.974817  0
O  O158  1  0.31979459  0.37774544  0.13884035  1  -1.235136  0  -0.604302  -0.792815  0  1.974661  0
O  O159  1  0.18019652  0.12225550  0.63883991  1  -1.235142  0  -0.604243  -0.792768  0  1.974632  0
