# generated using pymatgen
data_AlH7C13NO7F
_symmetry_space_group_name_H-M   'P 1'
_cell_length_a   6.60924526
_cell_length_b   11.03564047
_cell_length_c   16.83436289
_cell_angle_alpha   85.70091191
_cell_angle_beta   84.22856590
_cell_angle_gamma   73.12988307
_symmetry_Int_Tables_number   1
_chemical_formula_structural   AlH7C13NO7F
_chemical_formula_sum   'Al2 H14 C26 N2 O14 F2'
_cell_volume   1167.70334370
_cell_formula_units_Z   2
loop_
 _symmetry_equiv_pos_site_id
 _symmetry_equiv_pos_as_xyz
  1  'x, y, z'
loop_
 _atom_site_type_symbol
 _atom_site_label
 _atom_site_symmetry_multiplicity
 _atom_site_fract_x
 _atom_site_fract_y
 _atom_site_fract_z
 _atom_site_occupancy
 _atom_site_pbe_bader_charge
 _atom_site_pbe_bader_spin_density
 _atom_site_pbe_cm5_charge
 _atom_site_pbe_ddec_charge
 _atom_site_pbe_ddec_spin_density
 _atom_site_pbe_ddec_sum_bond_order
 _atom_site_pbe_magmom
Al  Al0  1  0.50559197  0.49982019  0.48846902  1  2.502607  0  0.393979  1.639147  0  2.588874  0
Al  Al1  1  0.00296518  0.50244128  0.49028156  1  2.501569  0  0.400744  1.639787  0  2.574517  0
H  H2  1  0.23891447  0.57408227  0.39433414  1  0.610931  0  0.352616  0.431265  0  0.856156  0
H  H3  1  0.81234186  0.34988407  0.54025526  1  0.637284  0  0.349741  0.427811  0  0.864122  0
H  H4  1  0.86101297  0.56090728  0.72077513  1  0.124024  0  0.115606  0.124027  0  0.993936  0
H  H5  1  0.79406665  0.56204644  0.87017162  1  0.090296  0  0.110058  0.11499  0  1.015359  0
H  H6  1  0.46957514  0.44239757  0.89050351  1  0.122176  0  0.121921  0.148321  0  0.982771  0
H  H7  1  0.56007756  0.54284459  0.08469833  1  0.105402  0  0.119202  0.144471  0  0.988874  0
H  H8  1  0.23056785  0.45764248  0.10988188  1  0.110715  0  0.106921  0.109592  0  1.027825  0
H  H9  1  0.15564692  0.45617852  0.25845365  1  0.122669  0  0.111305  0.117877  0  1.001654  0
H  H10  1  0.87061870  0.76847718  0.61902836  1  0.051038  0  0.101635  0.119085  0  1.051685  0
H  H11  1  0.59569779  0.23577807  0.61830994  1  0.057192  0  0.100264  0.113514  0  1.054995  0
H  H12  1  0.10021733  0.20916249  0.43937676  1  0.659295  0  0.313499  0.352441  0  0.964263  0
H  H13  1  0.32101844  0.77944008  0.45077722  1  0.629802  0  0.316843  0.35704  0  0.965845  0
H  H14  1  0.06365094  0.78727048  0.71808947  1  0.58084  0  0.319989  0.34376  0  0.915949  0
H  H15  1  0.80354466  0.22262150  0.71839736  1  0.61455  0  0.320844  0.350097  0  0.913259  0
C  C16  1  0.64728462  0.72759544  0.50486745  1  1.486682  0  0.267305  0.658728  0  4.047066  0
C  C17  1  0.78406698  0.49912302  0.34476587  1  1.592615  0  0.271537  0.665915  0  4.081678  0
C  C18  1  0.35546500  0.27015756  0.49582802  1  1.513261  0  0.262644  0.658532  0  4.064054  0
C  C19  1  0.22947387  0.50427710  0.63248926  1  1.627736  0  0.264329  0.642313  0  4.126538  0
C  C20  1  0.19993882  0.50426382  0.72146362  1  -0.009387  0  -0.017018  -0.155865  0  3.96799  0
C  C21  1  0.99211393  0.53674324  0.75896787  1  -0.015635  0  -0.074689  -0.066098  0  3.986338  0
C  C22  1  0.95453987  0.53666195  0.84133763  1  0.000287  0  -0.08202  -0.151095  0  3.944688  0
C  C23  1  0.12740196  0.50206126  0.88902599  1  0.331953  0  0.09861  0.206405  0  4.031395  0
C  C24  1  0.33595536  0.47003031  0.85343642  1  0.041426  0  -0.083559  -0.264377  0  3.928414  0
C  C25  1  0.36838516  0.47074181  0.77076837  1  0.428781  0  0.110894  0.288533  0  4.025472  0
C  C26  1  0.69092309  0.52299054  0.12278099  1  0.023922  0  -0.084413  -0.265919  0  3.930061  0
C  C27  1  0.89989907  0.50052244  0.08847881  1  0.423481  0  0.0964  0.201953  0  4.04368  0
C  C28  1  0.06926133  0.47556753  0.13745438  1  -0.067409  0  -0.083286  -0.154026  0  3.947629  0
C  C29  1  0.02692585  0.47490143  0.21959849  1  0.056346  0  -0.069629  -0.045813  0  3.959857  0
C  C30  1  0.81844660  0.49849164  0.25590461  1  -0.010785  0  -0.013146  -0.146246  0  3.933799  0
C  C31  1  0.65371803  0.52225844  0.20535305  1  0.461902  0  0.115205  0.297092  0  4.02356  0
C  C32  1  0.55775558  0.86359555  0.51731448  1  0.000155  0  -0.031908  -0.236487  0  3.945196  0
C  C33  1  0.65404663  0.93265475  0.56463694  1  0.005198  0  -0.009597  0.086773  0  4.003377  0
C  C34  1  0.37253935  0.92790278  0.47988872  1  0.58269  0  0.097752  0.225708  0  4.028255  0
C  C35  1  0.80982465  0.87134507  0.61754082  1  0.045571  0  -0.120184  -0.282783  0  4.015264  0
C  C36  1  0.88495630  0.93705296  0.66903345  1  0.42192  0  0.068489  0.216404  0  4.091696  0
C  C37  1  0.41173062  0.13270679  0.51255324  1  -0.002404  0  -0.035501  -0.238327  0  3.967682  0
C  C38  1  0.30108101  0.06367893  0.47662179  1  0.616578  0  0.093782  0.219881  0  4.04061  0
C  C39  1  0.57828411  0.06798970  0.56313192  1  0.058014  0  -0.012266  0.087437  0  4.005834  0
C  C40  1  0.65804231  0.13322862  0.61609665  1  -0.001314  0  -0.125213  -0.296659  0  4.036254  0
C  C41  1  0.80625833  0.07102012  0.66880298  1  0.540863  0  0.066565  0.215438  0  4.10108  0
N  N42  1  0.10835840  0.49614940  0.97356848  1  -0.465891  0  -0.140516  -0.124811  0  3.242225  0
N  N43  1  0.92157734  0.50557833  0.00405771  1  -0.516146  0  -0.140126  -0.123505  0  3.255234  0
O  O44  1  0.52303065  0.66919205  0.47958686  1  -1.272263  0  -0.242619  -0.62042  0  2.415131  0
O  O45  1  0.93060616  0.52030715  0.38076245  1  -1.260267  0  -0.234773  -0.600893  0  2.337903  0
O  O46  1  0.16749313  0.32675151  0.47288210  1  -1.269263  0  -0.248188  -0.624204  0  2.367948  0
O  O47  1  0.39464770  0.52761162  0.59788515  1  -1.246144  0  -0.231628  -0.574128  0  2.341923  0
O  O48  1  0.49122465  0.32950997  0.50272690  1  -1.277976  0  -0.23255  -0.593635  0  2.39826  0
O  O49  1  0.08313217  0.48082829  0.59799218  1  -1.255731  0  -0.230181  -0.581004  0  2.348511  0
O  O50  1  0.84065823  0.67049151  0.51491164  1  -1.259802  0  -0.225548  -0.561924  0  2.339996  0
O  O51  1  0.61462107  0.47876915  0.37804023  1  -1.249976  0  -0.236904  -0.596418  0  2.335805  0
O  O52  1  0.23497618  0.55980812  0.45208001  1  -1.410366  0  -0.446948  -0.983776  0  2.166315  0
O  O53  1  0.77601263  0.43908110  0.52351434  1  -1.438515  0  -0.450659  -0.993813  0  2.209989  0
O  O54  1  0.13283529  0.11575745  0.43407023  1  -1.149111  0  -0.341265  -0.402938  0  2.286564  0
O  O55  1  0.25682784  0.87289158  0.44163299  1  -1.112056  0  -0.337005  -0.397756  0  2.292125  0
O  O56  1  0.02993914  0.87868047  0.72270703  1  -1.095935  0  -0.357747  -0.423224  0  2.255477  0
O  O57  1  0.87897818  0.13242835  0.72256162  1  -1.125877  0  -0.359689  -0.427602  0  2.252582  0
F  F58  1  0.57307616  0.43254925  0.73809337  1  -0.6353  0  -0.08328  -0.135083  0  1.362681  0
F  F59  1  0.44804917  0.54980588  0.23602974  1  -0.632221  0  -0.086625  -0.135505  0  1.372955  0
