# generated using pymatgen
data_Zn4H8C40Br8O13F4
_symmetry_space_group_name_H-M   'P 1'
_cell_length_a   23.93985602
_cell_length_b   23.94156944
_cell_length_c   23.93965507
_cell_angle_alpha   66.32312512
_cell_angle_beta   72.59599647
_cell_angle_gamma   107.41379190
_symmetry_Int_Tables_number   1
_chemical_formula_structural   Zn4H8C40Br8O13F4
_chemical_formula_sum   'Zn8 H16 C80 Br16 O26 F8'
_cell_volume   10519.90143341
_cell_formula_units_Z   2
loop_
 _symmetry_equiv_pos_site_id
 _symmetry_equiv_pos_as_xyz
  1  'x, y, z'
loop_
 _atom_site_type_symbol
 _atom_site_label
 _atom_site_symmetry_multiplicity
 _atom_site_fract_x
 _atom_site_fract_y
 _atom_site_fract_z
 _atom_site_occupancy
 _atom_site_pbe_bader_charge
 _atom_site_pbe_bader_spin_density
 _atom_site_pbe_cm5_charge
 _atom_site_pbe_ddec_charge
 _atom_site_pbe_ddec_spin_density
 _atom_site_pbe_ddec_sum_bond_order
 _atom_site_pbe_magmom
Zn  Zn0  1  0.05686564  0.95711925  0.48602890  1  1.320949  0  0.678009  0.979051  0  2.363514  0
Zn  Zn1  1  0.05686304  0.09974362  0.45712262  1  1.320485  0  0.678012  0.978971  0  2.363768  0
Zn  Zn2  1  0.94313066  0.98602451  0.45710987  1  1.321168  0  0.677967  0.978942  0  2.363413  0
Zn  Zn3  1  0.94314741  0.95711474  0.59974942  1  1.319875  0  0.678006  0.978979  0  2.36367  0
Zn  Zn4  1  0.94313658  0.54288160  0.01397231  1  1.321331  0  0.678031  0.97898  0  2.36367  0
Zn  Zn5  1  0.05687036  0.51397775  0.04288948  1  1.321254  0  0.677962  0.978894  0  2.3635  0
Zn  Zn6  1  0.94313563  0.40025333  0.04288342  1  1.320518  0  0.678033  0.979099  0  2.363758  0
Zn  Zn7  1  0.05685013  0.54287956  0.90025210  1  1.319955  0  0.678021  0.979039  0  2.363499  0
H  H8  1  0.92369918  0.71485813  0.17524875  1  0.093672  0  0.109664  0.127461  0  0.99275  0
H  H9  1  0.07628275  0.67523610  0.21490219  1  0.081591  0  0.10973  0.127695  0  0.99271  0
H  H10  1  0.92370766  0.82475291  0.28511065  1  0.094754  0  0.109757  0.127679  0  0.992592  0
H  H11  1  0.07624049  0.78506483  0.32482780  1  0.082464  0  0.109641  0.127498  0  0.992828  0
H  H12  1  0.07630308  0.40102099  0.70885177  1  0.122466  0  0.109607  0.127464  0  0.992824  0
H  H13  1  0.92371855  0.20881720  0.90105782  1  0.088579  0  0.109678  0.127635  0  0.992796  0
H  H14  1  0.07624173  0.29117170  0.59895423  1  0.088858  0  0.10965  0.127574  0  0.992765  0
H  H15  1  0.92370852  0.09895266  0.79117265  1  0.122417  0  0.109783  0.12765  0  0.992697  0
H  H16  1  0.60987483  0.40103981  0.17521526  1  0.077899  0  0.109703  0.127632  0  0.992589  0
H  H17  1  0.60987445  0.20882200  0.21490242  1  0.0791  0  0.109737  0.127741  0  0.992674  0
H  H18  1  0.39012694  0.29118035  0.28508644  1  0.079311  0  0.109691  0.127651  0  0.992698  0
H  H19  1  0.39012369  0.09897654  0.32470456  1  0.094723  0  0.10957  0.127366  0  0.992852  0
H  H20  1  0.39013417  0.67519450  0.90104123  1  0.078207  0  0.109651  0.127552  0  0.992737  0
H  H21  1  0.39011292  0.71488950  0.70881531  1  0.078863  0  0.109658  0.127589  0  0.992743  0
H  H22  1  0.60988914  0.78510049  0.79118489  1  0.079352  0  0.10967  0.127606  0  0.992795  0
H  H23  1  0.60986432  0.82472586  0.59897442  1  0.094833  0  0.109727  0.127604  0  0.992513  0
C  C24  1  0.18095285  0.09048301  0.40952989  1  1.583651  0  0.223275  0.621887  0  4.153943  0
C  C25  1  0.99999738  0.13738361  0.36261614  1  1.61968  0  0.231587  0.641475  0  4.152935  0
C  C26  1  0.99999220  0.90952490  0.40952704  1  1.601491  0  0.223255  0.62182  0  4.154137  0
C  C27  1  0.81905029  0.90951994  0.59048762  1  1.584363  0  0.223515  0.622087  0  4.153278  0
C  C28  1  0.00000133  0.86261133  0.63738669  1  1.619769  0  0.231555  0.641399  0  4.153433  0
C  C29  1  0.99999702  0.09047183  0.59048175  1  1.6356  0  0.223427  0.622025  0  4.153541  0
C  C30  1  0.00000200  0.59046634  0.09048293  1  1.60158  0  0.223604  0.622053  0  4.153514  0
C  C31  1  0.00000629  0.36261889  0.13738451  1  1.619667  0  0.231567  0.641436  0  4.153392  0
C  C32  1  0.81904720  0.40951900  0.09046494  1  1.584002  0  0.223313  0.621848  0  4.154033  0
C  C33  1  0.99998695  0.40951151  0.90953465  1  1.635878  0  0.223446  0.622001  0  4.153544  0
C  C34  1  0.99999995  0.63738620  0.86261409  1  1.619675  0  0.231593  0.641453  0  4.153256  0
C  C35  1  0.18094950  0.59046986  0.90951167  1  1.584835  0  0.223403  0.62199  0  4.153657  0
C  C36  1  0.00000171  0.80518471  0.69481325  1  0.05355  0  -0.020239  -0.207431  0  3.954517  0
C  C37  1  0.00000050  0.69481336  0.80518696  1  0.053452  0  -0.020306  -0.207537  0  3.954783  0
C  C38  1  0.95789654  0.77665416  0.76544801  1  0.527409  0  0.099812  0.168943  0  4.062631  0
C  C39  1  0.04210653  0.72334411  0.73455235  1  0.52799  0  0.099846  0.168969  0  4.062979  0
C  C40  1  0.95789455  0.72334181  0.81876066  1  0.625257  0  0.099791  0.168861  0  4.062972  0
C  C41  1  0.04210716  0.77665615  0.68123981  1  0.625234  0  0.099683  0.168711  0  4.063011  0
C  C42  1  0.99999942  0.19481213  0.30518809  1  0.053697  0  -0.020282  -0.2075  0  3.95488  0
C  C43  1  0.00000493  0.30519053  0.19481230  1  0.053872  0  -0.020362  -0.207555  0  3.954914  0
C  C44  1  0.95789531  0.18124479  0.27664728  1  0.624823  0  0.099533  0.168341  0  4.063041  0
C  C45  1  0.04210836  0.31875772  0.22335253  1  0.6246  0  0.099504  0.168371  0  4.062948  0
C  C46  1  0.95789726  0.23455813  0.22333507  1  0.528004  0  0.099923  0.169239  0  4.062762  0
C  C47  1  0.04210665  0.26544409  0.27666478  1  0.528911  0  0.099888  0.16909  0  4.062772  0
C  C48  1  0.99999846  0.62796495  0.12798504  1  0.071378  0  -0.020753  -0.13363  0  3.853811  0
C  C49  1  0.95733372  0.65811048  0.13582857  1  -0.098712  0  0.000108  0.122295  0  3.902892  0
C  C50  1  0.95721387  0.69278448  0.17056011  1  0.056681  0  -0.089799  -0.189308  0  3.93411  0
C  C51  1  0.99998947  0.69950880  0.19954005  1  0.078472  0  0.00925  0.18021  0  4.114533  0
C  C52  1  0.04276907  0.67054109  0.19282164  1  0.135724  0  -0.090094  -0.189924  0  3.934606  0
C  C53  1  0.04265848  0.63581420  0.15814370  1  -0.167471  0  0.00019  0.122264  0  3.903321  0
C  C54  1  0.99998470  0.73476263  0.23480292  1  -0.271662  0  -0.029938  -0.084215  0  4.071302  0
C  C55  1  0.99997992  0.76519410  0.26524146  1  -0.057959  0  -0.029773  -0.083863  0  4.071323  0
C  C56  1  0.99997972  0.80045304  0.30049924  1  0.076  0  0.009276  0.180173  0  4.114748  0
C  C57  1  0.95721230  0.82943570  0.30720296  1  0.124571  0  -0.089901  -0.189635  0  3.93409  0
C  C58  1  0.95732857  0.86416830  0.34187608  1  -0.167897  0  6.8e-05  0.122213  0  3.902869  0
C  C59  1  0.99998365  0.87200933  0.37204165  1  0.071245  0  -0.02055  -0.133474  0  3.853713  0
C  C60  1  0.04262510  0.84183380  0.36422453  1  -0.064465  0  2.9e-05  0.122074  0  3.903611  0
C  C61  1  0.04274097  0.80715684  0.32949871  1  0.034415  0  -0.090019  -0.189586  0  3.93491  0
C  C62  1  0.00000332  0.37200648  0.87204001  1  0.040974  0  -0.020922  -0.133977  0  3.853912  0
C  C63  1  0.04267197  0.40681683  0.79923202  1  -0.125813  0  0.000198  0.122335  0  3.90273  0
C  C64  1  0.04278829  0.37220293  0.76444000  1  0.072217  0  -0.089849  -0.189402  0  3.933604  0
C  C65  1  0.00000567  0.30045804  0.80049175  1  0.082236  0  0.009273  0.180259  0  4.114484  0
C  C66  1  0.95723205  0.26440519  0.87224003  1  0.096296  0  -0.089987  -0.189757  0  3.934875  0
C  C67  1  0.95734739  0.29919580  0.90685355  1  -0.127465  0  0.000197  0.122388  0  3.903275  0
C  C68  1  0.99999634  0.26520192  0.76523243  1  -0.271394  0  -0.030054  -0.084344  0  4.071443  0
C  C69  1  0.99998611  0.23477467  0.73478962  1  -0.061075  0  -0.029567  -0.083752  0  4.071305  0
C  C70  1  0.99997918  0.19952214  0.69952683  1  0.071173  0  0.009265  0.180172  0  4.114754  0
C  C71  1  0.04274040  0.23558184  0.62777411  1  0.104407  0  -0.090116  -0.189803  0  3.934425  0
C  C72  1  0.04262462  0.20079079  0.59316132  1  -0.124782  0  0.000174  0.12231  0  3.903412  0
C  C73  1  0.99998390  0.12797661  0.62797670  1  0.041469  0  -0.020735  -0.133808  0  3.853817  0
C  C74  1  0.95732737  0.09316068  0.70078954  1  -0.125759  0  9.3e-05  0.12216  0  3.902818  0
C  C75  1  0.95721109  0.12777358  0.73558194  1  0.071648  0  -0.089908  -0.189442  0  3.934293  0
C  C76  1  0.74404782  0.37201792  0.12797341  1  0.08478  0  -0.020666  -0.133701  0  3.854132  0
C  C77  1  0.70604908  0.40683156  0.13580947  1  -0.173134  0  -7e-06  0.122138  0  3.903286  0
C  C78  1  0.63664428  0.37221930  0.17053481  1  0.142489  0  -0.089972  -0.189631  0  3.934026  0
C  C79  1  0.60095143  0.30046910  0.19951846  1  0.101815  0  0.009271  0.180163  0  4.114724  0
C  C80  1  0.63664430  0.26441237  0.19281466  1  0.023001  0  -0.089968  -0.189749  0  3.934683  0
C  C81  1  0.70604878  0.29920344  0.15813930  1  -0.047417  0  0.00015  0.122293  0  3.903188  0
C  C82  1  0.53043552  0.26521570  0.23476527  1  -0.029324  0  -0.029875  -0.084082  0  4.071369  0
C  C83  1  0.46956649  0.23479363  0.26518763  1  -0.34665  0  -0.02989  -0.084026  0  4.071365  0
C  C84  1  0.39905043  0.19953849  0.30044144  1  0.100722  0  0.009294  0.180069  0  4.114508  0
C  C85  1  0.36335701  0.23559201  0.30716256  1  0.022969  0  -0.090077  -0.189751  0  3.934542  0
C  C86  1  0.29395297  0.20080137  0.34184179  1  -0.046999  0  0.000273  0.122338  0  3.903134  0
C  C87  1  0.25595292  0.12798903  0.37200129  1  0.084072  0  -0.020855  -0.133868  0  3.853951  0
C  C88  1  0.29394898  0.09317955  0.36413847  1  -0.173023  0  0.000137  0.122355  0  3.902767  0
C  C89  1  0.36335504  0.12779415  0.32940472  1  0.1272  0  -0.089762  -0.189205  0  3.933782  0
C  C90  1  0.25595092  0.62796568  0.87201303  1  0.084056  0  -0.020565  -0.133598  0  3.853739  0
C  C91  1  0.29395566  0.63579224  0.90683026  1  -0.172661  0  3.2e-05  0.122103  0  3.903635  0
C  C92  1  0.36335959  0.67051756  0.87221886  1  0.141864  0  -0.090041  -0.189686  0  3.934188  0
C  C93  1  0.39904873  0.69950813  0.80046550  1  0.102231  0  0.009304  0.180402  0  4.114279  0
C  C94  1  0.36334909  0.69280215  0.76440676  1  0.023199  0  -0.089821  -0.189532  0  3.934535  0
C  C95  1  0.29394381  0.65812784  0.79919748  1  -0.04772  0  6.6e-05  0.122151  0  3.903059  0
C  C96  1  0.46956552  0.73476242  0.76521431  1  -0.348942  0  -0.029862  -0.084245  0  4.07134  0
C  C97  1  0.53043556  0.76519277  0.73479588  1  -0.026997  0  -0.029893  -0.083913  0  4.071461  0
C  C98  1  0.60095140  0.80045288  0.69954182  1  0.101599  0  0.009382  0.180131  0  4.114457  0
C  C99  1  0.63665253  0.80717700  0.73559581  1  0.023272  0  -0.089917  -0.189589  0  3.934722  0
C  C100  1  0.70605672  0.84185543  0.70080377  1  -0.048248  0  0.00013  0.122243  0  3.903297  0
C  C101  1  0.74404981  0.87200789  0.62799119  1  0.084551  0  -0.020846  -0.133775  0  3.853656  0
C  C102  1  0.70604484  0.86415510  0.59317905  1  -0.173134  0  0.00011  0.122268  0  3.902803  0
C  C103  1  0.63663947  0.82942106  0.62779353  1  0.126113  0  -0.089976  -0.189557  0  3.933528  0
Br  Br104  1  0.89498906  0.65649238  0.10128877  1  -0.013016  0  0.029941  -0.046197  0  1.431976  0
Br  Br105  1  0.10500896  0.60129304  0.15653047  1  -0.012706  0  0.029934  -0.046116  0  1.431977  0
Br  Br106  1  0.89499318  0.89870982  0.34346956  1  -0.011762  0  0.029927  -0.046144  0  1.431977  0
Br  Br107  1  0.10493617  0.84341138  0.39880729  1  -0.011026  0  0.029998  -0.046046  0  1.432008  0
Br  Br108  1  0.10502680  0.50368563  0.73851135  1  -0.012458  0  0.029992  -0.046126  0  1.431935  0
Br  Br109  1  0.89500881  0.23846681  0.00372830  1  -0.013051  0  0.029936  -0.046128  0  1.431969  0
Br  Br110  1  0.10494344  0.26152167  0.49628128  1  -0.011982  0  0.02995  -0.046107  0  1.431896  0
Br  Br111  1  0.89498998  0.99628623  0.76151630  1  -0.012541  0  0.029939  -0.046106  0  1.431959  0
Br  Br112  1  0.74219719  0.50370616  0.10126534  1  -0.008692  0  0.029959  -0.046094  0  1.431911  0
Br  Br113  1  0.74219503  0.23847214  0.15654771  1  -0.009842  0  0.029908  -0.046141  0  1.431906  0
Br  Br114  1  0.25780602  0.26152775  0.34345101  1  -0.010861  0  0.029876  -0.046173  0  1.431784  0
Br  Br115  1  0.25779951  0.99631183  0.39865010  1  -0.010423  0  0.030028  -0.046112  0  1.431977  0
Br  Br116  1  0.25781622  0.60123857  0.00371047  1  -0.009022  0  0.02993  -0.046118  0  1.431943  0
Br  Br117  1  0.25779166  0.65653658  0.73846030  1  -0.009948  0  0.029925  -0.046098  0  1.432139  0
Br  Br118  1  0.74220960  0.84346666  0.76153612  1  -0.009948  0  0.029903  -0.046143  0  1.432124  0
Br  Br119  1  0.74218251  0.89868027  0.49630527  1  -0.010076  0  0.029949  -0.046183  0  1.431845  0
O  O120  1  0.99999926  0.99999982  0.50000028  1  -1.233776  0  -0.572237  -1.035529  0  2.528546  0
O  O121  1  0.15163517  0.02533458  0.43526417  1  -1.166935  0  -0.314877  -0.543686  0  2.446464  0
O  O122  1  0.04007987  0.15573926  0.38434335  1  -1.149418  0  -0.308565  -0.534957  0  2.360517  0
O  O123  1  0.96055172  0.93522582  0.41313814  1  -1.165627  0  -0.314815  -0.543726  0  2.446622  0
O  O124  1  0.15163347  0.12630560  0.41313971  1  -1.165741  0  -0.314809  -0.543765  0  2.446618  0
O  O125  1  0.03944786  0.91315871  0.43521862  1  -1.165442  0  -0.314844  -0.543781  0  2.446484  0
O  O126  1  0.95991446  0.07558433  0.38433191  1  -1.155333  0  -0.308593  -0.534967  0  2.360489  0
O  O127  1  0.84836381  0.93524655  0.52533913  1  -1.167115  0  -0.314904  -0.543726  0  2.446083  0
O  O128  1  0.95992798  0.88433746  0.65574528  1  -1.148887  0  -0.308504  -0.534918  0  2.361166  0
O  O129  1  0.84837288  0.91312021  0.62631653  1  -1.165931  0  -0.314976  -0.543866  0  2.446359  0
O  O130  1  0.04007868  0.88433033  0.57558427  1  -1.155187  0  -0.308605  -0.535057  0  2.36078  0
O  O131  1  0.03943574  0.12629521  0.52533976  1  -1.180987  0  -0.314812  -0.543693  0  2.446474  0
O  O132  1  0.96057256  0.02532632  0.62630872  1  -1.181553  0  -0.314989  -0.543851  0  2.446335  0
O  O133  1  0.00000033  0.49999842  0.00000111  1  -1.233822  0  -0.572212  -1.035503  0  2.528557  0
O  O134  1  0.96057115  0.58686526  0.06475999  1  -1.165602  0  -0.314896  -0.543709  0  2.446151  0
O  O135  1  0.04009216  0.42441855  0.11566353  1  -1.155468  0  -0.308546  -0.534905  0  2.360553  0
O  O136  1  0.84836566  0.37369656  0.08684908  1  -1.16575  0  -0.314894  -0.543883  0  2.446571  0
O  O137  1  0.03942989  0.56475069  0.08688691  1  -1.165769  0  -0.315067  -0.543899  0  2.44646  0
O  O138  1  0.84836669  0.47466240  0.06475635  1  -1.167333  0  -0.314872  -0.543601  0  2.446443  0
O  O139  1  0.95991890  0.34426040  0.11566282  1  -1.149146  0  -0.308518  -0.534977  0  2.360949  0
O  O140  1  0.96056183  0.37368626  0.97467908  1  -1.181558  0  -0.31488  -0.54383  0  2.446682  0
O  O141  1  0.04007528  0.61566153  0.84425557  1  -1.148863  0  -0.308546  -0.534963  0  2.360845  0
O  O142  1  0.03939830  0.47466068  0.87370299  1  -1.181157  0  -0.31495  -0.54369  0  2.446183  0
O  O143  1  0.95991974  0.61566485  0.92441622  1  -1.155503  0  -0.308623  -0.535056  0  2.360796  0
O  O144  1  0.15163609  0.56477717  0.97465371  1  -1.167309  0  -0.314832  -0.543618  0  2.446244  0
O  O145  1  0.15162615  0.58685062  0.87368762  1  -1.166113  0  -0.314985  -0.543982  0  2.446502  0
F  F146  1  0.91527206  0.79922509  0.78549544  1  -0.606533  0  -0.083814  -0.096167  0  1.406928  0
F  F147  1  0.08473057  0.70077275  0.71450522  1  -0.606418  0  -0.083656  -0.095975  0  1.407122  0
F  F148  1  0.91527043  0.70076560  0.88395656  1  -0.603512  0  -0.083657  -0.095964  0  1.407194  0
F  F149  1  0.08473042  0.79923148  0.61604369  1  -0.603619  0  -0.083716  -0.096005  0  1.407145  0
F  F150  1  0.91527057  0.11605134  0.29921379  1  -0.604151  0  -0.0837  -0.095915  0  1.407136  0
F  F151  1  0.08473286  0.38395144  0.20078598  1  -0.604238  0  -0.083653  -0.095892  0  1.407067  0
F  F152  1  0.91527526  0.21451388  0.20075262  1  -0.606351  0  -0.08359  -0.095995  0  1.407108  0
F  F153  1  0.08472869  0.28548734  0.29924761  1  -0.606249  0  -0.083563  -0.095929  0  1.407039  0
