# generated using pymatgen
data_ZnSiH24C24S4(N2F3)2
_symmetry_space_group_name_H-M   'P 1'
_cell_length_a   7.71510241
_cell_length_b   11.47866235
_cell_length_c   22.40322450
_cell_angle_alpha   84.33516745
_cell_angle_beta   80.07999439
_cell_angle_gamma   70.35995334
_symmetry_Int_Tables_number   1
_chemical_formula_structural   ZnSiH24C24S4(N2F3)2
_chemical_formula_sum   'Zn2 Si2 H48 C48 S8 N8 F12'
_cell_volume   1838.86614909
_cell_formula_units_Z   2
loop_
 _symmetry_equiv_pos_site_id
 _symmetry_equiv_pos_as_xyz
  1  'x, y, z'
loop_
 _atom_site_type_symbol
 _atom_site_label
 _atom_site_symmetry_multiplicity
 _atom_site_fract_x
 _atom_site_fract_y
 _atom_site_fract_z
 _atom_site_occupancy
 _atom_site_hle17_bader_spin_density
 _atom_site_hle17_ddec_charge
 _atom_site_hle17_ddec_spin_density
 _atom_site_hle17_ddec_sum_bond_order
 _atom_site_hle17_magmom
 _atom_site_hse06_10hf_bader_spin_density
 _atom_site_hse06_10hf_ddec_charge
 _atom_site_hse06_10hf_ddec_spin_density
 _atom_site_hse06_10hf_ddec_sum_bond_order
 _atom_site_hse06_10hf_magmom
 _atom_site_hse06_bader_spin_density
 _atom_site_hse06_ddec_charge
 _atom_site_hse06_ddec_spin_density
 _atom_site_hse06_ddec_sum_bond_order
 _atom_site_hse06_magmom
 _atom_site_pbe_bader_spin_density
 _atom_site_pbe_cm5_charge
 _atom_site_pbe_ddec_charge
 _atom_site_pbe_ddec_spin_density
 _atom_site_pbe_ddec_sum_bond_order
 _atom_site_pbe_magmom
Zn  Zn0  1  0.47336553  0.25003923  0.74997844  1  0  0.974442  0  1.908334  0  0  0.772353  0  2.36545  0  0  0.81653  0  2.318584  0  0  0.710006  0.741164  0  2.397232  0
Zn  Zn1  1  0.52663417  0.74996073  0.25002212  1  0  0.974469  0  1.908349  0  0  0.772384  0  2.36547  0  0  0.81656  0  2.318602  0  0  0.710015  0.740765  0  2.397198  0
Si  Si2  1  0.97443009  0.24999289  0.75002136  1  0  1.981874  0  3.328774  0  0  1.768863  0  3.884414  0  0  1.827874  0  3.797372  0  0  0.262166  1.72646  0  3.94658  0
Si  Si3  1  0.02557140  0.75000522  0.24997835  1  0  1.981848  0  3.328716  0  0  1.768828  0  3.884356  0  0  1.82783  0  3.797399  0  0  0.262149  1.725974  0  3.947092  0
H  H4  1  0.30977135  0.03709443  0.76245537  1  0  0.097193  0  0.969266  0  0  0.100251  0  1.041054  0  0  0.103769  0  1.036663  0  0  0.114768  0.097454  0  1.044611  0
H  H5  1  0.10898371  0.46313083  0.73742149  1  0  0.0982  0  0.968009  0  0  0.100858  0  1.040125  0  0  0.104473  0  1.035582  0  0  0.115195  0.09801  0  1.043663  0
H  H6  1  0.69022721  0.96290461  0.23754416  1  0  0.097197  0  0.969297  0  0  0.100233  0  1.041102  0  0  0.103749  0  1.036712  0  0  0.114768  0.097436  0  1.044645  0
H  H7  1  0.89101520  0.53686914  0.26257855  1  0  0.098207  0  0.968014  0  0  0.100865  0  1.040121  0  0  0.10448  0  1.035576  0  0  0.115205  0.098016  0  1.043649  0
H  H8  1  0.40238797  0.81134830  0.78630460  1  0  0.10211  0  0.96235  0  0  0.110445  0  1.02517  0  0  0.113879  0  1.02454  0  0  0.099153  0.108011  0  1.025795  0
H  H9  1  0.00005157  0.68892417  0.71356801  1  0  0.103252  0  0.962615  0  0  0.111452  0  1.025259  0  0  0.114945  0  1.024551  0  0  0.099434  0.108991  0  1.025878  0
H  H10  1  0.59761262  0.18865074  0.21369554  1  0  0.102084  0  0.962415  0  0  0.110456  0  1.02519  0  0  0.11389  0  1.024558  0  0  0.099157  0.108022  0  1.025812  0
H  H11  1  0.99994644  0.31107672  0.28643246  1  0  0.103255  0  0.962607  0  0  0.111459  0  1.025249  0  0  0.114952  0  1.02454  0  0  0.099442  0.108998  0  1.025867  0
H  H12  1  0.91240453  0.83397035  0.83362250  1  0  0.107521  0  0.951791  0  0  0.121716  0  1.004564  0  0  0.125052  0  1.003805  0  0  0.106007  0.119397  0  1.005195  0
H  H13  1  0.58028124  0.66591165  0.66655004  1  0  0.108109  0  0.953217  0  0  0.122617  0  1.005449  0  0  0.12583  0  1.004846  0  0  0.10666  0.120314  0  1.006019  0
H  H14  1  0.08759391  0.16603147  0.16637705  1  0  0.107548  0  0.951736  0  0  0.121709  0  1.004548  0  0  0.125046  0  1.00379  0  0  0.106006  0.119391  0  1.005173  0
H  H15  1  0.41971925  0.33408924  0.33345058  1  0  0.108133  0  0.953214  0  0  0.122641  0  1.005442  0  0  0.125854  0  1.004839  0  0  0.106672  0.120338  0  1.006006  0
H  H16  1  0.79805470  0.05767632  0.80850443  1  0  0.10435  0  0.964565  0  0  0.109342  0  1.030635  0  0  0.113192  0  1.025523  0  0  0.114654  0.106545  0  1.034253  0
H  H17  1  0.66410994  0.44218427  0.69157512  1  0  0.104499  0  0.964464  0  0  0.109041  0  1.030926  0  0  0.113008  0  1.02567  0  0  0.114767  0.106122  0  1.034697  0
H  H18  1  0.20194511  0.94232272  0.19149518  1  0  0.104364  0  0.96451  0  0  0.109343  0  1.030601  0  0  0.113194  0  1.025485  0  0  0.114653  0.106475  0  1.034351  0
H  H19  1  0.33589054  0.55781663  0.30842551  1  0  0.104477  0  0.964511  0  0  0.109018  0  1.030978  0  0  0.112988  0  1.025717  0  0  0.114753  0.106029  0  1.034883  0
H  H20  1  0.99056072  0.49797171  0.85683216  1  0  0.125497  0  0.922621  0  0  0.140861  0  0.9804  0  0  0.141859  0  0.980887  0  0  0.107583  0.140056  0  0.980228  0
H  H21  1  0.34571582  0.00207709  0.64322479  1  0  0.125345  0  0.923466  0  0  0.140441  0  0.981299  0  0  0.141452  0  0.981799  0  0  0.107447  0.139639  0  0.981123  0
H  H22  1  0.00943942  0.50202826  0.14316796  1  0  0.125523  0  0.922646  0  0  0.14089  0  0.980415  0  0  0.141888  0  0.980902  0  0  0.107597  0.140085  0  0.98024  0
H  H23  1  0.65428477  0.99792288  0.35677489  1  0  0.125371  0  0.923425  0  0  0.140461  0  0.981265  0  0  0.14149  0  0.981742  0  0  0.10745  0.139659  0  0.981086  0
H  H24  1  0.03742880  0.63722488  0.83365192  1  0  0.094785  0  0.943221  0  0  0.11105  0  1.002593  0  0  0.111291  0  1.003869  0  0  0.100104  0.110822  0  1.001856  0
H  H25  1  0.50872475  0.86277481  0.66634163  1  0  0.094173  0  0.941974  0  0  0.110225  0  1.001661  0  0  0.110494  0  1.002921  0  0  0.09976  0.110033  0  1.000842  0
H  H26  1  0.96257134  0.36277509  0.16634820  1  0  0.094782  0  0.943199  0  0  0.111051  0  1.002569  0  0  0.111291  0  1.003844  0  0  0.100104  0.110823  0  1.001831  0
H  H27  1  0.49127539  0.13722515  0.33365849  1  0  0.094168  0  0.941984  0  0  0.110222  0  1.001664  0  0  0.110492  0  1.002926  0  0  0.099758  0.110031  0  1.000844  0
H  H28  1  0.80799518  0.73689182  0.92879443  1  0  0.095857  0  0.931238  0  0  0.114477  0  0.984738  0  0  0.114907  0  0.985449  0  0  0.101271  0.114189  0  0.984202  0
H  H29  1  0.47368518  0.76313075  0.57131406  1  0  0.096035  0  0.931949  0  0  0.114463  0  0.985417  0  0  0.114899  0  0.986126  0  0  0.101458  0.114199  0  0.984843  0
H  H30  1  0.19200328  0.26310814  0.07120606  1  0  0.095857  0  0.931238  0  0  0.114505  0  0.98471  0  0  0.114936  0  0.985421  0  0  0.101265  0.114216  0  0.984174  0
H  H31  1  0.52631497  0.23686922  0.42868606  1  0  0.096058  0  0.931955  0  0  0.114478  0  0.985419  0  0  0.114914  0  0.986127  0  0  0.101472  0.114213  0  0.984844  0
H  H32  1  0.02159071  0.62128690  0.94307869  1  0  0.088413  0  0.959146  0  0  0.101692  0  1.024781  0  0  0.102384  0  1.025377  0  0  0.094012  0.101176  0  1.024401  0
H  H33  1  0.58593881  0.87874233  0.55689395  1  0  0.08705  0  0.959236  0  0  0.100556  0  1.024625  0  0  0.101225  0  1.025231  0  0  0.093592  0.100042  0  1.024278  0
H  H34  1  0.97840943  0.37871307  0.05692143  1  0  0.088376  0  0.959145  0  0  0.101677  0  1.024762  0  0  0.10237  0  1.025358  0  0  0.094002  0.101161  0  1.024382  0
H  H35  1  0.41406009  0.12125857  0.44310562  1  0  0.087035  0  0.959247  0  0  0.100531  0  1.024634  0  0  0.101201  0  1.025238  0  0  0.093581  0.100017  0  1.024287  0
H  H36  1  0.87111777  0.73240614  0.03014410  1  0  0.111292  0  0.951321  0  0  0.123176  0  1.00698  0  0  0.126563  0  1.006159  0  0  0.108397  0.120742  0  1.007757  0
H  H37  1  0.63361188  0.76748556  0.46994102  1  0  0.110918  0  0.951562  0  0  0.123131  0  1.007026  0  0  0.126516  0  1.006202  0  0  0.108404  0.120731  0  1.007734  0
H  H38  1  0.12888329  0.26759105  0.96985652  1  0  0.111312  0  0.951306  0  0  0.123179  0  1.006979  0  0  0.126567  0  1.006158  0  0  0.10841  0.120745  0  1.007756  0
H  H39  1  0.36638782  0.23251441  0.53005954  1  0  0.110905  0  0.951599  0  0  0.123114  0  1.007068  0  0  0.126499  0  1.006244  0  0  0.108402  0.120714  0  1.007775  0
H  H40  1  0.77749328  0.79686778  0.13643330  1  0  0.100004  0  0.931763  0  0  0.107518  0  0.993636  0  0  0.11045  0  0.990051  0  0  0.122857  0.105212  0  0.996461  0
H  H41  1  0.71093816  0.70305566  0.36364616  1  0  0.100884  0  0.930147  0  0  0.107756  0  0.992618  0  0  0.110706  0  0.988993  0  0  0.123168  0.10548  0  0.995392  0
H  H42  1  0.22250902  0.20312941  0.86356741  1  0  0.099987  0  0.931767  0  0  0.107545  0  0.993598  0  0  0.110477  0  0.990013  0  0  0.122882  0.105241  0  0.996432  0
H  H43  1  0.28906164  0.29694338  0.63635345  1  0  0.100843  0  0.930201  0  0  0.107724  0  0.992674  0  0  0.110674  0  0.989051  0  0  0.123148  0.10545  0  0.995456  0
H  H44  1  0.43867290  0.57640052  0.17645196  1  0  0.093412  0  0.955066  0  0  0.096255  0  1.027591  0  0  0.09915  0  1.024203  0  0  0.114453  0.094017  0  1.03019  0
H  H45  1  0.19170853  0.92350579  0.32358341  1  0  0.093275  0  0.956651  0  0  0.0966  0  1.028463  0  0  0.099627  0  1.024924  0  0  0.114876  0.094302  0  1.031109  0
H  H46  1  0.56132512  0.42359944  0.82354897  1  0  0.093425  0  0.955153  0  0  0.096267  0  1.027672  0  0  0.09916  0  1.024282  0  0  0.114446  0.094073  0  1.030166  0
H  H47  1  0.80829408  0.07649603  0.67641593  1  0  0.093286  0  0.956627  0  0  0.09666  0  1.028399  0  0  0.099687  0  1.02486  0  0  0.1149  0.094407  0  1.030941  0
H  H48  1  0.52869824  0.49379967  0.07345895  1  0  0.092583  0  1.001912  0  0  0.092827  0  1.080465  0  0  0.097011  0  1.078768  0  0  0.09024  0.089824  0  1.081866  0
H  H49  1  0.09596474  0.00615332  0.42656390  1  0  0.092962  0  1.002596  0  0  0.093627  0  1.080571  0  0  0.097838  0  1.078825  0  0  0.090446  0.090592  0  1.082012  0
H  H50  1  0.47130272  0.50619844  0.92654263  1  0  0.092602  0  1.001879  0  0  0.092844  0  1.080441  0  0  0.097028  0  1.078744  0  0  0.090261  0.089841  0  1.081848  0
H  H51  1  0.90403415  0.99384758  0.57343567  1  0  0.09288  0  1.002648  0  0  0.093567  0  1.080612  0  0  0.097779  0  1.078865  0  0  0.090416  0.090532  0  1.082059  0
C  C52  1  0.44272404  0.98834831  0.77814821  1  0  0.135143  0  3.691107  0  0  0.10369  0  3.944586  0  0  0.112167  0  3.960885  0  0  0.043138  0.09827  0  3.933679  0
C  C53  1  0.20899037  0.51182646  0.72177815  1  0  0.135387  0  3.692184  0  0  0.103964  0  3.945898  0  0  0.112433  0  3.962112  0  0  0.042809  0.098566  0  3.934883  0
C  C54  1  0.55727790  0.01164980  0.22185105  1  0  0.135169  0  3.691234  0  0  0.103737  0  3.944713  0  0  0.112216  0  3.961009  0  0  0.043146  0.098316  0  3.933791  0
C  C55  1  0.79100898  0.48817350  0.27822145  1  0  0.135347  0  3.692189  0  0  0.103948  0  3.945882  0  0  0.112417  0  3.962095  0  0  0.04281  0.098549  0  3.934851  0
C  C56  1  0.49518476  0.86202808  0.79175062  1  0  -0.185529  0  3.748722  0  0  -0.199398  0  3.995202  0  0  -0.208493  0  4.015379  0  0  -0.10085  -0.193655  0  3.981664  0
C  C57  1  0.14894152  0.63816256  0.70817557  1  0  -0.187208  0  3.750415  0  0  -0.200829  0  3.99727  0  0  -0.209973  0  4.017389  0  0  -0.101027  -0.195079  0  3.983752  0
C  C58  1  0.50481673  0.13797003  0.20824909  1  0  -0.185518  0  3.748802  0  0  -0.199424  0  3.995268  0  0  -0.208517  0  4.015443  0  0  -0.10086  -0.19368  0  3.981729  0
C  C59  1  0.85105817  0.36183833  0.29182453  1  0  -0.187246  0  3.750404  0  0  -0.200882  0  3.997254  0  0  -0.210026  0  4.017375  0  0  -0.101075  -0.195132  0  3.98373  0
C  C60  1  0.66812552  0.80067254  0.81155765  1  0  0.067747  0  3.835287  0  0  0.081036  0  4.095396  0  0  0.089329  0  4.115867  0  0  -0.000732  0.075574  0  4.081345  0
C  C61  1  0.28050940  0.69940746  0.68846125  1  0  0.06906  0  3.833188  0  0  0.081775  0  4.094169  0  0  0.09009  0  4.114593  0  0  -0.000346  0.076344  0  4.080133  0
C  C62  1  0.33187552  0.19932743  0.18844157  1  0  0.067736  0  3.835254  0  0  0.081035  0  4.095351  0  0  0.089325  0  4.115828  0  0  -0.000703  0.075565  0  4.081304  0
C  C63  1  0.71948984  0.30059436  0.31153883  1  0  0.069113  0  3.833107  0  0  0.081844  0  4.094061  0  0  0.090157  0  4.114486  0  0  -0.000315  0.07641  0  4.080022  0
C  C64  1  0.77706145  0.87356845  0.81848932  1  0  -0.187885  0  3.751057  0  0  -0.20607  0  4.002385  0  0  -0.215175  0  4.023197  0  0  -0.101267  -0.200188  0  3.988315  0
C  C65  1  0.46926301  0.62640749  0.68159687  1  0  -0.18965  0  3.751377  0  0  -0.208081  0  4.003065  0  0  -0.217097  0  4.02386  0  0  -0.102434  -0.202133  0  3.988854  0
C  C66  1  0.22293958  0.12643151  0.18150991  1  0  -0.18796  0  3.751046  0  0  -0.206127  0  4.002384  0  0  -0.215231  0  4.023197  0  0  -0.101315  -0.200242  0  3.988303  0
C  C67  1  0.53073668  0.37359340  0.31840323  1  0  -0.189701  0  3.751353  0  0  -0.208137  0  4.003024  0  0  -0.217152  0  4.02382  0  0  -0.10245  -0.20219  0  3.988799  0
C  C68  1  0.71339736  0.00019105  0.80428650  1  0  0.137641  0  3.685093  0  0  0.10767  0  3.937272  0  0  0.116353  0  3.953148  0  0  0.047729  0.102076  0  3.926351  0
C  C69  1  0.51778354  0.49978173  0.69575936  1  0  0.137849  0  3.684102  0  0  0.108285  0  3.935849  0  0  0.116881  0  3.951629  0  0  0.047528  0.102829  0  3.924956  0
C  C70  1  0.28660323  0.99980892  0.19571317  1  0  0.137694  0  3.685073  0  0  0.107736  0  3.937235  0  0  0.11642  0  3.95311  0  0  0.047767  0.102105  0  3.92642  0
C  C71  1  0.48221605  0.50022009  0.30424169  1  0  0.13785  0  3.684085  0  0  0.108295  0  3.935815  0  0  0.11689  0  3.951596  0  0  0.047548  0.102801  0  3.92503  0
C  C72  1  0.93306206  0.59912593  0.85975430  1  0  -0.14905  0  3.645706  0  0  -0.183265  0  3.9087  0  0  -0.182902  0  3.920458  0  0  -0.148013  -0.183502  0  3.900676  0
C  C73  1  0.39223402  0.90092462  0.64029516  1  0  -0.147305  0  3.642619  0  0  -0.181313  0  3.905228  0  0  -0.181073  0  3.917203  0  0  -0.147366  -0.181531  0  3.897177  0
C  C74  1  0.06693887  0.40087497  0.14024588  1  0  -0.149073  0  3.645753  0  0  -0.183294  0  3.908759  0  0  -0.182931  0  3.920514  0  0  -0.14802  -0.183534  0  3.900733  0
C  C75  1  0.60776488  0.09907534  0.35970488  1  0  -0.147317  0  3.642637  0  0  -0.181335  0  3.905243  0  0  -0.18111  0  3.917215  0  0  -0.147361  -0.181556  0  3.897188  0
C  C76  1  0.89066306  0.63836583  0.92525587  1  0  -0.147494  0  3.681073  0  0  -0.186897  0  3.949158  0  0  -0.186283  0  3.961144  0  0  -0.15071  -0.187206  0  3.940714  0
C  C77  1  0.45429725  0.86166958  0.57478928  1  0  -0.146449  0  3.682349  0  0  -0.185446  0  3.949061  0  0  -0.184747  0  3.960932  0  0  -0.150194  -0.18584  0  3.940798  0
C  C78  1  0.10933664  0.36163414  0.07474470  1  0  -0.147456  0  3.681028  0  0  -0.1869  0  3.949121  0  0  -0.186285  0  3.961106  0  0  -0.150684  -0.187207  0  3.940676  0
C  C79  1  0.54570120  0.13833131  0.42521074  1  0  -0.146443  0  3.682355  0  0  -0.185429  0  3.949096  0  0  -0.184725  0  3.960962  0  0  -0.150191  -0.185823  0  3.940834  0
C  C80  1  0.70673251  0.60719149  0.04210864  1  0  0.082088  0  3.815965  0  0  0.097185  0  4.07093  0  0  0.105424  0  4.091167  0  0  0.004141  0.091656  0  4.057247  0
C  C81  1  0.35598129  0.89269001  0.45795865  1  0  0.083698  0  3.812659  0  0  0.098227  0  4.068396  0  0  0.106575  0  4.08854  0  0  0.004896  0.092673  0  4.054748  0
C  C82  1  0.29326550  0.39280941  0.95789182  1  0  0.08216  0  3.815908  0  0  0.097255  0  4.070853  0  0  0.105495  0  4.091089  0  0  0.004182  0.091725  0  4.057177  0
C  C83  1  0.64401806  0.10730996  0.54204094  1  0  0.083686  0  3.812691  0  0  0.098195  0  4.06845  0  0  0.106542  0  4.088595  0  0  0.004876  0.092638  0  4.054812  0
C  C84  1  0.77530484  0.69469000  0.06056274  1  0  -0.183502  0  3.740855  0  0  -0.202657  0  3.991943  0  0  -0.211296  0  4.012172  0  0  -0.096313  -0.197135  0  3.978451  0
C  C85  1  0.53053629  0.80522169  0.43950556  1  0  -0.18397  0  3.737994  0  0  -0.203269  0  3.98893  0  0  -0.211933  0  4.009099  0  0  -0.096212  -0.197699  0  3.975297  0
C  C86  1  0.22469701  0.30530811  0.93943794  1  0  -0.183518  0  3.740829  0  0  -0.202657  0  3.991926  0  0  -0.211297  0  4.012156  0  0  -0.09632  -0.197135  0  3.978442  0
C  C87  1  0.46946092  0.19477921  0.56049438  1  0  -0.18393  0  3.737951  0  0  -0.2032  0  3.988892  0  0  -0.211864  0  4.009061  0  0  -0.096194  -0.19763  0  3.975268  0
C  C88  1  0.72197577  0.73219185  0.12002657  1  0  0.150807  0  3.680086  0  0  0.118485  0  3.933352  0  0  0.127522  0  3.949323  0  0  0.054656  0.112599  0  3.922637  0
C  C89  1  0.57429286  0.76772833  0.38003563  1  0  0.152007  0  3.68029  0  0  0.12037  0  3.93313  0  0  0.129425  0  3.949084  0  0  0.054761  0.114514  0  3.92232  0
C  C90  1  0.27802268  0.26780905  0.87997345  1  0  0.150777  0  3.680124  0  0  0.118414  0  3.9334  0  0  0.127451  0  3.949373  0  0  0.054624  0.112526  0  3.922702  0
C  C91  1  0.42570559  0.23227256  0.61996439  1  0  0.152038  0  3.68031  0  0  0.120358  0  3.933184  0  0  0.129414  0  3.949139  0  0  0.054769  0.114503  0  3.922388  0
C  C92  1  0.53791633  0.60595986  0.14305272  1  0  0.146661  0  3.68689  0  0  0.11504  0  3.936029  0  0  0.123823  0  3.952664  0  0  0.048178  0.10932  0  3.924912  0
C  C93  1  0.28699468  0.89392468  0.35700564  1  0  0.147528  0  3.689879  0  0  0.115758  0  3.938682  0  0  0.124459  0  3.955331  0  0  0.047946  0.110111  0  3.927426  0
C  C94  1  0.46208631  0.39403918  0.85694802  1  0  0.146529  0  3.68717  0  0  0.114914  0  3.936291  0  0  0.123699  0  3.952923  0  0  0.048122  0.109228  0  3.925083  0
C  C95  1  0.71300545  0.10607714  0.64299355  1  0  0.147467  0  3.689937  0  0  0.115636  0  3.938749  0  0  0.124335  0  3.955402  0  0  0.047901  0.110024  0  3.927406  0
C  C96  1  0.58689082  0.56141475  0.08521154  1  0  -0.177414  0  3.733748  0  0  -0.189996  0  3.978471  0  0  -0.19897  0  3.998062  0  0  -0.098732  -0.184318  0  3.965593  0
C  C97  1  0.23352609  0.93850598  0.41483448  1  0  -0.178817  0  3.734797  0  0  -0.191798  0  3.979883  0  0  -0.200813  0  3.999425  0  0  -0.09946  -0.186056  0  3.967019  0
C  C98  1  0.41311024  0.43858243  0.91478908  1  0  -0.177406  0  3.733844  0  0  -0.189981  0  3.978532  0  0  -0.198956  0  3.998123  0  0  -0.098737  -0.184303  0  3.965667  0
C  C99  1  0.76647326  0.06149399  0.58516511  1  0  -0.178736  0  3.734796  0  0  -0.191726  0  3.979885  0  0  -0.200742  0  3.999427  0  0  -0.099427  -0.185983  0  3.967034  0
S  S100  1  0.73194948  0.63985970  0.82106607  1  0  0.053476  0  2.419497  0  0  0.053307  0  2.754082  0  0  0.046816  0  2.754823  0  0  0.042256  0.058094  0  2.75335  0
S  S101  1  0.19316845  0.86025124  0.67905375  1  0  0.053127  0  2.418422  0  0  0.053128  0  2.752947  0  0  0.046657  0  2.753697  0  0  0.042354  0.057868  0  2.75225  0
S  S102  1  0.26805110  0.36014119  0.17893314  1  0  0.053473  0  2.419526  0  0  0.053298  0  2.754118  0  0  0.046804  0  2.75486  0  0  0.042233  0.058088  0  2.753388  0
S  S103  1  0.80683124  0.13974966  0.32094635  1  0  0.053131  0  2.41838  0  0  0.053128  0  2.752904  0  0  0.046654  0  2.753661  0  0  0.042353  0.057868  0  2.752206  0
S  S104  1  0.76079600  0.54668477  0.97034386  1  0  0.018379  0  2.44163  0  0  0.024396  0  2.772091  0  0  0.01683  0  2.774325  0  0  0.0355  0.030131  0  2.770224  0
S  S105  1  0.27769939  0.95323539  0.52972241  1  0  0.0176  0  2.442125  0  0  0.023523  0  2.772638  0  0  0.015881  0  2.774849  0  0  0.034895  0.029181  0  2.770829  0
S  S106  1  0.23920505  0.45331334  0.02965630  1  0  0.018367  0  2.441629  0  0  0.024382  0  2.772102  0  0  0.016817  0  2.774336  0  0  0.035488  0.030118  0  2.770235  0
S  S107  1  0.72229828  0.04676458  0.47027756  1  0  0.017571  0  2.442148  0  0  0.023493  0  2.772669  0  0  0.015851  0  2.774881  0  0  0.034885  0.029152  0  2.770861  0
N  N108  1  0.55011048  0.05737171  0.78366072  1  0  -0.338686  0  3.254123  0  0  -0.264863  0  3.524397  0  0  -0.283843  0  3.541579  0  0  -0.327091  -0.252106  0  3.512561  0
N  N109  1  0.39087946  0.44270593  0.71630691  1  0  -0.339823  0  3.255548  0  0  -0.265433  0  3.525094  0  0  -0.284412  0  3.542281  0  0  -0.32685  -0.252612  0  3.513123  0
N  N110  1  0.44988976  0.94262826  0.21633798  1  0  -0.338731  0  3.254245  0  0  -0.264898  0  3.524485  0  0  -0.283879  0  3.541668  0  0  -0.327108  -0.252171  0  3.512742  0
N  N111  1  0.60912148  0.55729404  0.28369373  1  0  -0.339749  0  3.255488  0  0  -0.265383  0  3.525051  0  0  -0.284361  0  3.542239  0  0  -0.326862  -0.252592  0  3.513172  0
N  N112  1  0.60456104  0.68965775  0.16056071  1  0  -0.32958  0  3.284358  0  0  -0.251219  0  3.554046  0  0  -0.270896  0  3.570947  0  0  -0.330357  -0.238093  0  3.542685  0
N  N113  1  0.45491185  0.81024694  0.33949197  1  0  -0.331847  0  3.289242  0  0  -0.253637  0  3.55895  0  0  -0.273359  0  3.57589  0  0  -0.330955  -0.240503  0  3.547473  0
N  N114  1  0.39543866  0.31034221  0.83943985  1  0  -0.329496  0  3.284424  0  0  -0.25114  0  3.554121  0  0  -0.270818  0  3.571023  0  0  -0.330336  -0.237976  0  3.542642  0
N  N115  1  0.54508828  0.18975395  0.66050768  1  0  -0.3318  0  3.289318  0  0  -0.253558  0  3.559029  0  0  -0.273281  0  3.575972  0  0  -0.330924  -0.240387  0  3.547433  0
F  F116  1  0.74832275  0.25011056  0.74993407  1  0  -0.58274  0  1.091245  0  0  -0.509059  0  1.310339  0  0  -0.526929  0  1.28453  0  0  -0.199241  -0.496571  0  1.328416  0
F  F117  1  0.25167650  0.74989033  0.25006648  1  0  -0.582753  0  1.091268  0  0  -0.509068  0  1.31035  0  0  -0.526937  0  1.284545  0  0  -0.199249  -0.494713  0  1.326563  0
F  F118  1  0.95686829  0.35036553  0.68826072  1  0  -0.5939  0  0.900756  0  0  -0.550021  0  1.076489  0  0  -0.563107  0  1.050868  0  0  -0.243869  -0.540702  0  1.094429  0
F  F119  1  0.99495847  0.14961558  0.81178255  1  0  -0.593781  0  0.89993  0  0  -0.550046  0  1.07569  0  0  -0.563081  0  1.050049  0  0  -0.243748  -0.540711  0  1.09367  0
F  F120  1  0.04312962  0.64963629  0.31174070  1  0  -0.593893  0  0.900713  0  0  -0.550019  0  1.076449  0  0  -0.563106  0  1.050833  0  0  -0.243884  -0.540819  0  1.094577  0
F  F121  1  0.00504133  0.85038346  0.18821706  1  0  -0.593763  0  0.899924  0  0  -0.550021  0  1.075679  0  0  -0.563058  0  1.050043  0  0  -0.243736  -0.540805  0  1.093847  0
F  F122  1  0.89151311  0.37205168  0.79665667  1  0  -0.605231  0  0.947258  0  0  -0.554319  0  1.135955  0  0  -0.56873  0  1.111898  0  0  -0.237693  -0.544039  0  1.152795  0
F  F123  1  0.06017941  0.12792392  0.70338608  1  0  -0.605146  0  0.947005  0  0  -0.554507  0  1.136065  0  0  -0.568959  0  1.112017  0  0  -0.237902  -0.544273  0  1.152977  0
F  F124  1  0.10848828  0.62794736  0.20334400  1  0  -0.605223  0  0.947323  0  0  -0.554304  0  1.136022  0  0  -0.568714  0  1.111966  0  0  -0.237672  -0.544145  0  1.153054  0
F  F125  1  0.93981826  0.87207604  0.29661389  1  0  -0.605186  0  0.946976  0  0  -0.554529  0  1.136019  0  0  -0.568982  0  1.111979  0  0  -0.237934  -0.54442  0  1.153122  0
F  F126  1  0.20073947  0.24988175  0.75009975  1  0  -0.587218  0  1.12598  0  0  -0.515314  0  1.35108  0  0  -0.533522  0  1.326077  0  0  -0.2003  -0.499614  0  1.365749  0
F  F127  1  0.79925865  0.75011729  0.24990023  1  0  -0.587212  0  1.125992  0  0  -0.515306  0  1.351095  0  0  -0.533512  0  1.326091  0  0  -0.200263  -0.499589  0  1.365796  0
