# generated using pymatgen
data_Al2H3C19SCl2O13
_symmetry_space_group_name_H-M   'P 1'
_cell_length_a   6.79948453
_cell_length_b   19.34265498
_cell_length_c   21.35175962
_cell_angle_alpha   86.91132721
_cell_angle_beta   85.88824153
_cell_angle_gamma   86.09700430
_symmetry_Int_Tables_number   1
_chemical_formula_structural   Al2H3C19SCl2O13
_chemical_formula_sum   'Al4 H6 C38 S2 Cl4 O26'
_cell_volume   2791.07103318
_cell_formula_units_Z   2
loop_
 _symmetry_equiv_pos_site_id
 _symmetry_equiv_pos_as_xyz
  1  'x, y, z'
loop_
 _atom_site_type_symbol
 _atom_site_label
 _atom_site_symmetry_multiplicity
 _atom_site_fract_x
 _atom_site_fract_y
 _atom_site_fract_z
 _atom_site_occupancy
 _atom_site_pbe_bader_charge
 _atom_site_pbe_bader_spin_density
 _atom_site_pbe_cm5_charge
 _atom_site_pbe_ddec_charge
 _atom_site_pbe_ddec_spin_density
 _atom_site_pbe_ddec_sum_bond_order
 _atom_site_pbe_magmom
Al  Al0  1  0.79340705  0.26356605  0.25999779  1  2.507856  0  0.411413  1.646415  0  2.566833  0
Al  Al1  1  0.21254649  0.73617713  0.73891329  1  2.505385  0  0.412222  1.646325  0  2.569166  0
Al  Al2  1  0.29350672  0.26296196  0.26134386  1  2.506954  0  0.412397  1.646396  0  2.559964  0
Al  Al3  1  0.71219214  0.73706673  0.73780891  1  2.500521  0  0.412833  1.642341  0  2.563668  0
H  H4  1  0.57117390  0.00390012  0.91668935  1  0.660599  0  0.300003  0.338932  0  0.983048  0
H  H5  1  0.56891873  0.16325164  0.01737393  1  0.652297  0  0.346641  0.396355  0  0.853924  0
H  H6  1  0.56370448  0.17393192  0.24912246  1  0.620701  0  0.35879  0.444562  0  0.833278  0
H  H7  1  0.44072885  0.82369971  0.75646065  1  0.63243  0  0.356587  0.441751  0  0.839135  0
H  H8  1  0.02679851  0.35454693  0.26131421  1  0.633373  0  0.359536  0.441256  0  0.836077  0
H  H9  1  0.97682066  0.64521770  0.74368584  1  0.628716  0  0.358645  0.439807  0  0.837985  0
C  C10  1  0.54557835  0.34814871  0.17365240  1  1.695923  0  0.276194  0.703597  0  4.17366  0
C  C11  1  0.46118744  0.65123872  0.82516018  1  1.709481  0  0.277371  0.703843  0  4.171728  0
C  C12  1  0.51026725  0.34338852  0.34334941  1  1.711072  0  0.281072  0.707977  0  4.167157  0
C  C13  1  0.49553922  0.65707808  0.65533711  1  1.687895  0  0.280725  0.705635  0  4.16808  0
C  C14  1  0.03886670  0.17627976  0.34519909  1  1.695283  0  0.280032  0.705759  0  4.169574  0
C  C15  1  0.96584503  0.82349876  0.65391058  1  1.718466  0  0.27917  0.702119  0  4.174072  0
C  C16  1  0.07884164  0.18326577  0.17773480  1  1.698561  0  0.2846  0.723068  0  4.144785  0
C  C17  1  0.92834215  0.81641962  0.82147449  1  1.68722  0  0.286126  0.722557  0  4.138425  0
C  C18  1  0.90240335  0.03556406  0.95529405  1  0.143986  0  0.0285  0.084473  0  3.695889  0
C  C19  1  0.11764795  0.96386757  0.04357163  1  0.199358  0  0.036054  0.098671  0  3.706239  0
C  C20  1  0.11868208  0.04963188  0.96934884  1  0.163714  0  0.030709  0.098631  0  3.710352  0
C  C21  1  0.89953729  0.94978726  0.02921015  1  0.18515  0  0.032981  0.089229  0  3.733346  0
C  C22  1  0.09413205  0.13525453  0.12785760  1  0.265555  0  -0.019958  -0.149334  0  3.882866  0
C  C23  1  0.91581394  0.86433133  0.87140452  1  0.157754  0  -0.011413  -0.130668  0  3.865333  0
C  C24  1  0.84271877  0.03002920  0.02762061  1  -0.118448  0  -0.007362  -0.183238  0  3.672675  0
C  C25  1  0.17584875  0.96965243  0.97078580  1  -0.095485  0  -0.004586  -0.171842  0  3.636701  0
C  C26  1  0.05938567  0.04522711  0.04261647  1  0.133859  0  0.01615  0.084946  0  3.776477  0
C  C27  1  0.95871279  0.95453017  0.95594837  1  0.079897  0  0.01386  0.075711  0  3.797665  0
C  C28  1  0.09217845  0.09320343  0.08772310  1  -0.432956  0  -0.033541  -0.016852  0  4.080733  0
C  C29  1  0.92436005  0.90652855  0.91102097  1  -0.279396  0  -0.03311  -0.026035  0  4.08271  0
C  C30  1  0.97125647  0.87668956  0.60407794  1  0.147837  0  0.005233  -0.130221  0  3.819061  0
C  C31  1  0.03345987  0.12334244  0.39520027  1  0.164597  0  0.002863  -0.133415  0  3.82041  0
C  C32  1  0.98271850  0.92399287  0.56363001  1  -0.195412  0  -0.004592  0.031042  0  4.251026  0
C  C33  1  0.02224181  0.07607375  0.43569311  1  -0.285499  0  -0.003437  0.033215  0  4.24992  0
C  C34  1  0.99595208  0.97598601  0.51972360  1  -0.126149  0  0.004404  0.001424  0  4.183226  0
C  C35  1  0.00922874  0.02411486  0.47964301  1  0.097732  0  0.003702  -0.000522  0  4.182827  0
C  C36  1  0.54194885  0.39485705  0.11877949  1  0.253832  0  -0.001518  -0.138328  0  3.824788  0
C  C37  1  0.46432069  0.60469383  0.88017111  1  0.067254  0  0.005519  -0.125458  0  3.811315  0
C  C38  1  0.52819889  0.43522315  0.07273206  1  -0.343579  0  -0.00824  0.028942  0  4.258035  0
C  C39  1  0.47755430  0.56458344  0.92639998  1  -0.177323  0  -0.006149  0.027845  0  4.248053  0
C  C40  1  0.51145240  0.47951077  0.02258758  1  0.140151  0  -0.000547  -0.005  0  4.188098  0
C  C41  1  0.49401539  0.52041606  0.97664119  1  -0.148516  0  0.003794  0.001645  0  4.183981  0
C  C42  1  0.49666413  0.39119252  0.39307730  1  0.252687  0  0.003029  -0.135574  0  3.818498  0
C  C43  1  0.50952303  0.60895763  0.60580783  1  0.04489  0  0.00444  -0.131331  0  3.818916  0
C  C44  1  0.49749346  0.43291518  0.43432055  1  -0.378579  0  -0.003277  0.034328  0  4.247491  0
C  C45  1  0.50814638  0.56691790  0.56486531  1  -0.099751  0  -0.004378  0.029112  0  4.253021  0
C  C46  1  0.50014566  0.47865511  0.47920618  1  -0.09366  0  0.003486  -0.00192  0  4.181251  0
C  C47  1  0.50508470  0.52094367  0.52020516  1  0.092828  0  0.006501  0.006014  0  4.179343  0
S  S48  1  0.36588288  0.92551149  0.92455780  1  3.159655  0  0.542347  1.180248  0  6.024536  0
S  S49  1  0.63432426  0.06872083  0.06950364  1  3.129152  0  0.548124  1.172173  0  6.004777  0
Cl  Cl50  1  0.24438544  0.11456262  0.92895311  1  -0.172979  0  -0.001937  -0.062341  0  1.525456  0
Cl  Cl51  1  0.76785926  0.88600947  0.06704961  1  -0.125157  0  0.024529  -0.013393  0  1.527503  0
Cl  Cl52  1  0.77900506  0.08416238  0.89773454  1  -0.177405  0  0.03531  -0.036378  0  1.555478  0
Cl  Cl53  1  0.24130518  0.91780512  0.10065234  1  -0.127468  0  0.019367  -0.019462  0  1.526925  0
O  O54  1  0.34908211  0.32428091  0.32515614  1  -1.231033  0  -0.221692  -0.573696  0  2.27355  0
O  O55  1  0.65636855  0.67583021  0.67399371  1  -1.229365  0  -0.220376  -0.570024  0  2.277684  0
O  O56  1  0.71423960  0.32996042  0.19375342  1  -1.232521  0  -0.226302  -0.578371  0  2.275389  0
O  O57  1  0.29294444  0.66858342  0.80438772  1  -1.230081  0  -0.22523  -0.578776  0  2.273048  0
O  O58  1  0.90305817  0.20171772  0.19740275  1  -1.227837  0  -0.218762  -0.571576  0  2.286832  0
O  O59  1  0.10389212  0.79717542  0.80212289  1  -1.224603  0  -0.218548  -0.57465  0  2.290865  0
O  O60  1  0.68526808  0.32581428  0.32195693  1  -1.226562  0  -0.221593  -0.576185  0  2.288296  0
O  O61  1  0.32031972  0.67517153  0.67608534  1  -1.229572  0  -0.220131  -0.57309  0  2.290014  0
O  O62  1  0.87212087  0.19705027  0.32498924  1  -1.231275  0  -0.2224  -0.57413  0  2.285648  0
O  O63  1  0.13226093  0.80301457  0.67443328  1  -1.229097  0  -0.22095  -0.569547  0  2.284311  0
O  O64  1  0.37699188  0.33057753  0.19663523  1  -1.225618  0  -0.226332  -0.581082  0  2.285875  0
O  O65  1  0.62990344  0.66924013  0.80263470  1  -1.230902  0  -0.225242  -0.581262  0  2.284474  0
O  O66  1  0.55159295  0.22212314  0.26017817  1  -1.419891  0  -0.445658  -0.99516  0  2.152397  0
O  O67  1  0.45388802  0.77787334  0.73954035  1  -1.430371  0  -0.445283  -0.991846  0  2.14637  0
O  O68  1  0.20851614  0.19590347  0.32554432  1  -1.230178  0  -0.224163  -0.576776  0  2.276688  0
O  O69  1  0.79631447  0.80356796  0.67318527  1  -1.22936  0  -0.221857  -0.571361  0  2.280922  0
O  O70  1  0.23933096  0.20120054  0.19726452  1  -1.230129  0  -0.224026  -0.580231  0  2.281876  0
O  O71  1  0.76743262  0.79965186  0.80139335  1  -1.22875  0  -0.221655  -0.578026  0  2.276906  0
O  O72  1  0.03613823  0.30444051  0.25984413  1  -1.433898  0  -0.447119  -0.995986  0  2.163196  0
O  O73  1  0.96950825  0.69542655  0.73921264  1  -1.430086  0  -0.446665  -0.994968  0  2.164954  0
O  O74  1  0.38272893  0.85491357  0.94781695  1  -1.265884  0  -0.285922  -0.480381  0  2.108196  0
O  O75  1  0.33532173  0.94574344  0.85997683  1  -1.277659  0  -0.307036  -0.520162  0  2.104639  0
O  O76  1  0.55378844  0.96134083  0.94378921  1  -1.263971  0  -0.347719  -0.51383  0  2.427896  0
O  O77  1  0.46279440  0.04816084  0.04181208  1  -1.310703  0  -0.294596  -0.546366  0  2.412526  0
O  O78  1  0.66172268  0.05830178  0.13504988  1  -1.256765  0  -0.27743  -0.468427  0  2.112946  0
O  O79  1  0.65807294  0.14957560  0.05069738  1  -1.198748  0  -0.344528  -0.509123  0  2.145814  0
