# generated using pymatgen
data_CdH10C2S(N5O3)2
_symmetry_space_group_name_H-M   'P 1'
_cell_length_a   11.36282087
_cell_length_b   11.24713539
_cell_length_c   12.53070000
_cell_angle_alpha   103.74065223
_cell_angle_beta   110.59181964
_cell_angle_gamma   111.84452197
_symmetry_Int_Tables_number   1
_chemical_formula_structural   CdH10C2S(N5O3)2
_chemical_formula_sum   'Cd4 H40 C8 S4 N40 O24'
_cell_volume   1260.20432091
_cell_formula_units_Z   4
loop_
 _symmetry_equiv_pos_site_id
 _symmetry_equiv_pos_as_xyz
  1  'x, y, z'
loop_
 _atom_site_type_symbol
 _atom_site_label
 _atom_site_symmetry_multiplicity
 _atom_site_fract_x
 _atom_site_fract_y
 _atom_site_fract_z
 _atom_site_occupancy
 _atom_site_hle17_bader_spin_density
 _atom_site_hle17_ddec_charge
 _atom_site_hle17_ddec_spin_density
 _atom_site_hle17_ddec_sum_bond_order
 _atom_site_hle17_magmom
 _atom_site_hse06_10hf_bader_spin_density
 _atom_site_hse06_10hf_ddec_charge
 _atom_site_hse06_10hf_ddec_spin_density
 _atom_site_hse06_10hf_ddec_sum_bond_order
 _atom_site_hse06_10hf_magmom
 _atom_site_hse06_bader_spin_density
 _atom_site_hse06_ddec_charge
 _atom_site_hse06_ddec_spin_density
 _atom_site_hse06_ddec_sum_bond_order
 _atom_site_hse06_magmom
 _atom_site_pbe_bader_spin_density
 _atom_site_pbe_cm5_charge
 _atom_site_pbe_ddec_charge
 _atom_site_pbe_ddec_spin_density
 _atom_site_pbe_ddec_sum_bond_order
 _atom_site_pbe_magmom
Cd  Cd0  1  0.67376450  0.80235583  0.41301564  1  0  1.21566  0  1.646636  0  0  1.03639  0  2.091686  0  0  1.085118  0  2.040499  0  0  0.812852  1.001285  0  2.127239  0
Cd  Cd1  1  0.89180012  0.26174620  0.08798322  1  0  1.215056  0  1.646511  0  0  1.034712  0  2.091527  0  0  1.083377  0  2.040533  0  0  0.816102  0.999635  0  2.126869  0
Cd  Cd2  1  0.32623584  0.19764442  0.58698516  1  0  1.215623  0  1.646658  0  0  1.03634  0  2.091719  0  0  1.085073  0  2.040529  0  0  0.812827  1.001234  0  2.127274  0
Cd  Cd3  1  0.10820209  0.73825405  0.91201658  1  0  1.21506  0  1.646484  0  0  1.034723  0  2.091501  0  0  1.083391  0  2.040507  0  0  0.816113  0.999647  0  2.126844  0
H  H4  1  0.47474411  0.57331574  0.42042182  1  0  0.409762  0  0.879878  0  0  0.372709  0  0.961008  0  0  0.383019  0  0.945647  0  0  0.296615  0.365361  0  0.971943  0
H  H5  1  0.65154981  0.04917287  0.07344968  1  0  0.412541  0  0.872529  0  0  0.375645  0  0.95526  0  0  0.385827  0  0.940078  0  0  0.297549  0.368374  0  0.966097  0
H  H6  1  0.52525380  0.42668346  0.57957798  1  0  0.409749  0  0.879899  0  0  0.372692  0  0.961031  0  0  0.383001  0  0.945674  0  0  0.296614  0.365344  0  0.971967  0
H  H7  1  0.34845324  0.95083267  0.92655312  1  0  0.412479  0  0.872579  0  0  0.375565  0  0.955365  0  0  0.385745  0  0.940184  0  0  0.297514  0.368293  0  0.966202  0
H  H8  1  0.95331796  0.06745140  0.56453045  1  0  0.407775  0  0.886205  0  0  0.367235  0  0.975888  0  0  0.377549  0  0.960679  0  0  0.295  0.359802  0  0.986848  0
H  H9  1  0.99982515  0.38384916  0.93586236  1  0  0.414826  0  0.867521  0  0  0.37574  0  0.958485  0  0  0.385857  0  0.943422  0  0  0.298951  0.368473  0  0.969301  0
H  H10  1  0.04668222  0.93254673  0.43546905  1  0  0.407766  0  0.886209  0  0  0.367229  0  0.975895  0  0  0.377542  0  0.960686  0  0  0.295001  0.359796  0  0.986855  0
H  H11  1  0.00017479  0.61615214  0.06413934  1  0  0.414814  0  0.867521  0  0  0.37573  0  0.958496  0  0  0.385848  0  0.943432  0  0  0.298947  0.368463  0  0.969313  0
H  H12  1  0.61322677  0.55438886  0.43850606  1  0  0.422565  0  0.880607  0  0  0.390323  0  0.94674  0  0  0.400821  0  0.93144  0  0  0.287362  0.382877  0  0.957583  0
H  H13  1  0.61549459  0.17076075  0.05474533  1  0  0.421453  0  0.882419  0  0  0.389238  0  0.948553  0  0  0.399712  0  0.933259  0  0  0.287024  0.381813  0  0.959383  0
H  H14  1  0.38677317  0.44561245  0.56149563  1  0  0.42257  0  0.880608  0  0  0.390334  0  0.946721  0  0  0.400833  0  0.93142  0  0  0.287387  0.382887  0  0.957564  0
H  H15  1  0.38450941  0.82924479  0.94525457  1  0  0.421469  0  0.882401  0  0  0.389269  0  0.948533  0  0  0.399744  0  0.933237  0  0  0.286989  0.381825  0  0.959378  0
H  H16  1  0.89213207  0.07517022  0.43288082  1  0  0.439942  0  0.842035  0  0  0.409419  0  0.90694  0  0  0.41973  0  0.89178  0  0  0.301101  0.40204  0  0.917817  0
H  H17  1  0.14628984  0.45565496  0.06408386  1  0  0.44049  0  0.844467  0  0  0.409595  0  0.907521  0  0  0.419995  0  0.892274  0  0  0.299273  0.402181  0  0.918396  0
H  H18  1  0.10786623  0.92482791  0.56712048  1  0  0.439924  0  0.842047  0  0  0.409384  0  0.906984  0  0  0.419692  0  0.891829  0  0  0.3011  0.402004  0  0.91786  0
H  H19  1  0.85370916  0.54434635  0.93591674  1  0  0.440481  0  0.8445  0  0  0.409622  0  0.907488  0  0  0.420023  0  0.892242  0  0  0.299289  0.402206  0  0.918366  0
H  H20  1  0.71036766  0.54300523  0.02024866  1  0  0.326213  0  0.918165  0  0  0.298652  0  0.989231  0  0  0.308121  0  0.981655  0  0  0.322564  0.291875  0  0.994769  0
H  H21  1  0.02552585  0.69477352  0.48287414  1  0  0.327254  0  0.913446  0  0  0.300054  0  0.984377  0  0  0.309431  0  0.976848  0  0  0.32333  0.293379  0  0.98987  0
H  H22  1  0.28963213  0.45699396  0.97975334  1  0  0.326188  0  0.918184  0  0  0.298658  0  0.989212  0  0  0.308095  0  0.98169  0  0  0.322564  0.291879  0  0.994756  0
H  H23  1  0.97447285  0.30522355  0.51712626  1  0  0.327264  0  0.913449  0  0  0.300043  0  0.984403  0  0  0.30942  0  0.976872  0  0  0.323316  0.293367  0  0.989897  0
H  H24  1  0.52966755  0.38258420  0.08055380  1  0  0.363582  0  0.893986  0  0  0.338123  0  0.96784  0  0  0.345854  0  0.961026  0  0  0.306682  0.332684  0  0.972597  0
H  H25  1  0.80132153  0.44631897  0.41356986  1  0  0.36367  0  0.897945  0  0  0.337256  0  0.974414  0  0  0.345089  0  0.967431  0  0  0.30582  0.33173  0  0.979329  0
H  H26  1  0.47033294  0.61741817  0.91944909  1  0  0.363646  0  0.893909  0  0  0.338172  0  0.967772  0  0  0.345904  0  0.960956  0  0  0.30669  0.332732  0  0.972531  0
H  H27  1  0.19867881  0.55368128  0.58643014  1  0  0.363664  0  0.897929  0  0  0.337245  0  0.974413  0  0  0.345078  0  0.967428  0  0  0.305824  0.331717  0  0.979331  0
H  H28  1  0.51564140  0.47081973  0.20868292  1  0  0.362657  0  0.886108  0  0  0.341232  0  0.953896  0  0  0.348542  0  0.947251  0  0  0.309205  0.335966  0  0.958828  0
H  H29  1  0.76120282  0.30229700  0.28408584  1  0  0.364744  0  0.882589  0  0  0.345226  0  0.946007  0  0  0.352534  0  0.939527  0  0  0.310101  0.339988  0  0.950764  0
H  H30  1  0.48435854  0.52918157  0.79131798  1  0  0.362697  0  0.886046  0  0  0.341258  0  0.953851  0  0  0.348568  0  0.947205  0  0  0.309206  0.33599  0  0.958784  0
H  H31  1  0.23879697  0.69770219  0.71591615  1  0  0.364764  0  0.882566  0  0  0.345255  0  0.945963  0  0  0.352561  0  0.939484  0  0  0.310116  0.340015  0  0.950722  0
H  H32  1  0.46068815  0.97293888  0.70167516  1  0  0.337975  0  0.854482  0  0  0.320502  0  0.90724  0  0  0.328991  0  0.900273  0  0  0.341149  0.314329  0  0.912536  0
H  H33  1  0.76860336  0.75289845  0.79148995  1  0  0.33796  0  0.85319  0  0  0.320032  0  0.907038  0  0  0.328523  0  0.900084  0  0  0.341401  0.313899  0  0.912256  0
H  H34  1  0.53930773  0.02705819  0.29832035  1  0  0.337968  0  0.85449  0  0  0.32049  0  0.907254  0  0  0.328977  0  0.900289  0  0  0.34115  0.314318  0  0.912549  0
H  H35  1  0.23139940  0.24710286  0.20851105  1  0  0.337958  0  0.853176  0  0  0.320031  0  0.907033  0  0  0.328522  0  0.900078  0  0  0.341401  0.313897  0  0.912253  0
H  H36  1  0.75604568  0.11866450  0.61960303  1  0  0.335699  0  0.921981  0  0  0.307095  0  1.007835  0  0  0.314795  0  1.000907  0  0  0.303092  0.301593  0  1.012847  0
H  H37  1  0.99704955  0.14073158  0.88414842  1  0  0.336942  0  0.919065  0  0  0.307639  0  1.006776  0  0  0.315285  0  0.999749  0  0  0.302698  0.302134  0  1.011914  0
H  H38  1  0.24395020  0.88133258  0.38039327  1  0  0.335669  0  0.922028  0  0  0.307053  0  1.007898  0  0  0.314754  0  1.000968  0  0  0.303085  0.301551  0  1.012913  0
H  H39  1  0.00295455  0.85926867  0.11585118  1  0  0.336934  0  0.91907  0  0  0.307661  0  1.00674  0  0  0.315308  0  0.999711  0  0  0.302703  0.302156  0  1.011879  0
H  H40  1  0.70257596  0.16307048  0.73056368  1  0  0.354028  0  0.905646  0  0  0.334002  0  0.969847  0  0  0.341834  0  0.963255  0  0  0.303784  0.328452  0  0.974494  0
H  H41  1  0.93118419  0.97382203  0.77088976  1  0  0.355839  0  0.903182  0  0  0.335755  0  0.967011  0  0  0.343636  0  0.960348  0  0  0.30426  0.330179  0  0.971693  0
H  H42  1  0.29741898  0.83692660  0.26943232  1  0  0.353996  0  0.905721  0  0  0.333969  0  0.969939  0  0  0.341794  0  0.963341  0  0  0.303784  0.328422  0  0.974584  0
H  H43  1  0.06882045  0.02617927  0.22911184  1  0  0.35585  0  0.903192  0  0  0.335749  0  0.96706  0  0  0.343631  0  0.960397  0  0  0.304242  0.330174  0  0.971741  0
C  C44  1  0.67237473  0.59344200  0.17853010  1  0  0.603144  0  3.822412  0  0  0.545032  0  4.103617  0  0  0.570428  0  4.11204  0  0  0.350821  0.527917  0  4.097461  0
C  C45  1  0.91560537  0.49466686  0.32162886  1  0  0.607396  0  3.814024  0  0  0.548262  0  4.096406  0  0  0.573791  0  4.10472  0  0  0.352626  0.531032  0  4.090331  0
C  C46  1  0.32763154  0.40656247  0.82147509  1  0  0.603228  0  3.822483  0  0  0.545074  0  4.103733  0  0  0.570474  0  4.112152  0  0  0.350853  0.52796  0  4.097575  0
C  C47  1  0.08439615  0.50533022  0.67837404  1  0  0.607211  0  3.814291  0  0  0.548162  0  4.096544  0  0  0.573708  0  4.104834  0  0  0.352566  0.530931  0  4.090469  0
C  C48  1  0.58431677  0.95606704  0.61055381  1  0  0.603718  0  3.838415  0  0  0.544087  0  4.124661  0  0  0.569352  0  4.133138  0  0  0.349932  0.527002  0  4.118612  0
C  C49  1  0.84527254  0.97223660  0.88738745  1  0  0.60735  0  3.828355  0  0  0.547926  0  4.114353  0  0  0.573183  0  4.122961  0  0  0.352207  0.530836  0  4.108252  0
C  C50  1  0.41567787  0.04392580  0.38944360  1  0  0.603859  0  3.838363  0  0  0.544138  0  4.124701  0  0  0.569418  0  4.133155  0  0  0.349887  0.527053  0  4.118658  0
C  C51  1  0.15473156  0.02776365  0.11261215  1  0  0.607312  0  3.828341  0  0  0.547813  0  4.114425  0  0  0.573069  0  4.123038  0  0  0.352168  0.530751  0  4.108283  0
S  S52  1  0.39218717  0.72691484  0.12583655  1  0  1.569016  0  5.843659  0  0  1.439745  0  6.395955  0  0  1.495339  0  6.360201  0  0  0.553986  1.401185  0  6.419371  0
S  S53  1  0.10095393  0.26689385  0.37568687  1  0  1.572858  0  5.842967  0  0  1.445016  0  6.39393  0  0  1.500637  0  6.35804  0  0  0.554563  1.40647  0  6.417474  0
S  S54  1  0.60781370  0.27308647  0.87416146  1  0  1.568994  0  5.843579  0  0  1.439706  0  6.395902  0  0  1.495302  0  6.36015  0  0  0.553994  1.401145  0  6.419315  0
S  S55  1  0.89904734  0.73310640  0.62431343  1  0  1.572876  0  5.8431  0  0  1.445034  0  6.394064  0  0  1.50066  0  6.358173  0  0  0.554599  1.406489  0  6.417608  0
N  N56  1  0.74581820  0.71713992  0.28175167  1  0  -0.44456  0  3.09102  0  0  -0.382911  0  3.392005  0  0  -0.407016  0  3.403633  0  0  -0.264781  -0.366364  0  3.383555  0
N  N57  1  0.93615442  0.46544786  0.22061083  1  0  -0.44719  0  3.099712  0  0  -0.383329  0  3.402357  0  0  -0.407771  0  3.414044  0  0  -0.26642  -0.366476  0  3.393885  0
N  N58  1  0.25418416  0.28286244  0.71825103  1  0  -0.444586  0  3.090974  0  0  -0.382956  0  3.392007  0  0  -0.407062  0  3.403637  0  0  -0.2648  -0.366409  0  3.383557  0
N  N59  1  0.06384349  0.53455133  0.77938737  1  0  -0.447186  0  3.099835  0  0  -0.383376  0  3.402473  0  0  -0.407825  0  3.414154  0  0  -0.266479  -0.366523  0  3.394001  0
N  N60  1  0.85604690  0.80852835  0.27136692  1  0  -0.06923  0  3.038075  0  0  -0.057758  0  3.335922  0  0  -0.054789  0  3.344822  0  0  -0.081983  -0.059403  0  3.329868  0
N  N61  1  0.04006429  0.58929173  0.23602013  1  0  -0.071509  0  3.026012  0  0  -0.064185  0  3.326451  0  0  -0.060719  0  3.335262  0  0  -0.08472  -0.066222  0  3.32041  0
N  N62  1  0.14395398  0.19147296  0.72863508  1  0  -0.069256  0  3.038042  0  0  -0.05778  0  3.335889  0  0  -0.054814  0  3.344788  0  0  -0.082007  -0.059424  0  3.329835  0
N  N63  1  0.95993589  0.41070640  0.76398017  1  0  -0.071383  0  3.025913  0  0  -0.064046  0  3.32636  0  0  -0.060577  0  3.335173  0  0  -0.084627  -0.066082  0  3.320316  0
N  N64  1  0.85318830  0.74760590  0.16877180  1  0  -0.03658  0  2.975233  0  0  -0.037553  0  3.271569  0  0  -0.034512  0  3.280566  0  0  -0.072804  -0.039493  0  3.265809  0
N  N65  1  0.08282951  0.69058306  0.33943388  1  0  -0.041122  0  2.999117  0  0  -0.04066  0  3.296925  0  0  -0.038083  0  3.306041  0  0  -0.074234  -0.042249  0  3.291083  0
N  N66  1  0.14681352  0.25239540  0.83123049  1  0  -0.036547  0  2.975273  0  0  -0.037512  0  3.271599  0  0  -0.034466  0  3.280594  0  0  -0.072806  -0.039452  0  3.265838  0
N  N67  1  0.91717122  0.30941613  0.66056682  1  0  -0.041183  0  2.999163  0  0  -0.040771  0  3.296992  0  0  -0.038195  0  3.30611  0  0  -0.074293  -0.042358  0  3.291147  0
N  N68  1  0.73946848  0.61383480  0.10864514  1  0  -0.312536  0  3.333146  0  0  -0.24874  0  3.575955  0  0  -0.267128  0  3.587125  0  0  -0.26405  -0.236554  0  3.568708  0
N  N69  1  0.00788724  0.63489182  0.39505821  1  0  -0.30944  0  3.330044  0  0  -0.245167  0  3.570965  0  0  -0.263474  0  3.582135  0  0  -0.262236  -0.233134  0  3.563778  0
N  N70  1  0.26053131  0.38616439  0.89135765  1  0  -0.312533  0  3.333053  0  0  -0.24874  0  3.575819  0  0  -0.267117  0  3.587044  0  0  -0.264031  -0.236553  0  3.568571  0
N  N71  1  0.99211106  0.36510632  0.60493909  1  0  -0.309381  0  3.330006  0  0  -0.245054  0  3.5708  0  0  -0.263368  0  3.581967  0  0  -0.262144  -0.233019  0  3.563609  0
N  N72  1  0.55763478  0.47411647  0.14912275  1  0  -0.701059  0  3.116823  0  0  -0.671045  0  3.370359  0  0  -0.691833  0  3.365594  0  0  -0.574896  -0.656639  0  3.373628  0
N  N73  1  0.82404256  0.40633931  0.34598676  1  0  -0.699877  0  3.10384  0  0  -0.669572  0  3.355409  0  0  -0.690366  0  3.350399  0  0  -0.574945  -0.655114  0  3.358827  0
N  N74  1  0.44236540  0.52588167  0.85088074  1  0  -0.701175  0  3.116905  0  0  -0.671104  0  3.370463  0  0  -0.691887  0  3.36569  0  0  -0.574898  -0.656698  0  3.373736  0
N  N75  1  0.17595817  0.59365988  0.65401315  1  0  -0.699839  0  3.103814  0  0  -0.669572  0  3.355346  0  0  -0.690372  0  3.350329  0  0  -0.574957  -0.655114  0  3.358765  0
N  N76  1  0.56321771  0.83941105  0.52724425  1  0  -0.443955  0  3.109365  0  0  -0.378984  0  3.402892  0  0  -0.40345  0  3.415651  0  0  -0.261645  -0.362143  0  3.393774  0
N  N77  1  0.81289473  0.03413184  0.97003773  1  0  -0.443488  0  3.113973  0  0  -0.377854  0  3.408689  0  0  -0.402418  0  3.421444  0  0  -0.263492  -0.3609  0  3.399518  0
N  N78  1  0.43677951  0.16058497  0.47275305  1  0  -0.444062  0  3.109463  0  0  -0.379026  0  3.402969  0  0  -0.403497  0  3.415722  0  0  -0.261608  -0.362188  0  3.393852  0
N  N79  1  0.18710803  0.96586946  0.02996008  1  0  -0.443526  0  3.114034  0  0  -0.37787  0  3.408784  0  0  -0.402433  0  3.421537  0  0  -0.263501  -0.360928  0  3.399607  0
N  N80  1  0.45169582  0.72623794  0.51759852  1  0  -0.060007  0  3.034693  0  0  -0.051867  0  3.335756  0  0  -0.04834  0  3.343875  0  0  -0.077336  -0.053941  0  3.330214  0
N  N81  1  0.70962423  0.92871482  0.97607581  1  0  -0.060326  0  3.024374  0  0  -0.053455  0  3.325126  0  0  -0.049664  0  3.33304  0  0  -0.077667  -0.055683  0  3.319682  0
N  N82  1  0.54829951  0.27375808  0.48239739  1  0  -0.05993  0  3.034692  0  0  -0.051804  0  3.335737  0  0  -0.048275  0  3.343859  0  0  -0.077336  -0.053875  0  3.330194  0
N  N83  1  0.29037759  0.07128648  0.02392329  1  0  -0.060247  0  3.024338  0  0  -0.053366  0  3.325061  0  0  -0.049576  0  3.332976  0  0  -0.077628  -0.055592  0  3.319617  0
N  N84  1  0.40303845  0.76656451  0.58929032  1  0  -0.025636  0  2.878939  0  0  -0.033111  0  3.174553  0  0  -0.029355  0  3.181676  0  0  -0.07375  -0.035534  0  3.17  0
N  N85  1  0.67751474  0.80644052  0.90269856  1  0  -0.025308  0  2.882842  0  0  -0.031364  0  3.179136  0  0  -0.027641  0  3.186199  0  0  -0.072218  -0.033715  0  3.174606  0
N  N86  1  0.59695649  0.23343256  0.41070489  1  0  -0.025576  0  2.878882  0  0  -0.033041  0  3.174479  0  0  -0.029289  0  3.181605  0  0  -0.073689  -0.035465  0  3.169926  0
N  N87  1  0.32248708  0.19356079  0.09730135  1  0  -0.025409  0  2.882887  0  0  -0.031453  0  3.179171  0  0  -0.02773  0  3.186236  0  0  -0.072257  -0.033805  0  3.174642  0
N  N88  1  0.48488899  0.91039927  0.64911316  1  0  -0.309164  0  3.304642  0  0  -0.247556  0  3.550586  0  0  -0.264269  0  3.558555  0  0  -0.265632  -0.236528  0  3.545518  0
N  N89  1  0.76065826  0.83073504  0.84557703  1  0  -0.308887  0  3.304795  0  0  -0.247904  0  3.55139  0  0  -0.264822  0  3.559684  0  0  -0.265122  -0.236785  0  3.54614  0
N  N90  1  0.51510729  0.08959675  0.35088304  1  0  -0.309305  0  3.304634  0  0  -0.247668  0  3.550604  0  0  -0.264381  0  3.558565  0  0  -0.265701  -0.236641  0  3.545537  0
N  N91  1  0.23934410  0.16926733  0.15442168  1  0  -0.308761  0  3.304709  0  0  -0.247786  0  3.551339  0  0  -0.264703  0  3.559638  0  0  -0.265069  -0.236675  0  3.546078  0
N  N92  1  0.68047126  0.09035509  0.64862105  1  0  -0.690302  0  3.116018  0  0  -0.657536  0  3.3646  0  0  -0.67901  0  3.360603  0  0  -0.576765  -0.64253  0  3.367277  0
N  N93  1  0.94122690  0.03370983  0.85291088  1  0  -0.692618  0  3.116922  0  0  -0.660308  0  3.367616  0  0  -0.681769  0  3.363685  0  0  -0.57715  -0.6453  0  3.370316  0
N  N94  1  0.31952516  0.90964304  0.35137485  1  0  -0.690243  0  3.11612  0  0  -0.657459  0  3.364744  0  0  -0.678933  0  3.360749  0  0  -0.576724  -0.642433  0  3.367373  0
N  N95  1  0.05877773  0.96629147  0.14708912  1  0  -0.69263  0  3.116881  0  0  -0.660294  0  3.367514  0  0  -0.681753  0  3.363585  0  0  -0.577128  -0.645298  0  3.370202  0
O  O96  1  0.33931932  0.58120484  0.11987954  1  0  -0.729568  0  1.948516  0  0  -0.668283  0  2.187366  0  0  -0.690284  0  2.170483  0  0  -0.356999  -0.65262  0  2.198679  0
O  O97  1  0.96058401  0.21680399  0.37744624  1  0  -0.728955  0  1.941477  0  0  -0.669416  0  2.180892  0  0  -0.691183  0  2.163853  0  0  -0.35886  -0.654044  0  2.192403  0
O  O98  1  0.66068007  0.41879540  0.88012016  1  0  -0.729594  0  1.948551  0  0  -0.668306  0  2.187415  0  0  -0.69033  0  2.170536  0  0  -0.357018  -0.652644  0  2.198728  0
O  O99  1  0.03941632  0.78319626  0.62255296  1  0  -0.728976  0  1.941551  0  0  -0.669439  0  2.18096  0  0  -0.691205  0  2.163918  0  0  -0.358887  -0.654067  0  2.192471  0
O  O100  1  0.51947740  0.83343419  0.25298099  1  0  -0.762041  0  1.97899  0  0  -0.697025  0  2.250678  0  0  -0.721348  0  2.231084  0  0  -0.373456  -0.679678  0  2.263818  0
O  O101  1  0.08059523  0.26855755  0.25116655  1  0  -0.767123  0  1.978894  0  0  -0.7022  0  2.252059  0  0  -0.726521  0  2.232205  0  0  -0.376282  -0.684857  0  2.265254  0
O  O102  1  0.48052521  0.16656500  0.74701712  1  0  -0.761999  0  1.978988  0  0  -0.696983  0  2.250683  0  0  -0.721304  0  2.231088  0  0  -0.373439  -0.679636  0  2.263822  0
O  O103  1  0.91940753  0.73144375  0.74883525  1  0  -0.767128  0  1.978907  0  0  -0.702215  0  2.252072  0  0  -0.726542  0  2.232218  0  0  -0.376311  -0.684875  0  2.265268  0
O  O104  1  0.43349706  0.73551999  0.02667044  1  0  -0.737086  0  1.958247  0  0  -0.676804  0  2.202467  0  0  -0.698293  0  2.184695  0  0  -0.357424  -0.661574  0  2.214241  0
O  O105  1  0.21054502  0.41053717  0.47864065  1  0  -0.740241  0  1.966506  0  0  -0.680679  0  2.213004  0  0  -0.702298  0  2.19536  0  0  -0.357737  -0.665384  0  2.224682  0
O  O106  1  0.56650030  0.26447815  0.97332656  1  0  -0.737048  0  1.958105  0  0  -0.67675  0  2.202294  0  0  -0.69823  0  2.184518  0  0  -0.357426  -0.661522  0  2.214074  0
O  O107  1  0.78945397  0.58946413  0.52135995  1  0  -0.74024  0  1.96655  0  0  -0.680687  0  2.213085  0  0  -0.702293  0  2.195414  0  0  -0.357722  -0.665393  0  2.224761  0
O  O108  1  0.27461489  0.76358296  0.10855209  1  0  -0.779851  0  2.025028  0  0  -0.711312  0  2.295619  0  0  -0.735795  0  2.277823  0  0  -0.374486  -0.693852  0  2.30733  0
O  O109  1  0.15465204  0.16532224  0.39089033  1  0  -0.77839  0  2.024346  0  0  -0.710198  0  2.294719  0  0  -0.734722  0  2.276867  0  0  -0.375043  -0.692688  0  2.306301  0
O  O110  1  0.72538545  0.23641729  0.89144791  1  0  -0.779845  0  2.024988  0  0  -0.711315  0  2.295605  0  0  -0.735801  0  2.277808  0  0  -0.374494  -0.69385  0  2.307313  0
O  O111  1  0.84535220  0.83468012  0.60911296  1  0  -0.778378  0  2.024381  0  0  -0.710178  0  2.294756  0  0  -0.734702  0  2.276889  0  0  -0.375018  -0.692669  0  2.306337  0
O  O112  1  0.86305309  0.03412761  0.48707519  1  0  -0.831235  0  1.878913  0  0  -0.767206  0  2.085521  0  0  -0.786804  0  2.051254  0  0  -0.583789  -0.753253  0  2.109831  0
O  O113  1  0.04721589  0.37195363  0.01189308  1  0  -0.830436  0  1.856338  0  0  -0.764767  0  2.057991  0  0  -0.784272  0  2.024059  0  0  -0.580237  -0.750867  0  2.081946  0
O  O114  1  0.13694537  0.96587264  0.51292661  1  0  -0.831213  0  1.878887  0  0  -0.767147  0  2.085535  0  0  -0.786758  0  2.051297  0  0  -0.583803  -0.753196  0  2.109847  0
O  O115  1  0.95278539  0.62804662  0.98810722  1  0  -0.830416  0  1.856353  0  0  -0.764788  0  2.057943  0  0  -0.784294  0  2.024008  0  0  -0.58025  -0.750887  0  2.0819  0
O  O116  1  0.52859196  0.55512182  0.37782581  1  0  -0.825731  0  1.850524  0  0  -0.763521  0  2.033095  0  0  -0.783871  0  2.001011  0  0  -0.577751  -0.749001  0  2.0556  0
O  O117  1  0.67700231  0.14778936  0.11603728  1  0  -0.826701  0  1.852111  0  0  -0.764405  0  2.035456  0  0  -0.784574  0  2.003465  0  0  -0.57615  -0.750008  0  2.057896  0
O  O118  1  0.47140595  0.44487737  0.62217399  1  0  -0.825734  0  1.850565  0  0  -0.763518  0  2.033159  0  0  -0.783868  0  2.00107  0  0  -0.577773  -0.748996  0  2.055663  0
O  O119  1  0.32300278  0.85221829  0.88396422  1  0  -0.826649  0  1.85204  0  0  -0.76436  0  2.035384  0  0  -0.784529  0  2.003391  0  0  -0.576094  -0.749941  0  2.057875  0
