# generated using pymatgen
data_NiH10C8S2(N2O3)2
_symmetry_space_group_name_H-M   'P 1'
_cell_length_a   6.95001135
_cell_length_b   6.89680742
_cell_length_c   7.23550706
_cell_angle_alpha   90.45364672
_cell_angle_beta   103.91650111
_cell_angle_gamma   114.51001539
_symmetry_Int_Tables_number   1
_chemical_formula_structural   NiH10C8S2(N2O3)2
_chemical_formula_sum   'Ni1 H10 C8 S2 N4 O6'
_cell_volume   304.01805736
_cell_formula_units_Z   1
loop_
 _symmetry_equiv_pos_site_id
 _symmetry_equiv_pos_as_xyz
  1  'x, y, z'
loop_
 _atom_site_type_symbol
 _atom_site_label
 _atom_site_symmetry_multiplicity
 _atom_site_fract_x
 _atom_site_fract_y
 _atom_site_fract_z
 _atom_site_occupancy
 _atom_site_pbe_cm5_charge
 _atom_site_pbe_ddec_charge
 _atom_site_pbe_ddec_spin_density
 _atom_site_pbe_ddec_sum_bond_order
 _atom_site_pbe_magmom
Ni  Ni0  1  0.00000288  0.00000321  0.00000208  1  0.52475  0.81367  1.739358  2.31821  1.521
H  H1  1  0.91507106  0.03090388  0.59105909  1  0.306138  0.285629  -4.8e-05  1.016557  0.0
H  H2  1  0.08493090  0.96910283  0.40894014  1  0.306145  0.285666  -4.7e-05  1.0164  0.0
H  H3  1  0.56272925  0.38135392  0.60160424  1  0.308242  0.297497  0.000381  0.978459  0.0
H  H4  1  0.43726259  0.61864311  0.39839672  1  0.308281  0.297636  0.00038  0.978551  0.0
H  H5  1  0.83286705  0.39866733  0.13412019  1  0.103935  0.170396  5.4e-05  1.039019  0.0
H  H6  1  0.16712775  0.60132973  0.86587591  1  0.103922  0.170421  5.4e-05  1.039104  0.0
H  H7  1  0.70319524  0.66287282  0.12183381  1  0.293404  0.387209  0.000801  0.948851  0.001
H  H8  1  0.29680970  0.33713388  0.87817163  1  0.293394  0.387184  0.000801  0.948889  0.001
H  H9  1  0.64318735  0.63509009  0.89305053  1  0.293992  0.382068  0.000571  0.955547  0.001
H  H10  1  0.35682274  0.36491822  0.10695748  1  0.293966  0.382022  0.000571  0.955613  0.001
C  C11  1  0.74084463  0.19944633  0.62063459  1  0.247569  0.411151  0.000764  4.086369  -0.002
C  C12  1  0.25913514  0.80055707  0.37936094  1  0.247734  0.411338  0.00076  4.08603  -0.002
C  C13  1  0.68339004  0.40537234  0.36125343  1  0.211994  0.526217  0.000724  4.139442  0.001
C  C14  1  0.31659891  0.59462148  0.63874544  1  0.212008  0.526524  0.000724  4.139607  0.001
C  C15  1  0.80818880  0.34290915  0.26992034  1  -0.148469  -0.486575  0.002329  3.945447  0.003
C  C16  1  0.19180863  0.65707348  0.73008171  1  -0.148564  -0.486798  0.002332  3.945339  0.003
C  C17  1  0.88719323  0.19711270  0.34765875  1  0.217135  0.551495  0.001827  4.103893  0.002
C  C18  1  0.11278486  0.80289712  0.65233094  1  0.217211  0.551359  0.001826  4.104243  0.002
S  S19  1  0.70675222  0.11709313  0.83426501  1  -0.131099  -0.339342  0.058204  2.356061  0.074
S  S20  1  0.29325429  0.88291038  0.16573936  1  -0.131135  -0.339359  0.058213  2.355959  0.074
N  N21  1  0.85142371  0.13471991  0.52332529  1  -0.387173  -0.387003  0.003828  3.559433  0.006
N  N22  1  0.14858900  0.86527403  0.47667623  1  -0.387235  -0.386921  0.003827  3.559896  0.006
N  N23  1  0.65415124  0.33043734  0.53474229  1  -0.379249  -0.375617  0.003306  3.554027  0.004
N  N24  1  0.34585569  0.66955019  0.46525369  1  -0.379411  -0.376177  0.003308  3.55377  0.004
O  O25  1  0.59132130  0.52837730  0.29529232  1  -0.309436  -0.542186  0.002656  2.211268  0.004
O  O26  1  0.40867690  0.47163099  0.70470608  1  -0.309495  -0.542268  0.002657  2.21135  0.004
O  O27  1  0.99290405  0.11505563  0.27616758  1  -0.307125  -0.521177  0.026635  2.339418  0.042
O  O28  1  0.00710498  0.88493671  0.72382893  1  -0.307097  -0.520993  0.026613  2.340002  0.042
O  O29  1  0.76597120  0.70393507  0.00985574  1  -0.58217  -0.76655  0.028295  2.285338  0.044
O  O30  1  0.23403601  0.29607004  0.99014881  1  -0.582157  -0.766518  0.028295  2.285439  0.044
