# generated using pymatgen
data_AlH24C33N7O6
_symmetry_space_group_name_H-M   'P 1'
_cell_length_a   3.92965014
_cell_length_b   18.13224512
_cell_length_c   18.05483020
_cell_angle_alpha   120.62914786
_cell_angle_beta   100.36944217
_cell_angle_gamma   93.63887012
_symmetry_Int_Tables_number   1
_chemical_formula_structural   AlH24C33N7O6
_chemical_formula_sum   'Al1 H24 C33 N7 O6'
_cell_volume   1070.44960040
_cell_formula_units_Z   1
loop_
 _symmetry_equiv_pos_site_id
 _symmetry_equiv_pos_as_xyz
  1  'x, y, z'
loop_
 _atom_site_type_symbol
 _atom_site_label
 _atom_site_symmetry_multiplicity
 _atom_site_fract_x
 _atom_site_fract_y
 _atom_site_fract_z
 _atom_site_occupancy
 _atom_site_pbe_bader_charge
 _atom_site_pbe_bader_spin_density
 _atom_site_pbe_cm5_charge
 _atom_site_pbe_ddec_charge
 _atom_site_pbe_ddec_spin_density
 _atom_site_pbe_ddec_sum_bond_order
 _atom_site_pbe_magmom
Al  Al0  1  0.01773590  0.00129156  0.50010917  1  2.504085  0  0.426186  1.580291  0  2.584323  0
H  H1  1  0.38121481  0.30920039  0.41052485  1  0.105254  0  0.1052  0.112784  0  1.011223  0
H  H2  1  0.64582041  0.08664294  0.90256679  1  0.085125  0  0.106847  0.115914  0  1.009139  0
H  H3  1  0.39869212  0.59934327  0.17670710  1  0.093832  0  0.107752  0.116167  0  1.006765  0
H  H4  1  0.72872506  0.32738497  0.91010032  1  0.135557  0  0.107722  0.117413  0  1.003786  0
H  H5  1  0.33851096  0.59703060  0.40996380  1  0.082727  0  0.105942  0.114446  0  1.010684  0
H  H6  1  0.54396803  0.08064821  0.18291859  1  0.11507  0  0.106325  0.114247  0  1.01268  0
H  H7  1  0.29230994  0.92923648  0.22726417  1  0.040969  0  0.091903  0.129393  0  1.012106  0
H  H8  1  0.73821849  0.95991441  0.28763807  1  0.075007  0  0.09432  0.137398  0  1.03565  0
H  H9  1  0.62561667  0.95386995  0.18442738  1  0.018978  0  0.093561  0.132388  0  0.990366  0
H  H10  1  0.64654996  0.26292850  0.56566221  1  0.046496  0  0.092331  0.131039  0  1.010293  0
H  H11  1  0.20902424  0.20601352  0.53033359  1  0.071063  0  0.093887  0.137358  0  1.031892  0
H  H12  1  0.29248961  0.30671366  0.53595298  1  0.025479  0  0.093323  0.132144  0  0.990662  0
H  H13  1  0.33037316  0.71924176  0.54036850  1  0.03813  0  0.093587  0.131085  0  0.991031  0
H  H14  1  0.09229135  0.79524380  0.52985395  1  0.061454  0  0.093216  0.135434  0  1.021923  0
H  H15  1  0.55439889  0.82007002  0.56418128  1  0.05838  0  0.093412  0.130762  0  1.02145  0
H  H16  1  0.66141326  0.79787558  0.24820421  1  0.058842  0  0.094895  0.137274  0  1.010789  0
H  H17  1  0.24066836  0.82151286  0.26035328  1  0.052555  0  0.092352  0.127865  0  1.028251  0
H  H18  1  0.28304796  0.72082580  0.16784288  1  0.033181  0  0.093172  0.129286  0  0.990333  0
H  H19  1  0.48344834  0.26526250  0.70567316  1  0.059319  0  0.094263  0.133678  0  1.013389  0
H  H20  1  0.89212752  0.23539289  0.68728057  1  0.027131  0  0.093751  0.131958  0  1.01308  0
H  H21  1  0.87622731  0.33162828  0.78801756  1  0.022819  0  0.094813  0.131893  0  0.988633  0
H  H22  1  0.89437418  0.95871984  0.71177100  1  0.038184  0  0.094125  0.136669  0  1.013114  0
H  H23  1  0.44062065  0.94539259  0.66767708  1  0.035194  0  0.095281  0.133804  0  1.024155  0
H  H24  1  0.58733823  0.95288108  0.77097222  1  0.035692  0  0.09357  0.13059  0  0.99178  0
C  C25  1  0.48120322  0.06429980  0.42996103  1  1.568923  0  0.284304  0.679715  0  4.023729  0
C  C26  1  0.64399460  0.07287396  0.63776222  1  1.591345  0  0.282447  0.671342  0  4.036669  0
C  C27  1  0.42336011  0.86589896  0.43148295  1  1.573634  0  0.278897  0.666171  0  4.031597  0
C  C28  1  0.41746054  0.24155804  0.37886346  1  -0.056565  0  -0.079066  -0.160643  0  3.917239  0
C  C29  1  0.46256571  0.19945230  0.29213533  1  -0.035594  0  -0.006455  0.015087  0  4.006401  0
C  C30  1  0.66877602  0.12098565  0.86821089  1  -0.015109  0  -0.08056  -0.163213  0  3.916672  0
C  C31  1  0.67964354  0.21124066  0.91485762  1  -0.0086  0  -0.005819  0.019878  0  4.004812  0
C  C32  1  0.37913403  0.58948502  0.28940792  1  0.031224  0  -0.002043  0.028816  0  3.999299  0
C  C33  1  0.38716792  0.63496520  0.24604645  1  -0.091615  0  -0.078943  -0.161615  0  3.915297  0
C  C34  1  0.71249269  0.25692325  0.87229468  1  -0.085121  0  -0.079774  -0.161628  0  3.914475  0
C  C35  1  0.71705583  0.21326931  0.78292514  1  -0.016644  0  0.001464  0.163371  0  3.952094  0
C  C36  1  0.69171150  0.12179844  0.73614892  1  0.00458  0  -0.004032  -0.147466  0  3.848723  0
C  C37  1  0.67582078  0.07514392  0.77897074  1  0.023391  0  0.000385  0.163365  0  3.958158  0
C  C38  1  0.38668892  0.72420000  0.29032143  1  0.137821  0  0.003202  0.166799  0  3.942413  0
C  C39  1  0.37708276  0.76886781  0.38091968  1  -0.124889  0  -0.005488  -0.155503  0  3.838501  0
C  C40  1  0.34747225  0.72280028  0.42424229  1  0.07281  0  0.003509  0.16836  0  3.945285  0
C  C41  1  0.35082992  0.63354602  0.37747039  1  -0.0699  0  -0.081478  -0.167372  0  3.914397  0
C  C42  1  0.50540064  0.11220777  0.24998089  1  0.050343  0  -0.07912  -0.160703  0  3.922428  0
C  C43  1  0.50257534  0.06637519  0.29274064  1  0.013658  0  -0.000693  0.157931  0  3.96639  0
C  C44  1  0.46394919  0.11063241  0.38065229  1  -0.087196  0  -0.001634  -0.142411  0  3.841233  0
C  C45  1  0.42240376  0.19857791  0.42466889  1  0.028173  0  -0.001397  0.157987  0  3.962986  0
C  C46  1  0.42173269  0.37304658  0.24818777  1  1.512869  0  0.356109  0.509229  0  4.084379  0
C  C47  1  0.56756070  0.24728809  0.12497569  1  1.538054  0  0.357248  0.509231  0  4.087483  0
C  C48  1  0.47137716  0.24678976  0.24611873  1  1.094161  0  0.265065  0.40476  0  4.019289  0
C  C49  1  0.41161994  0.49686849  0.24355471  1  1.075797  0  0.259768  0.392164  0  4.032648  0
C  C50  1  0.53398021  0.38029925  0.12327589  1  1.510732  0  0.356188  0.50323  0  4.091072  0
C  C51  1  0.63873509  0.25662937  0.00653284  1  1.092587  0  0.25571  0.385601  0  4.040869  0
C  C52  1  0.54255240  0.97230399  0.24555191  1  -0.061714  0  -0.241856  -0.422061  0  3.954427  0
C  C53  1  0.38979617  0.24602289  0.51917504  1  -0.070895  0  -0.241164  -0.422423  0  3.952434  0
C  C54  1  0.33006720  0.76661666  0.51974287  1  -0.081404  0  -0.240532  -0.418079  0  3.963914  0
C  C55  1  0.39190357  0.76856236  0.23902012  1  -0.061551  0  -0.23874  -0.412686  0  3.960258  0
C  C56  1  0.74506361  0.26403169  0.73864477  1  -0.024251  0  -0.237664  -0.413327  0  3.957143  0
C  C57  1  0.64777760  0.97776926  0.72982212  1  -0.050291  0  -0.239882  -0.421369  0  3.961685  0
N  N58  1  0.50770307  0.33360809  0.16545837  1  -1.192089  0  -0.192834  -0.240571  0  3.559619  0
N  N59  1  0.55410179  0.20504233  0.16705999  1  -1.218908  0  -0.317514  -0.443348  0  3.222662  0
N  N60  1  0.39815720  0.32804930  0.28724679  1  -1.17316  0  -0.321277  -0.449333  0  3.214973  0
N  N61  1  0.36449933  0.45489262  0.28566098  1  -1.184058  0  -0.324214  -0.454836  0  3.21388  0
N  N62  1  0.49217451  0.46318672  0.16440973  1  -1.184353  0  -0.317724  -0.442034  0  3.223319  0
N  N63  1  0.63729914  0.20975197  0.04516870  1  -1.210408  0  -0.323525  -0.45156  0  3.220698  0
N  N64  1  0.59911726  0.34051294  0.04300266  1  -1.190341  0  -0.320064  -0.445525  0  3.220324  0
O  O65  1  0.24188757  0.90522592  0.48757198  1  -1.252536  0  -0.232314  -0.591448  0  2.37887  0
O  O66  1  0.21394014  0.00947767  0.41281951  1  -1.249795  0  -0.229371  -0.585751  0  2.370718  0
O  O67  1  0.38891095  0.08702601  0.59438790  1  -1.266677  0  -0.236824  -0.608182  0  2.407047  0
O  O68  1  0.65359546  0.90604742  0.41613943  1  -1.272978  0  -0.234382  -0.606482  0  2.430333  0
O  O69  1  0.84506896  0.01968605  0.60147209  1  -1.251075  0  -0.228449  -0.581417  0  2.355683  0
O  O70  1  0.76797584  0.08304569  0.48721473  1  -1.252905  0  -0.231204  -0.593333  0  2.38673  0
