# generated using pymatgen
data_Ag2H13C12N5O4
_symmetry_space_group_name_H-M   'P 1'
_cell_length_a   8.89875013
_cell_length_b   11.47618569
_cell_length_c   13.91869357
_cell_angle_alpha   90.00002945
_cell_angle_beta   90.00006107
_cell_angle_gamma   103.91886059
_symmetry_Int_Tables_number   1
_chemical_formula_structural   Ag2H13C12N5O4
_chemical_formula_sum   'Ag8 H52 C48 N20 O16'
_cell_volume   1379.69170046
_cell_formula_units_Z   4
loop_
 _symmetry_equiv_pos_site_id
 _symmetry_equiv_pos_as_xyz
  1  'x, y, z'
loop_
 _atom_site_type_symbol
 _atom_site_label
 _atom_site_symmetry_multiplicity
 _atom_site_fract_x
 _atom_site_fract_y
 _atom_site_fract_z
 _atom_site_occupancy
 _atom_site_hle17_bader_spin_density
 _atom_site_hle17_ddec_charge
 _atom_site_hle17_ddec_spin_density
 _atom_site_hle17_ddec_sum_bond_order
 _atom_site_hle17_magmom
 _atom_site_hse06_10hf_bader_spin_density
 _atom_site_hse06_10hf_ddec_charge
 _atom_site_hse06_10hf_ddec_spin_density
 _atom_site_hse06_10hf_ddec_sum_bond_order
 _atom_site_hse06_10hf_magmom
 _atom_site_hse06_bader_spin_density
 _atom_site_hse06_ddec_charge
 _atom_site_hse06_ddec_spin_density
 _atom_site_hse06_ddec_sum_bond_order
 _atom_site_hse06_magmom
 _atom_site_pbe_bader_spin_density
 _atom_site_pbe_cm5_charge
 _atom_site_pbe_ddec_charge
 _atom_site_pbe_ddec_spin_density
 _atom_site_pbe_ddec_sum_bond_order
 _atom_site_pbe_magmom
Ag  Ag0  1  0.59800118  0.48404933  0.90877453  1  0  0.45322  0  1.638826  0  0  0.317951  0  2.115646  0  0  0.344531  0  2.067295  0  0  0.453402  0.300648  0  2.149617  0
Ag  Ag1  1  0.40199640  0.01595226  0.40877486  1  0  0.453213  0  1.638839  0  0  0.317918  0  2.115737  0  0  0.344528  0  2.067333  0  0  0.453398  0.300611  0  2.149705  0
Ag  Ag2  1  0.40199856  0.51595470  0.09122504  1  0  0.45319  0  1.638806  0  0  0.317938  0  2.115629  0  0  0.344517  0  2.067279  0  0  0.45341  0.300635  0  2.149597  0
Ag  Ag3  1  0.59800138  0.98404548  0.59122472  1  0  0.453157  0  1.638887  0  0  0.317906  0  2.115713  0  0  0.344478  0  2.067373  0  0  0.453406  0.300602  0  2.149683  0
Ag  Ag4  1  0.13463245  0.51413525  0.20931721  1  0  0.500288  0  1.522591  0  0  0.364732  0  1.977734  0  0  0.396444  0  1.92732  0  0  0.454979  0.341829  0  2.013645  0
Ag  Ag5  1  0.86536604  0.98586686  0.70931564  1  0  0.500325  0  1.522584  0  0  0.364776  0  1.97772  0  0  0.396488  0  1.927305  0  0  0.454996  0.34187  0  2.013638  0
Ag  Ag6  1  0.86536617  0.48586519  0.79068452  1  0  0.500314  0  1.522582  0  0  0.364773  0  1.977712  0  0  0.396485  0  1.927302  0  0  0.455  0.341866  0  2.013629  0
Ag  Ag7  1  0.13463370  0.01413358  0.29068322  1  0  0.500322  0  1.522566  0  0  0.36477  0  1.977707  0  0  0.396479  0  1.927292  0  0  0.455002  0.341866  0  2.013622  0
H  H8  1  0.87072144  0.11660414  0.04039779  1  0  0.380098  0  0.938108  0  0  0.348086  0  1.018702  0  0  0.361241  0  1.002675  0  0  0.286224  0.338966  0  1.027051  0
H  H9  1  0.12928131  0.38339797  0.54039783  1  0  0.380097  0  0.938119  0  0  0.348089  0  1.018704  0  0  0.361245  0  1.002675  0  0  0.286204  0.338968  0  1.027054  0
H  H10  1  0.12927887  0.88339809  0.95960179  1  0  0.380135  0  0.938039  0  0  0.348129  0  1.018618  0  0  0.361284  0  1.002611  0  0  0.286235  0.339007  0  1.026973  0
H  H11  1  0.87072236  0.61660066  0.45960247  1  0  0.380154  0  0.938021  0  0  0.348147  0  1.018602  0  0  0.361303  0  1.002587  0  0  0.286235  0.339025  0  1.026956  0
H  H12  1  0.27466008  0.53845987  0.38125366  1  0  0.293101  0  0.926679  0  0  0.281726  0  0.982269  0  0  0.28836  0  0.978282  0  0  0.28227  0.276948  0  0.985252  0
H  H13  1  0.72533903  0.96153970  0.88125413  1  0  0.293062  0  0.92673  0  0  0.281694  0  0.982315  0  0  0.288328  0  0.978326  0  0  0.282254  0.276916  0  0.985296  0
H  H14  1  0.72533939  0.46153967  0.61874735  1  0  0.293116  0  0.926667  0  0  0.281748  0  0.982249  0  0  0.288382  0  0.97826  0  0  0.282278  0.276971  0  0.985229  0
H  H15  1  0.27465874  0.03846163  0.11874616  1  0  0.293041  0  0.926724  0  0  0.281668  0  0.982321  0  0  0.288301  0  0.978336  0  0  0.282264  0.276892  0  0.9853  0
H  H16  1  0.23837937  0.66586863  0.33853343  1  0  0.289785  0  0.952722  0  0  0.277366  0  1.011055  0  0  0.284078  0  1.007123  0  0  0.278862  0.272651  0  1.01384  0
H  H17  1  0.76161994  0.83413180  0.83853316  1  0  0.289792  0  0.952717  0  0  0.277373  0  1.011053  0  0  0.284085  0  1.00712  0  0  0.278878  0.272659  0  1.013837  0
H  H18  1  0.76161897  0.33413091  0.66146686  1  0  0.289807  0  0.952697  0  0  0.277388  0  1.011026  0  0  0.284099  0  1.007095  0  0  0.278892  0.272674  0  1.013814  0
H  H19  1  0.23837896  0.16586954  0.16146786  1  0  0.289757  0  0.952749  0  0  0.27734  0  1.011087  0  0  0.284053  0  1.007154  0  0  0.27886  0.272626  0  1.013874  0
H  H20  1  0.40245874  0.39160738  0.25837720  1  0  0.303568  0  0.90882  0  0  0.295627  0  0.96211  0  0  0.301691  0  0.958131  0  0  0.290835  0.291189  0  0.965131  0
H  H21  1  0.59754023  0.10839226  0.75837815  1  0  0.303522  0  0.90883  0  0  0.295578  0  0.96213  0  0  0.301642  0  0.958152  0  0  0.290808  0.291139  0  0.965151  0
H  H22  1  0.59753904  0.60839396  0.74162238  1  0  0.303573  0  0.908827  0  0  0.295634  0  0.962111  0  0  0.301697  0  0.958134  0  0  0.290843  0.291196  0  0.965131  0
H  H23  1  0.40245895  0.89160638  0.24162214  1  0  0.303572  0  0.908798  0  0  0.29563  0  0.96209  0  0  0.301693  0  0.958113  0  0  0.290837  0.291191  0  0.965109  0
H  H24  1  0.57406729  0.41399898  0.21061631  1  0  0.277796  0  0.899037  0  0  0.278208  0  0.941722  0  0  0.281699  0  0.941886  0  0  0.295291  0.275816  0  0.941399  0
H  H25  1  0.42593103  0.08599882  0.71061643  1  0  0.277787  0  0.89905  0  0  0.278193  0  0.94174  0  0  0.281685  0  0.941903  0  0  0.29529  0.275802  0  0.941416  0
H  H26  1  0.42593021  0.58600146  0.78938254  1  0  0.277773  0  0.899042  0  0  0.278169  0  0.941754  0  0  0.28166  0  0.941918  0  0  0.295279  0.275779  0  0.941426  0
H  H27  1  0.57406816  0.91399982  0.28938387  1  0  0.277803  0  0.899022  0  0  0.278211  0  0.941714  0  0  0.281701  0  0.941879  0  0  0.295287  0.275818  0  0.941389  0
H  H28  1  0.57032674  0.76532164  0.00533419  1  0  0.072626  0  0.952624  0  0  0.079124  0  1.020108  0  0  0.08177  0  1.01764  0  0  0.11049  0.077317  0  1.021724  0
H  H29  1  0.42967246  0.73468025  0.50533796  1  0  0.07262  0  0.95268  0  0  0.079149  0  1.020106  0  0  0.081796  0  1.017636  0  0  0.110496  0.077342  0  1.021719  0
H  H30  1  0.42967328  0.23467969  0.99466395  1  0  0.072646  0  0.952626  0  0  0.079136  0  1.020104  0  0  0.081783  0  1.017635  0  0  0.110504  0.077332  0  1.021716  0
H  H31  1  0.57032672  0.26531480  0.49466665  1  0  0.072664  0  0.95256  0  0  0.079129  0  1.020071  0  0  0.081774  0  1.017607  0  0  0.110495  0.077321  0  1.021689  0
H  H32  1  0.74999737  0.93216360  0.09356096  1  0  0.109624  0  0.968236  0  0  0.119107  0  1.028832  0  0  0.122833  0  1.02699  0  0  0.108622  0.116334  0  1.030335  0
H  H33  1  0.24999864  0.56783839  0.59356238  1  0  0.109612  0  0.968329  0  0  0.119119  0  1.028908  0  0  0.12282  0  1.027099  0  0  0.108612  0.116345  0  1.030414  0
H  H34  1  0.25000096  0.06783954  0.90643718  1  0  0.109584  0  0.968379  0  0  0.1191  0  1.028942  0  0  0.122816  0  1.027114  0  0  0.108612  0.116327  0  1.030448  0
H  H35  1  0.74999578  0.43215577  0.40644079  1  0  0.109655  0  0.968314  0  0  0.119182  0  1.028884  0  0  0.122905  0  1.027046  0  0  0.108641  0.116409  0  1.030389  0
H  H36  1  0.97251316  0.88497858  0.18420387  1  0  0.07081  0  1.011096  0  0  0.076859  0  1.094005  0  0  0.081568  0  1.086914  0  0  0.083945  0.073338  0  1.099193  0
H  H37  1  0.02748331  0.61502440  0.68420372  1  0  0.070817  0  1.011099  0  0  0.076872  0  1.093997  0  0  0.081579  0  1.086912  0  0  0.083952  0.073355  0  1.099172  0
H  H38  1  0.02748770  0.11502545  0.81579355  1  0  0.070785  0  1.01109  0  0  0.076835  0  1.09402  0  0  0.081546  0  1.086928  0  0  0.083926  0.073331  0  1.09918  0
H  H39  1  0.97250857  0.38497245  0.31579657  1  0  0.070812  0  1.011122  0  0  0.076869  0  1.094033  0  0  0.081584  0  1.086935  0  0  0.083952  0.073342  0  1.099209  0
H  H40  1  0.01166776  0.67804149  0.17835956  1  0  0.092685  0  1.008486  0  0  0.097023  0  1.090703  0  0  0.101605  0  1.086123  0  0  0.089425  0.094029  0  1.093165  0
H  H41  1  0.98833123  0.82196238  0.67836087  1  0  0.092719  0  1.008448  0  0  0.097052  0  1.090672  0  0  0.101643  0  1.086073  0  0  0.089431  0.094057  0  1.093136  0
H  H42  1  0.98833563  0.32196344  0.82163642  1  0  0.092724  0  1.008412  0  0  0.097045  0  1.090663  0  0  0.101642  0  1.086063  0  0  0.08943  0.094051  0  1.093128  0
H  H43  1  0.01166992  0.17803536  0.32163799  1  0  0.092648  0  1.008461  0  0  0.096999  0  1.090683  0  0  0.101592  0  1.086078  0  0  0.089409  0.094005  0  1.093148  0
H  H44  1  0.50952670  0.71021573  0.35996370  1  0  0.040846  0  0.938678  0  0  0.061163  0  1.001994  0  0  0.06009  0  1.003477  0  0  0.092913  0.061944  0  1.000909  0
H  H45  1  0.49047320  0.78978293  0.85996395  1  0  0.040862  0  0.938674  0  0  0.061173  0  1.001986  0  0  0.060101  0  1.003467  0  0  0.092914  0.061953  0  1.000902  0
H  H46  1  0.49047248  0.28978292  0.64003875  1  0  0.04086  0  0.93868  0  0  0.061186  0  1.001972  0  0  0.06012  0  1.003454  0  0  0.092926  0.061965  0  1.000891  0
H  H47  1  0.50952514  0.21021661  0.14003779  1  0  0.04087  0  0.938698  0  0  0.061172  0  1.002016  0  0  0.060099  0  1.0035  0  0  0.092935  0.061953  0  1.000933  0
H  H48  1  0.46619889  0.69356002  0.23474719  1  0  0.062904  0  0.971931  0  0  0.08067  0  1.039503  0  0  0.081491  0  1.03852  0  0  0.097715  0.07987  0  1.040527  0
H  H49  1  0.53379965  0.80643851  0.73474675  1  0  0.062912  0  0.971921  0  0  0.080662  0  1.039495  0  0  0.081482  0  1.038511  0  0  0.097712  0.079862  0  1.040521  0
H  H50  1  0.53380001  0.30644131  0.76525454  1  0  0.062914  0  0.971884  0  0  0.080664  0  1.039473  0  0  0.081486  0  1.038491  0  0  0.097707  0.079871  0  1.040477  0
H  H51  1  0.46619729  0.19356013  0.26525426  1  0  0.062896  0  0.971953  0  0  0.080655  0  1.039523  0  0  0.081473  0  1.03854  0  0  0.097704  0.079861  0  1.040533  0
H  H52  1  0.66859267  0.59349316  0.28328915  1  0  0.057715  0  0.931441  0  0  0.078526  0  0.991281  0  0  0.07728  0  0.994038  0  0  0.101841  0.079555  0  0.989126  0
H  H53  1  0.33140624  0.90650632  0.78329077  1  0  0.057734  0  0.931472  0  0  0.078533  0  0.991318  0  0  0.077288  0  0.994077  0  0  0.101845  0.079565  0  0.989164  0
H  H54  1  0.33140595  0.40650728  0.71671042  1  0  0.057722  0  0.931462  0  0  0.078526  0  0.99131  0  0  0.077279  0  0.994064  0  0  0.101845  0.079558  0  0.989158  0
H  H55  1  0.66859097  0.09349322  0.21671096  1  0  0.057697  0  0.931464  0  0  0.078504  0  0.991313  0  0  0.077259  0  0.99407  0  0  0.101832  0.079533  0  0.989159  0
H  H56  1  0.54477503  0.50674268  0.37101356  1  0  0.057619  0  0.937539  0  0  0.074083  0  1.002751  0  0  0.07459  0  1.002259  0  0  0.100489  0.073608  0  1.003254  0
H  H57  1  0.45522630  0.99325689  0.87101458  1  0  0.057632  0  0.937534  0  0  0.074077  0  1.002758  0  0  0.074592  0  1.002261  0  0  0.100491  0.073606  0  1.003265  0
H  H58  1  0.45522556  0.49325686  0.62898530  1  0  0.057622  0  0.937538  0  0  0.074069  0  1.00277  0  0  0.07458  0  1.002267  0  0  0.100488  0.073598  0  1.003276  0
H  H59  1  0.54477231  0.00674355  0.12898643  1  0  0.057618  0  0.937551  0  0  0.07409  0  1.002746  0  0  0.074597  0  1.002255  0  0  0.100508  0.073616  0  1.00325  0
C  C60  1  0.67049316  0.74997197  0.04365678  1  0  0.141058  0  3.720907  0  0  0.110798  0  3.979379  0  0  0.118398  0  3.994093  0  0  0.041528  0.105274  0  3.970418  0
C  C61  1  0.32950836  0.75002996  0.54366049  1  0  0.14093  0  3.720975  0  0  0.110666  0  3.979411  0  0  0.118267  0  3.99412  0  0  0.041429  0.10515  0  3.970444  0
C  C62  1  0.32950798  0.25002937  0.95633992  1  0  0.140984  0  3.720901  0  0  0.110742  0  3.97935  0  0  0.118345  0  3.994058  0  0  0.041473  0.105224  0  3.97039  0
C  C63  1  0.67049082  0.24996509  0.45634340  1  0  0.141076  0  3.720909  0  0  0.110862  0  3.979369  0  0  0.118463  0  3.994082  0  0  0.041538  0.105343  0  3.970407  0
C  C64  1  0.76878678  0.84205106  0.09426360  1  0  -0.106079  0  3.688621  0  0  -0.119481  0  3.934285  0  0  -0.124006  0  3.952192  0  0  -0.085235  -0.11692  0  3.922714  0
C  C65  1  0.23121120  0.65795003  0.59426576  1  0  -0.105997  0  3.688556  0  0  -0.11943  0  3.934214  0  0  -0.123935  0  3.952132  0  0  -0.085196  -0.116872  0  3.922649  0
C  C66  1  0.23121353  0.15795118  0.90573311  1  0  -0.106014  0  3.688601  0  0  -0.119447  0  3.934253  0  0  -0.123963  0  3.952161  0  0  -0.085212  -0.116889  0  3.922693  0
C  C67  1  0.76878546  0.34204412  0.40573597  1  0  -0.106192  0  3.688724  0  0  -0.119655  0  3.934379  0  0  -0.124177  0  3.952286  0  0  -0.085293  -0.117098  0  3.922814  0
C  C68  1  0.89189849  0.81511821  0.14406716  1  0  0.014885  0  3.713467  0  0  -0.003093  0  3.959185  0  0  0.0001  0  3.977283  0  0  -0.071979  -0.004713  0  3.94669  0
C  C69  1  0.10809958  0.68488652  0.64406997  1  0  0.014804  0  3.713412  0  0  -0.003183  0  3.959152  0  0  8e-06  0  3.977243  0  0  -0.072022  -0.004804  0  3.946664  0
C  C70  1  0.10810265  0.18488672  0.85592883  1  0  0.014871  0  3.713312  0  0  -0.003112  0  3.959042  0  0  7.6e-05  0  3.977135  0  0  -0.071979  -0.004742  0  3.946551  0
C  C71  1  0.89189567  0.31511033  0.35593176  1  0  0.014906  0  3.713368  0  0  -0.00307  0  3.959095  0  0  0.000117  0  3.97719  0  0  -0.071976  -0.00468  0  3.946621  0
C  C72  1  0.91402341  0.69935232  0.14070260  1  0  -0.143581  0  3.707762  0  0  -0.162778  0  3.954918  0  0  -0.17067  0  3.97753  0  0  -0.088157  -0.157495  0  3.939335  0
C  C73  1  0.08597634  0.80065061  0.64070544  1  0  -0.143584  0  3.707687  0  0  -0.162803  0  3.954825  0  0  -0.1707  0  3.977444  0  0  -0.088159  -0.157522  0  3.939245  0
C  C74  1  0.08598110  0.30065260  0.85929338  1  0  -0.143568  0  3.707667  0  0  -0.162745  0  3.954813  0  0  -0.170667  0  3.977461  0  0  -0.088156  -0.157463  0  3.939234  0
C  C75  1  0.91402116  0.19934624  0.35929700  1  0  -0.143476  0  3.707575  0  0  -0.162695  0  3.954724  0  0  -0.170607  0  3.977379  0  0  -0.088125  -0.157414  0  3.939141  0
C  C76  1  0.81209989  0.61216293  0.08622401  1  0  0.156752  0  3.783234  0  0  0.155954  0  4.023915  0  0  0.162307  0  4.043585  0  0  0.110106  0.150831  0  4.011405  0
C  C77  1  0.18790143  0.88784174  0.58622768  1  0  0.156812  0  3.783369  0  0  0.156074  0  4.023916  0  0  0.162422  0  4.043586  0  0  0.110174  0.150952  0  4.011401  0
C  C78  1  0.18790462  0.38784199  0.91377197  1  0  0.156732  0  3.783208  0  0  0.155918  0  4.023913  0  0  0.162265  0  4.043578  0  0  0.110123  0.150798  0  4.011399  0
C  C79  1  0.81209944  0.11215511  0.41377405  1  0  0.156637  0  3.783148  0  0  0.155852  0  4.023816  0  0  0.162198  0  4.043483  0  0  0.110044  0.150732  0  4.011302  0
C  C80  1  0.83129121  0.48980156  0.07330827  1  0  0.273812  0  3.762972  0  0  0.24547  0  4.027204  0  0  0.256681  0  4.045237  0  0  0.195996  0.23785  0  4.015038  0
C  C81  1  0.16870851  0.01020149  0.57331033  1  0  0.273589  0  3.763291  0  0  0.245334  0  4.027384  0  0  0.256553  0  4.045407  0  0  0.195862  0.237714  0  4.015216  0
C  C82  1  0.16871190  0.51020247  0.92668987  1  0  0.273699  0  3.763129  0  0  0.245415  0  4.027306  0  0  0.256641  0  4.045319  0  0  0.195894  0.237794  0  4.015139  0
C  C83  1  0.83129123  0.98979536  0.42669140  1  0  0.273666  0  3.763279  0  0  0.24543  0  4.027371  0  0  0.256652  0  4.045391  0  0  0.195938  0.237808  0  4.015204  0
C  C84  1  0.91165987  0.32592382  0.08439695  1  0  -0.034069  0  3.776983  0  0  -0.035932  0  4.026403  0  0  -0.040709  0  4.05151  0  0  0.06526  -0.032771  0  4.009218  0
C  C85  1  0.08834240  0.17408013  0.58439543  1  0  -0.033981  0  3.777013  0  0  -0.035867  0  4.026461  0  0  -0.040641  0  4.051568  0  0  0.065255  -0.032707  0  4.009275  0
C  C86  1  0.08834436  0.67408020  0.91560263  1  0  -0.034045  0  3.776972  0  0  -0.035909  0  4.026437  0  0  -0.040687  0  4.051548  0  0  0.065243  -0.032754  0  4.009256  0
C  C87  1  0.91166156  0.82591941  0.41560558  1  0  -0.033989  0  3.777104  0  0  -0.035912  0  4.026602  0  0  -0.040692  0  4.051712  0  0  0.065296  -0.032748  0  4.009411  0
C  C88  1  0.79126306  0.30813110  0.01583300  1  0  -0.006935  0  3.760484  0  0  -0.015015  0  4.019118  0  0  -0.015866  0  4.040792  0  0  0.072089  -0.013574  0  4.003058  0
C  C89  1  0.20873739  0.19187099  0.51583229  1  0  -0.006988  0  3.760448  0  0  -0.01501  0  4.019071  0  0  -0.01587  0  4.040756  0  0  0.072136  -0.013569  0  4.003008  0
C  C90  1  0.20873865  0.69187203  0.98416586  1  0  -0.006868  0  3.760382  0  0  -0.014975  0  4.019118  0  0  -0.01583  0  4.040798  0  0  0.072164  -0.01353  0  4.003053  0
C  C91  1  0.79126881  0.80812854  0.48416872  1  0  -0.006812  0  3.760483  0  0  -0.014864  0  4.01918  0  0  -0.01571  0  4.040849  0  0  0.072204  -0.013424  0  4.003116  0
C  C92  1  0.00876477  0.24640511  0.11755778  1  0  0.626562  0  3.884784  0  0  0.575447  0  4.182515  0  0  0.608883  0  4.17554  0  0  0.214572  0.552586  0  4.187072  0
C  C93  1  0.99123616  0.25359798  0.61755691  1  0  0.626586  0  3.88477  0  0  0.575451  0  4.182535  0  0  0.608889  0  4.175557  0  0  0.214612  0.552593  0  4.187095  0
C  C94  1  0.99123693  0.75359802  0.88244179  1  0  0.626605  0  3.884785  0  0  0.575476  0  4.182546  0  0  0.608912  0  4.175574  0  0  0.214626  0.552618  0  4.187101  0
C  C95  1  0.00876667  0.74640156  0.38244266  1  0  0.626586  0  3.884779  0  0  0.575476  0  4.18252  0  0  0.60891  0  4.17555  0  0  0.214579  0.552615  0  4.187076  0
C  C96  1  0.72931012  0.20376477  0.95078780  1  0  0.618774  0  3.943156  0  0  0.571051  0  4.246484  0  0  0.603632  0  4.238685  0  0  0.202712  0.549305  0  4.24963  0
C  C97  1  0.27069203  0.29623686  0.45078815  1  0  0.618794  0  3.943087  0  0  0.571014  0  4.246449  0  0  0.603594  0  4.238655  0  0  0.202651  0.549268  0  4.249594  0
C  C98  1  0.27069243  0.79623746  0.04921106  1  0  0.618756  0  3.943114  0  0  0.571005  0  4.246483  0  0  0.603588  0  4.238684  0  0  0.202678  0.549258  0  4.249624  0
C  C99  1  0.72931192  0.70376267  0.54921358  1  0  0.61871  0  3.943045  0  0  0.570936  0  4.246433  0  0  0.603517  0  4.238632  0  0  0.202651  0.549191  0  4.249577  0
C  C100  1  0.45634316  0.64550221  0.30358625  1  0  0.046808  0  3.660855  0  0  -0.013  0  3.919256  0  0  -0.008776  0  3.933476  0  0  -0.083224  -0.01578  0  3.909299  0
C  C101  1  0.54365832  0.85449819  0.80358584  1  0  0.046748  0  3.660919  0  0  -0.01302  0  3.919265  0  0  -0.008795  0  3.933483  0  0  -0.08321  -0.015795  0  3.909311  0
C  C102  1  0.54365715  0.35450003  0.69641548  1  0  0.046771  0  3.660853  0  0  -0.012999  0  3.919182  0  0  -0.008796  0  3.93342  0  0  -0.083214  -0.015768  0  3.909236  0
C  C103  1  0.45634254  0.14550225  0.19641445  1  0  0.046737  0  3.660976  0  0  -0.013024  0  3.919321  0  0  -0.008797  0  3.933537  0  0  -0.083216  -0.015801  0  3.909369  0
C  C104  1  0.54756444  0.54961084  0.30001265  1  0  0.054113  0  3.646397  0  0  -0.004516  0  3.913552  0  0  -0.000512  0  3.927173  0  0  -0.077157  -0.007069  0  3.903592  0
C  C105  1  0.45243423  0.95038776  0.80001294  1  0  0.054093  0  3.646431  0  0  -0.004519  0  3.91354  0  0  -0.000521  0  3.927163  0  0  -0.077162  -0.007085  0  3.903598  0
C  C106  1  0.45243418  0.45038960  0.69998692  1  0  0.054079  0  3.646372  0  0  -0.004547  0  3.913521  0  0  -0.000525  0  3.927117  0  0  -0.077188  -0.007117  0  3.903583  0
C  C107  1  0.54756270  0.04961089  0.19998808  1  0  0.054183  0  3.646453  0  0  -0.004455  0  3.913592  0  0  -0.00045  0  3.927212  0  0  -0.077148  -0.007013  0  3.90364  0
N  N108  1  0.69034604  0.63798059  0.03954287  1  0  -0.361433  0  3.258922  0  0  -0.292447  0  3.527785  0  0  -0.30774  0  3.540004  0  0  -0.34135  -0.282425  0  3.520887  0
N  N109  1  0.30965492  0.86202313  0.53954661  1  0  -0.361362  0  3.259053  0  0  -0.292406  0  3.527894  0  0  -0.307701  0  3.54012  0  0  -0.341297  -0.282386  0  3.520995  0
N  N110  1  0.30965679  0.36202254  0.96045455  1  0  -0.361415  0  3.2589  0  0  -0.292426  0  3.527755  0  0  -0.307717  0  3.539972  0  0  -0.341304  -0.282406  0  3.52086  0
N  N111  1  0.69034567  0.13797281  0.46045584  1  0  -0.361399  0  3.258985  0  0  -0.292425  0  3.527834  0  0  -0.307719  0  3.540055  0  0  -0.341312  -0.282403  0  3.520933  0
N  N112  1  0.74292884  0.41225483  0.01016006  1  0  -0.404922  0  3.291835  0  0  -0.335046  0  3.583698  0  0  -0.354064  0  3.598289  0  0  -0.364094  -0.32194  0  3.573211  0
N  N113  1  0.25707217  0.08774546  0.51016149  1  0  -0.404824  0  3.291664  0  0  -0.335026  0  3.58353  0  0  -0.354047  0  3.598122  0  0  -0.364106  -0.321919  0  3.573039  0
N  N114  1  0.25707483  0.58774740  0.98983736  1  0  -0.404855  0  3.29168  0  0  -0.335032  0  3.583603  0  0  -0.354054  0  3.598192  0  0  -0.364129  -0.321925  0  3.573111  0
N  N115  1  0.74293011  0.91225228  0.48983952  1  0  -0.404909  0  3.291802  0  0  -0.335121  0  3.583702  0  0  -0.354145  0  3.598289  0  0  -0.36416  -0.322014  0  3.573213  0
N  N116  1  0.93650899  0.44122500  0.11863439  1  0  -0.391396  0  3.264485  0  0  -0.315523  0  3.545123  0  0  -0.336481  0  3.564201  0  0  -0.366375  -0.301415  0  3.532428  0
N  N117  1  0.06349167  0.05878079  0.61863568  1  0  -0.391367  0  3.264664  0  0  -0.315545  0  3.545314  0  0  -0.336507  0  3.564388  0  0  -0.366333  -0.30144  0  3.532623  0
N  N118  1  0.06349328  0.55877993  0.88136375  1  0  -0.391373  0  3.264521  0  0  -0.31551  0  3.545148  0  0  -0.336473  0  3.564221  0  0  -0.366319  -0.301401  0  3.532456  0
N  N119  1  0.93650695  0.94121965  0.38136605  1  0  -0.391402  0  3.264779  0  0  -0.315544  0  3.545405  0  0  -0.336507  0  3.564482  0  0  -0.366373  -0.301437  0  3.532708  0
N  N120  1  0.29020380  0.59647316  0.32349969  1  0  -0.605357  0  3.179411  0  0  -0.527218  0  3.428386  0  0  -0.551271  0  3.429568  0  0  -0.648985  -0.510283  0  3.427165  0
N  N121  1  0.70979660  0.90352725  0.82349941  1  0  -0.605308  0  3.179461  0  0  -0.52717  0  3.428398  0  0  -0.551223  0  3.429577  0  0  -0.648999  -0.510235  0  3.427176  0
N  N122  1  0.70979566  0.40352638  0.67650132  1  0  -0.605378  0  3.179433  0  0  -0.527278  0  3.42845  0  0  -0.551326  0  3.429636  0  0  -0.649027  -0.510345  0  3.42723  0
N  N123  1  0.29020202  0.09647319  0.17650160  1  0  -0.605222  0  3.179399  0  0  -0.527096  0  3.428354  0  0  -0.551152  0  3.42954  0  0  -0.648994  -0.510162  0  3.427132  0
N  N124  1  0.48847178  0.45641518  0.22642094  1  0  -0.591437  0  3.14958  0  0  -0.527458  0  3.40571  0  0  -0.548353  0  3.406872  0  0  -0.640507  -0.512417  0  3.40403  0
N  N125  1  0.51152713  0.04358443  0.72642109  1  0  -0.591356  0  3.149539  0  0  -0.527366  0  3.405641  0  0  -0.548264  0  3.406809  0  0  -0.640473  -0.512323  0  3.403968  0
N  N126  1  0.51152600  0.54358616  0.77357864  1  0  -0.591412  0  3.149513  0  0  -0.527422  0  3.405631  0  0  -0.548323  0  3.40679  0  0  -0.640497  -0.512377  0  3.403955  0
N  N127  1  0.48847121  0.95641511  0.27357920  1  0  -0.591475  0  3.149576  0  0  -0.527502  0  3.405721  0  0  -0.5484  0  3.406888  0  0  -0.640515  -0.512458  0  3.404034  0
O  O128  1  0.76031260  0.10221190  0.97401698  1  0  -0.61695  0  2.021931  0  0  -0.559508  0  2.242969  0  0  -0.58465  0  2.232169  0  0  -0.325036  -0.542166  0  2.2485  0
O  O129  1  0.23969129  0.39779155  0.47401807  1  0  -0.617044  0  2.021843  0  0  -0.559499  0  2.242805  0  0  -0.584639  0  2.232002  0  0  -0.324997  -0.542156  0  2.248332  0
O  O130  1  0.23968686  0.89779124  0.02598331  1  0  -0.617059  0  2.02185  0  0  -0.559521  0  2.242797  0  0  -0.584662  0  2.232003  0  0  -0.325057  -0.542179  0  2.248327  0
O  O131  1  0.76031379  0.60220798  0.52598366  1  0  -0.617015  0  2.021868  0  0  -0.559491  0  2.242846  0  0  -0.584633  0  2.232048  0  0  -0.325023  -0.54215  0  2.248379  0
O  O132  1  0.65314660  0.21810823  0.87809777  1  0  -0.59316  0  1.963818  0  0  -0.548499  0  2.201639  0  0  -0.570239  0  2.192144  0  0  -0.308886  -0.533515  0  2.206737  0
O  O133  1  0.34685654  0.28189333  0.37809816  1  0  -0.593142  0  1.963873  0  0  -0.548487  0  2.201731  0  0  -0.570227  0  2.192237  0  0  -0.308865  -0.533499  0  2.206828  0
O  O134  1  0.34685960  0.78189490  0.12190037  1  0  -0.59317  0  1.963922  0  0  -0.54851  0  2.201768  0  0  -0.570253  0  2.192276  0  0  -0.308872  -0.533521  0  2.206864  0
O  O135  1  0.65314741  0.71810621  0.62190429  1  0  -0.593152  0  1.963787  0  0  -0.548479  0  2.201628  0  0  -0.570223  0  2.192138  0  0  -0.308874  -0.533493  0  2.206725  0
O  O136  1  0.12591328  0.28597506  0.16828817  1  0  -0.579327  0  2.008827  0  0  -0.520915  0  2.249333  0  0  -0.543642  0  2.237882  0  0  -0.29844  -0.505151  0  2.257228  0
O  O137  1  0.87408636  0.21402719  0.66828505  1  0  -0.579381  0  2.008979  0  0  -0.520918  0  2.249458  0  0  -0.543644  0  2.238008  0  0  -0.298445  -0.505143  0  2.257325  0
O  O138  1  0.87408675  0.71402628  0.83171285  1  0  -0.579377  0  2.008916  0  0  -0.52094  0  2.24942  0  0  -0.543667  0  2.237968  0  0  -0.298463  -0.505174  0  2.25731  0
O  O139  1  0.12591423  0.78597235  0.33171237  1  0  -0.579321  0  2.008828  0  0  -0.520866  0  2.249295  0  0  -0.543591  0  2.237842  0  0  -0.29843  -0.505099  0  2.257183  0
O  O140  1  0.96801518  0.13274106  0.09272601  1  0  -0.560754  0  2.077221  0  0  -0.508523  0  2.30316  0  0  -0.532267  0  2.289649  0  0  -0.33014  -0.492247  0  2.31062  0
O  O141  1  0.03198655  0.36726111  0.59272598  1  0  -0.56072  0  2.077102  0  0  -0.50854  0  2.303101  0  0  -0.532282  0  2.289587  0  0  -0.330154  -0.492267  0  2.310564  0
O  O142  1  0.03198596  0.86726028  0.90727284  1  0  -0.560755  0  2.077158  0  0  -0.508556  0  2.303127  0  0  -0.532301  0  2.28963  0  0  -0.330148  -0.492281  0  2.31059  0
O  O143  1  0.96801741  0.63273842  0.40727360  1  0  -0.560829  0  2.07715  0  0  -0.508622  0  2.303106  0  0  -0.532367  0  2.289605  0  0  -0.330171  -0.492348  0  2.31057  0
