# generated using pymatgen
data_Zn3H36C54(N4O3)4
_symmetry_space_group_name_H-M   'P 1'
_cell_length_a   11.40736694
_cell_length_b   14.47416972
_cell_length_c   18.69896676
_cell_angle_alpha   105.38533096
_cell_angle_beta   107.75468528
_cell_angle_gamma   89.98668639
_symmetry_Int_Tables_number   1
_chemical_formula_structural   Zn3H36C54(N4O3)4
_chemical_formula_sum   'Zn6 H72 C108 N32 O24'
_cell_volume   2824.04019206
_cell_formula_units_Z   2
loop_
 _symmetry_equiv_pos_site_id
 _symmetry_equiv_pos_as_xyz
  1  'x, y, z'
loop_
 _atom_site_type_symbol
 _atom_site_label
 _atom_site_symmetry_multiplicity
 _atom_site_fract_x
 _atom_site_fract_y
 _atom_site_fract_z
 _atom_site_occupancy
 _atom_site_pbe_bader_charge
 _atom_site_pbe_bader_spin_density
 _atom_site_pbe_cm5_charge
 _atom_site_pbe_ddec_charge
 _atom_site_pbe_ddec_spin_density
 _atom_site_pbe_ddec_sum_bond_order
 _atom_site_pbe_magmom
Zn  Zn0  1  0.49243850  0.57713044  0.69226317  1  1.294345  0  0.688602  0.852205  0  2.31395  0
Zn  Zn1  1  0.80039536  0.92299902  0.30773689  1  1.293174  0  0.6887  0.852132  0  2.312983  0
Zn  Zn2  1  0.50756179  0.42286985  0.30773772  1  1.29431  0  0.688642  0.852278  0  2.313951  0
Zn  Zn3  1  0.19960197  0.07700058  0.69226186  1  1.29325  0  0.68869  0.852108  0  2.312907  0
Zn  Zn4  1  0.50000092  0.49999981  0.49999887  1  1.453534  0  0.722893  1.097257  0  2.268252  0
Zn  Zn5  1  0.00000130  0.00000059  0.50000074  1  1.454878  0  0.722236  1.095708  0  2.270226  0
H  H6  1  0.29045336  0.61362602  0.76884188  1  0.116169  0  0.118181  0.087186  0  1.025824  0
H  H7  1  0.52162563  0.88672193  0.23135364  1  0.136332  0  0.118415  0.087885  0  1.02691  0
H  H8  1  0.70954303  0.38636924  0.23115726  1  0.116198  0  0.118148  0.087092  0  1.02586  0
H  H9  1  0.47837356  0.11327623  0.76864497  1  0.136308  0  0.118407  0.087847  0  1.026932  0
H  H10  1  0.27311852  0.63497410  0.90296079  1  0.116712  0  0.10968  0.121066  0  1.003082  0
H  H11  1  0.37005377  0.86538466  0.09729720  1  0.120093  0  0.109644  0.121173  0  1.003771  0
H  H12  1  0.72687608  0.36501685  0.09703697  1  0.116649  0  0.109702  0.121062  0  1.003054  0
H  H13  1  0.62994481  0.13461279  0.90270071  1  0.120107  0  0.109641  0.121191  0  1.003736  0
H  H14  1  0.66449182  0.60646450  0.98449751  1  0.115972  0  0.114434  0.128066  0  0.987181  0
H  H15  1  0.67963455  0.89360263  0.01547252  1  0.129677  0  0.114159  0.127725  0  0.988894  0
H  H16  1  0.33550680  0.39354156  0.01550329  1  0.115892  0  0.114443  0.128066  0  0.987194  0
H  H17  1  0.32036431  0.10639986  0.98452534  1  0.129637  0  0.114177  0.127753  0  0.988927  0
H  H18  1  0.66660641  0.58881233  0.84673924  1  0.135141  0  0.123445  0.099915  0  0.983481  0
H  H19  1  0.81962850  0.91126508  0.15316575  1  0.115302  0  0.123427  0.100205  0  0.982215  0
H  H20  1  0.33339179  0.41119014  0.15326072  1  0.135657  0  0.123472  0.099995  0  0.98347  0
H  H21  1  0.18037092  0.08873309  0.84683215  1  0.115293  0  0.123433  0.100203  0  0.982249  0
H  H22  1  0.73740668  0.57886628  0.20093440  1  0.07012  0  0.104968  0.110487  0  1.011789  0
H  H23  1  0.53644024  0.92106509  0.79908851  1  0.08162  0  0.105136  0.110579  0  1.011437  0
H  H24  1  0.26259196  0.42112899  0.79906423  1  0.070064  0  0.10494  0.110441  0  1.011862  0
H  H25  1  0.46356176  0.07893157  0.20091367  1  0.081713  0  0.105133  0.110584  0  1.011419  0
H  H26  1  0.86642931  0.59230485  0.33907997  1  0.082017  0  0.107349  0.07204  0  1.008994  0
H  H27  1  0.52743715  0.90761277  0.66096667  1  0.070664  0  0.107291  0.071877  0  1.009222  0
H  H28  1  0.13357108  0.40769258  0.66091884  1  0.081983  0  0.107334  0.071965  0  1.00906  0
H  H29  1  0.47256961  0.09238532  0.33903677  1  0.07066  0  0.107309  0.07186  0  1.009223  0
H  H30  1  0.61956179  0.75723565  0.42724121  1  0.087109  0  0.114917  0.085812  0  0.980925  0
H  H31  1  0.19248331  0.74272185  0.57274860  1  0.093752  0  0.115262  0.08622  0  0.980992  0
H  H32  1  0.38044143  0.24276393  0.57275883  1  0.087091  0  0.114913  0.085809  0  0.980898  0
H  H33  1  0.80751837  0.25728280  0.42725049  1  0.093954  0  0.115225  0.086167  0  0.981042  0
H  H34  1  0.48050288  0.75069499  0.29513232  1  0.108737  0  0.101504  0.097218  0  1.076142  0
H  H35  1  0.18536583  0.74936371  0.70482757  1  0.134745  0  0.101291  0.09701  0  1.076852  0
H  H36  1  0.51949975  0.24930603  0.70486823  1  0.108701  0  0.101503  0.097213  0  1.076126  0
H  H37  1  0.81463078  0.25063878  0.29517079  1  0.134754  0  0.101266  0.097019  0  1.07683  0
H  H38  1  0.22617612  0.59026452  0.12556693  1  0.123191  0  0.143773  0.113267  0  0.940887  0
H  H39  1  0.10028509  0.90959771  0.87433381  1  0.123342  0  0.143952  0.113856  0  0.939916  0
H  H40  1  0.77382479  0.40973649  0.87443466  1  0.123158  0  0.143758  0.113228  0  0.940877  0
H  H41  1  0.89971422  0.09040332  0.12566618  1  0.123344  0  0.143943  0.113882  0  0.939931  0
H  H42  1  0.33874397  0.63180642  0.22005309  1  0.169707  0  0.138044  0.114305  0  1.026053  0
H  H43  1  0.11849992  0.86800259  0.77987186  1  0.160326  0  0.137606  0.113729  0  1.026085  0
H  H44  1  0.66125835  0.36819387  0.77994799  1  0.169753  0  0.138052  0.114368  0  1.026006  0
H  H45  1  0.88149881  0.13199987  0.22012864  1  0.160349  0  0.137613  0.113779  0  1.026049  0
H  H46  1  0.07457862  0.70838731  0.07621206  1  0.120329  0  0.14353  0.111974  0  0.965974  0
H  H47  1  0.99817972  0.79137380  0.92371186  1  0.142195  0  0.143567  0.112086  0  0.966297  0
H  H48  1  0.92542268  0.29161514  0.92378916  1  0.120263  0  0.14351  0.111935  0  0.965969  0
H  H49  1  0.00181650  0.20862724  0.07628686  1  0.142206  0  0.143586  0.112105  0  0.966277  0
H  H50  1  0.23650441  0.95513307  0.25994602  1  0.144112  0  0.131722  0.096895  0  1.001548  0
H  H51  1  0.97675212  0.54473134  0.73993027  1  0.148207  0  0.131826  0.09651  0  1.001665  0
H  H52  1  0.76349990  0.04486864  0.74005630  1  0.14416  0  0.131726  0.096907  0  1.001557  0
H  H53  1  0.02324869  0.45526969  0.26006938  1  0.148191  0  0.13181  0.096498  0  1.001662  0
H  H54  1  0.82985842  0.44752410  0.75777495  1  0.077056  0  0.099199  0.099226  0  1.029049  0
H  H55  1  0.07211159  0.05272446  0.24221566  1  0.076376  0  0.099031  0.098926  0  1.02835  0
H  H56  1  0.17014019  0.55247549  0.24222417  1  0.077048  0  0.099205  0.099248  0  1.02908  0
H  H57  1  0.92788419  0.94727582  0.75778623  1  0.076489  0  0.099031  0.098954  0  1.028251  0
H  H58  1  0.00933333  0.34424284  0.76736422  1  0.085266  0  0.101334  0.105981  0  1.008509  0
H  H59  1  0.24205936  0.15590136  0.23259687  1  0.076868  0  0.100945  0.105494  0  1.008222  0
H  H60  1  0.99066409  0.65575673  0.23263647  1  0.08523  0  0.101336  0.105978  0  1.008503  0
H  H61  1  0.75793634  0.84409894  0.76740309  1  0.076851  0  0.100978  0.105563  0  1.008128  0
H  H62  1  0.82696699  0.16992272  0.53308133  1  0.116651  0  0.109812  0.119534  0  1.024073  0
H  H63  1  0.29391414  0.33025630  0.46687987  1  0.109428  0  0.110254  0.120032  0  1.023725  0
H  H64  1  0.17303330  0.83007832  0.46691779  1  0.116666  0  0.109803  0.119573  0  1.02405  0
H  H65  1  0.70608428  0.66974618  0.53311938  1  0.109457  0  0.110287  0.120039  0  1.023706  0
H  H66  1  0.64835793  0.27005406  0.52389118  1  0.157268  0  0.106725  0.111496  0  1.031011  0
H  H67  1  0.12446889  0.23019736  0.47610237  1  0.150657  0  0.106528  0.111045  0  1.032184  0
H  H68  1  0.35164342  0.72994697  0.47610900  1  0.157266  0  0.10673  0.111484  0  1.03102  0
H  H69  1  0.87553001  0.76980654  0.52389846  1  0.150696  0  0.106536  0.111072  0  1.032105  0
H  H70  1  0.12272767  0.44850066  0.40918855  1  0.096168  0  0.101786  0.104306  0  1.019727  0
H  H71  1  0.71339207  0.05166432  0.59085513  1  0.099086  0  0.101538  0.103657  0  1.021381  0
H  H72  1  0.87727666  0.55149748  0.59081152  1  0.096257  0  0.101797  0.104359  0  1.019723  0
H  H73  1  0.28660866  0.94833599  0.40914436  1  0.099099  0  0.101529  0.103645  0  1.021395  0
H  H74  1  0.10814521  0.57977093  0.64048434  1  0.094627  0  0.096633  0.091072  0  1.058725  0
H  H75  1  0.46784910  0.92005345  0.35956063  1  0.090335  0  0.096587  0.090986  0  1.058458  0
H  H76  1  0.89185859  0.42022722  0.35951520  1  0.094565  0  0.096648  0.091094  0  1.05867  0
H  H77  1  0.53215238  0.07994687  0.64043868  1  0.090334  0  0.096586  0.090995  0  1.058441  0
C  C78  1  0.37079137  0.61271905  0.81843749  1  0.509786  0  0.049213  0.090259  0  3.956732  0
C  C79  1  0.55227270  0.88754802  0.18169903  1  0.453446  0  0.047841  0.087846  0  3.96051  0
C  C80  1  0.62920660  0.38727694  0.18156148  1  0.50988  0  0.049244  0.090391  0  3.956614  0
C  C81  1  0.44772597  0.11245014  0.81829904  1  0.453329  0  0.047905  0.087962  0  3.960504  0
C  C82  1  0.36155440  0.62395430  0.89248259  1  -0.047585  0  -0.079479  -0.156905  0  3.923209  0
C  C83  1  0.46892889  0.87633145  0.10767835  1  -0.035793  0  -0.07876  -0.155851  0  3.921353  0
C  C84  1  0.63844190  0.37604024  0.10751638  1  -0.047509  0  -0.079518  -0.156925  0  3.923389  0
C  C85  1  0.53106947  0.12366599  0.89232026  1  -0.03576  0  -0.078805  -0.15593  0  3.921267  0
C  C86  1  0.46796018  0.62083156  0.95373678  1  -0.030429  0  0.020008  0.084087  0  3.97135  0
C  C87  1  0.51396520  0.87938273  0.04634886  1  0.000727  0  0.020044  0.084436  0  3.969123  0
C  C88  1  0.53203774  0.37916585  0.04626323  1  -0.030522  0  0.020045  0.084135  0  3.971446  0
C  C89  1  0.48603324  0.12061543  0.95364991  1  0.000757  0  0.020026  0.084396  0  3.968985  0
C  C90  1  0.58031476  0.60843803  0.93784686  1  0.036267  0  -0.07878  -0.157241  0  3.919281  0
C  C91  1  0.64218366  0.89168543  0.06216479  1  -0.03879  0  -0.078677  -0.157516  0  3.920788  0
C  C92  1  0.41968305  0.39156299  0.06215346  1  0.036214  0  -0.078772  -0.15722  0  3.919251  0
C  C93  1  0.35781336  0.10831419  0.93783273  1  -0.038991  0  -0.078667  -0.157507  0  3.920863  0
C  C94  1  0.58161734  0.59833558  0.86216617  1  0.446719  0  0.054186  0.103198  0  3.920389  0
C  C95  1  0.71924119  0.90177870  0.13782400  1  0.499004  0  0.054352  0.103536  0  3.921633  0
C  C96  1  0.41838047  0.40166545  0.13783415  1  0.44624  0  0.054135  0.103091  0  3.920425  0
C  C97  1  0.28075742  0.09822090  0.86217511  1  0.499208  0  0.054323  0.103503  0  3.921688  0
C  C98  1  0.46291404  0.63119139  0.03244619  1  0.963216  0  0.212662  0.257513  0  4.091788  0
C  C99  1  0.43023185  0.86902727  0.96762468  1  0.963256  0  0.212976  0.258575  0  4.090222  0
C  C100  1  0.53708433  0.36880530  0.96755418  1  0.963048  0  0.212623  0.257387  0  4.091796  0
C  C101  1  0.56976713  0.13097088  0.03237463  1  0.963712  0  0.21295  0.258587  0  4.09025  0
C  C102  1  0.52013188  0.64911746  0.15525095  1  0.95002  0  0.235502  0.238006  0  3.990778  0
C  C103  1  0.36476805  0.85100659  0.84478667  1  0.947353  0  0.23601  0.237515  0  3.98994  0
C  C104  1  0.47986749  0.35088213  0.84474800  1  0.949864  0  0.235548  0.238085  0  3.990655  0
C  C105  1  0.63522998  0.14899444  0.15521295  1  0.947276  0  0.235998  0.23752  0  3.990046  0
C  C106  1  0.59530485  0.65962451  0.23631135  1  -0.042947  0  0.002639  0.04721  0  4.015056  0
C  C107  1  0.35893853  0.84040329  0.76370718  1  -0.05243  0  0.001788  0.046649  0  4.01351  0
C  C108  1  0.40469563  0.34037365  0.76368762  1  -0.042957  0  0.002632  0.047152  0  4.015075  0
C  C109  1  0.64106017  0.15959702  0.23629210  1  -0.052388  0  0.001851  0.046739  0  4.013518  0
C  C110  1  0.70772861  0.61724666  0.24999738  1  0.022266  0  -0.081007  -0.146577  0  3.942633  0
C  C111  1  0.45771288  0.88270196  0.75002009  1  0.029292  0  -0.08095  -0.146064  0  3.942254  0
C  C112  1  0.29227095  0.38275005  0.75000142  1  0.022335  0  -0.081018  -0.146658  0  3.942852  0
C  C113  1  0.54228769  0.11729616  0.24998082  1  0.029154  0  -0.081016  -0.146125  0  3.942163  0
C  C114  1  0.77932244  0.62569540  0.32673117  1  0.518432  0  0.044182  0.095311  0  3.992517  0
C  C115  1  0.45266726  0.87422984  0.67329146  1  0.520565  0  0.044352  0.095375  0  3.993516  0
C  C116  1  0.22067857  0.37430275  0.67326834  1  0.518517  0  0.044138  0.095429  0  3.992416  0
C  C117  1  0.54733679  0.12576972  0.32671035  1  0.520584  0  0.044441  0.095509  0  3.993411  0
C  C118  1  0.64260813  0.71668917  0.37581800  1  0.529849  0  0.051527  0.117998  0  3.947106  0
C  C119  1  0.26689920  0.78327822  0.62418191  1  0.532101  0  0.05093  0.116361  0  3.947746  0
C  C120  1  0.35739433  0.28331041  0.62418221  1  0.529793  0  0.051503  0.117873  0  3.947154  0
C  C121  1  0.73310298  0.21672352  0.37581827  1  0.531732  0  0.051033  0.116605  0  3.947811  0
C  C122  1  0.56308935  0.71171104  0.30126903  1  -0.02927  0  -0.088896  -0.169244  0  3.940503  0
C  C123  1  0.26183287  0.78832435  0.69872556  1  -0.057556  0  -0.088469  -0.168757  0  3.939277  0
C  C124  1  0.43691325  0.28828783  0.69873032  1  -0.029259  0  -0.088925  -0.169194  0  3.940438  0
C  C125  1  0.73816667  0.21167669  0.30127373  1  -0.057441  0  -0.08848  -0.168902  0  3.939308  0
C  C126  1  0.29858240  0.64722275  0.16376533  1  0.656851  0  0.069555  -0.024446  0  3.886537  0
C  C127  1  0.13467312  0.85266925  0.83619749  1  0.644142  0  0.070115  -0.023916  0  3.887092  0
C  C128  1  0.70141917  0.35277754  0.83623592  1  0.65681  0  0.069588  -0.024407  0  3.886484  0
C  C129  1  0.86532455  0.14733323  0.16380194  1  0.644208  0  0.070072  -0.024063  0  3.887238  0
C  C130  1  0.13482294  0.76001861  0.12804631  1  1.023486  0  0.15533  0.088353  0  3.973249  0
C  C131  1  0.00670822  0.73978239  0.87188050  1  0.975222  0  0.15484  0.08788  0  3.975522  0
C  C132  1  0.86518084  0.23998311  0.87195547  1  1.023845  0  0.155315  0.088417  0  3.973237  0
C  C133  1  0.99329003  0.26021865  0.12811842  1  0.975243  0  0.154816  0.087833  0  3.975564  0
C  C134  1  0.21972515  0.88251137  0.22108146  1  0.953841  0  0.141716  0.145496  0  3.993858  0
C  C135  1  0.99875462  0.61733908  0.77882330  1  0.934415  0  0.142221  0.146565  0  3.993367  0
C  C136  1  0.78028013  0.11749036  0.77891999  1  0.953885  0  0.141826  0.145594  0  3.993734  0
C  C137  1  0.00124545  0.38266195  0.22117652  1  0.934315  0  0.142217  0.146575  0  3.993369  0
C  C138  1  0.61760157  0.42019021  0.63686171  1  1.56485  0  0.215445  0.592025  0  4.174089  0
C  C139  1  0.98089220  0.07992578  0.36311625  1  1.561643  0  0.213671  0.588973  0  4.17977  0
C  C140  1  0.38239863  0.57981011  0.36313724  1  1.564833  0  0.215457  0.591982  0  4.173985  0
C  C141  1  0.01910693  0.92007664  0.63688742  1  1.561527  0  0.213602  0.588904  0  4.179882  0
C  C142  1  0.72728049  0.36310510  0.64130812  1  -0.02862  0  -0.016367  -0.028347  0  3.955001  0
C  C143  1  0.08601540  0.13711899  0.35866402  1  -0.036829  0  -0.017074  -0.027888  0  3.953222  0
C  C144  1  0.27271883  0.63689592  0.35869186  1  -0.028613  0  -0.016377  -0.028361  0  3.955045  0
C  C145  1  0.91398475  0.86288201  0.64133773  1  -0.036824  0  -0.017044  -0.027834  0  3.953267  0
C  C146  1  0.83011369  0.38572156  0.70946728  1  -0.036854  0  -0.098312  -0.125403  0  4.023888  0
C  C147  1  0.12069403  0.11450091  0.29050157  1  -0.105118  0  -0.097117  -0.123274  0  4.021468  0
C  C148  1  0.16988501  0.61427875  0.29053200  1  -0.036827  0  -0.09832  -0.125477  0  4.023996  0
C  C149  1  0.87930423  0.88549939  0.70949912  1  -0.105237  0  -0.097171  -0.123342  0  4.021209  0
C  C150  1  0.92947362  0.32960843  0.71462809  1  -0.09255  0  -0.092604  -0.113007  0  4.008655  0
C  C151  1  0.21489520  0.17055936  0.28532890  1  -0.027364  0  -0.092849  -0.113694  0  4.010332  0
C  C152  1  0.07052410  0.67039188  0.28537206  1  -0.093076  0  -0.092598  -0.112939  0  4.0086  0
C  C153  1  0.78510115  0.82944022  0.71467072  1  -0.027385  0  -0.092825  -0.11374  0  4.010122  0
C  C154  1  0.92740942  0.25090202  0.65119605  1  -0.047492  0  -0.013243  -0.023322  0  3.967795  0
C  C155  1  0.27623226  0.24924092  0.34877421  1  -0.076996  0  -0.012891  -0.023622  0  3.968783  0
C  C156  1  0.07259162  0.74909828  0.34880467  1  -0.046958  0  -0.013247  -0.023313  0  3.967876  0
C  C157  1  0.72376569  0.75075939  0.65122524  1  -0.077011  0  -0.012932  -0.023693  0  3.968776  0
C  C158  1  0.82708018  0.23066159  0.58210975  1  0.028378  0  -0.072934  -0.080684  0  3.922127  0
C  C159  1  0.24496600  0.26952485  0.41786642  1  0.0573  0  -0.073427  -0.081188  0  3.920604  0
C  C160  1  0.17292099  0.76933800  0.41789010  1  0.028381  0  -0.072928  -0.080741  0  3.922173  0
C  C161  1  0.75503278  0.73047618  0.58213304  1  0.05724  0  -0.073446  -0.081137  0  3.920637  0
C  C162  1  0.72709042  0.28643710  0.57725771  1  -0.083529  0  -0.073947  -0.073874  0  3.926645  0
C  C163  1  0.14982644  0.21379128  0.42272502  1  -0.042411  0  -0.073944  -0.074105  0  3.925923  0
C  C164  1  0.27291076  0.71356249  0.42274213  1  -0.083575  0  -0.073954  -0.073839  0  3.926699  0
C  C165  1  0.85017199  0.78621045  0.57727601  1  -0.042371  0  -0.073962  -0.074166  0  3.925912  0
C  C166  1  0.03006282  0.18736369  0.65924244  1  1.547628  0  0.208029  0.584311  0  4.169733  0
C  C167  1  0.37084970  0.31271747  0.34072839  1  1.538117  0  0.207878  0.58511  0  4.17026  0
C  C168  1  0.96993848  0.81263801  0.34076055  1  1.547634  0  0.207869  0.584068  0  4.170017  0
C  C169  1  0.62914998  0.68728211  0.65927179  1  1.537912  0  0.207897  0.585166  0  4.170178  0
C  C170  1  0.26774372  0.52953533  0.55647677  1  1.567263  0  0.225577  0.604059  0  4.156792  0
C  C171  1  0.71141462  0.97049819  0.44360508  1  1.587058  0  0.22601  0.603815  0  4.158364  0
C  C172  1  0.73225874  0.47046500  0.44352167  1  1.566912  0  0.225546  0.603968  0  4.156816  0
C  C173  1  0.28858670  0.02949994  0.55639567  1  1.586888  0  0.226051  0.603846  0  4.158291  0
C  C174  1  0.12933689  0.51541463  0.52765679  1  -0.05161  0  -0.012793  -0.028381  0  3.947469  0
C  C175  1  0.60174187  0.98454612  0.47238774  1  -0.013234  0  -0.012333  -0.027843  0  3.949825  0
C  C176  1  0.87066518  0.48458425  0.47234202  1  -0.051432  0  -0.012827  -0.028353  0  3.947471  0
C  C177  1  0.39826098  0.01545491  0.52761211  1  -0.012882  0  -0.012369  -0.027924  0  3.949947  0
C  C178  1  0.06787618  0.47114339  0.44829914  1  -0.049773  0  -0.082911  -0.08768  0  3.957293  0
C  C179  1  0.61951081  0.02892530  0.55171741  1  -0.054962  0  -0.082874  -0.086774  0  3.959144  0
C  C180  1  0.93212846  0.52885548  0.55170040  1  -0.049823  0  -0.082962  -0.087842  0  3.957336  0
C  C181  1  0.38049009  0.97107645  0.44828241  1  -0.055089  0  -0.082849  -0.086728  0  3.959123  0
C  C182  1  0.06034928  0.54433606  0.57907508  1  -0.010914  0  -0.08746  -0.100589  0  3.975389  0
C  C183  1  0.48138480  0.95556099  0.42095004  1  -0.04517  0  -0.087357  -0.100796  0  3.978184  0
C  C184  1  0.93965452  0.45566209  0.42092446  1  -0.010885  0  -0.087472  -0.100658  0  3.975339  0
C  C185  1  0.51861739  0.04444076  0.57905015  1  -0.04528  0  -0.087359  -0.1008  0  3.978273  0
N  N186  1  0.47853237  0.59945771  0.80333925  1  -1.242203  0  -0.32545  -0.225821  0  3.543258  0
N  N187  1  0.67512276  0.90073114  0.19672692  1  -1.227596  0  -0.324582  -0.225381  0  3.545816  0
N  N188  1  0.52146519  0.40054115  0.19666056  1  -1.242192  0  -0.325484  -0.225912  0  3.543137  0
N  N189  1  0.32487781  0.09926773  0.80327222  1  -1.22753  0  -0.324592  -0.225382  0  3.545779  0
N  N190  1  0.56500599  0.63822437  0.09572336  1  -1.148172  0  -0.325722  -0.403753  0  3.181285  0
N  N191  1  0.46911898  0.86203613  0.90435588  1  -1.148487  0  -0.325718  -0.40408  0  3.176319  0
N  N192  1  0.43499245  0.36177378  0.90427542  1  -1.147965  0  -0.325684  -0.403673  0  3.181192  0
N  N193  1  0.53087946  0.13796203  0.09564289  1  -1.148777  0  -0.325712  -0.40407  0  3.176452  0
N  N194  1  0.35614718  0.63556498  0.04861247  1  -0.662977  0  -0.225341  -0.311593  0  3.104398  0
N  N195  1  0.30730084  0.86453948  0.95139766  1  -0.661278  0  -0.226065  -0.312353  0  3.10582  0
N  N196  1  0.64385074  0.36443244  0.95138754  1  -0.662966  0  -0.225294  -0.311465  0  3.104408  0
N  N197  1  0.69269884  0.13546010  0.04860253  1  -0.660896  0  -0.226073  -0.312338  0  3.105844  0
N  N198  1  0.39330768  0.64700119  0.12662501  1  -0.78005  0  -0.129454  0.068915  0  3.749193  0
N  N199  1  0.26652407  0.85304535  0.87337631  1  -0.775531  0  -0.129  0.069632  0  3.750892  0
N  N200  1  0.60669244  0.35299766  0.87337554  1  -0.779879  0  -0.12954  0.068771  0  3.749384  0
N  N201  1  0.73347268  0.14695569  0.12662295  1  -0.776044  0  -0.128944  0.069601  0  3.75105  0
N  N202  1  0.74827753  0.67410682  0.38921498  1  -1.184124  0  -0.306459  -0.239438  0  3.292074  0
N  N203  1  0.35919265  0.82582245  0.61079239  1  -1.188606  0  -0.306639  -0.238885  0  3.292097  0
N  N204  1  0.25172493  0.32589276  0.61078523  1  -1.184111  0  -0.306307  -0.239241  0  3.291884  0
N  N205  1  0.64081188  0.17417927  0.38920922  1  -1.188573  0  -0.306754  -0.239084  0  3.29226  0
N  N206  1  0.24188468  0.73735305  0.17388132  1  -0.832669  0  -0.140936  0.099467  0  3.798001  0
N  N207  1  0.06802991  0.76249033  0.82610663  1  -0.804105  0  -0.140947  0.098917  0  3.799744  0
N  N208  1  0.75811857  0.26264868  0.82611993  1  -0.832727  0  -0.140935  0.09929  0  3.798075  0
N  N209  1  0.93196842  0.23751143  0.17389246  1  -0.804131  0  -0.140865  0.099099  0  3.799667  0
N  N210  1  0.29794576  0.81599615  0.23400643  1  -0.682545  0  -0.216761  -0.251024  0  3.130241  0
N  N211  1  0.06407173  0.68388349  0.76596544  1  -0.684962  0  -0.216481  -0.250704  0  3.128967  0
N  N212  1  0.70205740  0.18400487  0.76599466  1  -0.682428  0  -0.216788  -0.25097  0  3.130207  0
N  N213  1  0.93592706  0.31611755  0.23403402  1  -0.684864  0  -0.216535  -0.250783  0  3.128992  0
N  N214  1  0.11772023  0.85157117  0.15635408  1  -1.200122  0  -0.353334  -0.354062  0  3.218367  0
N  N215  1  0.96135388  0.64823042  0.84351442  1  -1.165171  0  -0.353858  -0.354486  0  3.220477  0
N  N216  1  0.88228363  0.14843127  0.84364788  1  -1.200549  0  -0.353414  -0.354131  0  3.218325  0
N  N217  1  0.03864504  0.35176990  0.15648416  1  -1.165191  0  -0.353828  -0.354474  0  3.22053  0
O  O218  1  0.61379892  0.47772249  0.70184226  1  -1.174058  0  -0.326007  -0.567729  0  2.344446  0
O  O219  1  0.91221274  0.02234169  0.29813693  1  -1.180678  0  -0.325865  -0.567209  0  2.34511  0
O  O220  1  0.38620045  0.52227711  0.29815669  1  -1.174058  0  -0.325981  -0.567679  0  2.344437  0
O  O221  1  0.08778449  0.97766002  0.70186567  1  -1.180695  0  -0.325834  -0.567165  0  2.345193  0
O  O222  1  0.53427697  0.40850393  0.57198046  1  -1.189759  0  -0.313938  -0.573717  0  2.366474  0
O  O223  1  0.96248586  0.09154253  0.42800356  1  -1.181964  0  -0.312127  -0.571322  0  2.36853  0
O  O224  1  0.46572240  0.59149567  0.42801849  1  -1.189737  0  -0.31397  -0.573727  0  2.366489  0
O  O225  1  0.03751539  0.90846061  0.57200047  1  -1.181829  0  -0.312114  -0.571306  0  2.368454  0
O  O226  1  0.11266773  0.20040045  0.72593036  1  -1.158734  0  -0.323172  -0.545617  0  2.227209  0
O  O227  1  0.38687127  0.29957276  0.27405686  1  -1.155246  0  -0.323108  -0.545664  0  2.228039  0
O  O228  1  0.88732998  0.79960269  0.27407382  1  -1.158621  0  -0.323149  -0.545521  0  2.227274  0
O  O229  1  0.61312534  0.70042899  0.72594327  1  -1.155118  0  -0.323129  -0.545686  0  2.228007  0
O  O230  1  0.03519405  0.11927200  0.60111771  1  -1.199854  0  -0.31466  -0.58038  0  2.40733  0
O  O231  1  0.43400677  0.38087206  0.39881467  1  -1.201217  0  -0.31415  -0.580536  0  2.40831  0
O  O232  1  0.96481115  0.88072752  0.39888710  1  -1.199935  0  -0.314535  -0.580254  0  2.407488  0
O  O233  1  0.56599460  0.61912464  0.60118503  1  -1.201177  0  -0.31413  -0.580536  0  2.408341  0
O  O234  1  0.31798301  0.55908123  0.63123907  1  -1.180813  0  -0.323194  -0.563861  0  2.40662  0
O  O235  1  0.68700487  0.94095067  0.36885521  1  -1.185618  0  -0.323108  -0.563278  0  2.406304  0
O  O236  1  0.68201831  0.44092487  0.36875982  1  -1.180665  0  -0.323245  -0.563878  0  2.406717  0
O  O237  1  0.31299640  0.05904963  0.63114481  1  -1.185735  0  -0.323111  -0.563267  0  2.406302  0
O  O238  1  0.32252735  0.51136186  0.50567211  1  -1.168927  0  -0.299802  -0.554237  0  2.376243  0
O  O239  1  0.81695552  0.98877214  0.49445774  1  -1.175885  0  -0.30058  -0.554864  0  2.37788  0
O  O240  1  0.67747500  0.48863485  0.49432673  1  -1.168837  0  -0.299707  -0.554124  0  2.37619  0
O  O241  1  0.18304657  0.01122167  0.50554235  1  -1.175759  0  -0.300622  -0.554911  0  2.377871  0
