# generated using pymatgen
data_LiH2C3N3O2
_symmetry_space_group_name_H-M   'P 1'
_cell_length_a   3.42602738
_cell_length_b   9.15089025
_cell_length_c   14.12794681
_cell_angle_alpha   89.99960850
_cell_angle_beta   93.33886981
_cell_angle_gamma   89.99970456
_symmetry_Int_Tables_number   1
_chemical_formula_structural   LiH2C3N3O2
_chemical_formula_sum   'Li4 H8 C12 N12 O8'
_cell_volume   442.17623905
_cell_formula_units_Z   4
loop_
 _symmetry_equiv_pos_site_id
 _symmetry_equiv_pos_as_xyz
  1  'x, y, z'
loop_
 _atom_site_type_symbol
 _atom_site_label
 _atom_site_symmetry_multiplicity
 _atom_site_fract_x
 _atom_site_fract_y
 _atom_site_fract_z
 _atom_site_occupancy
 _atom_site_hle17_bader_spin_density
 _atom_site_hle17_ddec_charge
 _atom_site_hle17_ddec_spin_density
 _atom_site_hle17_ddec_sum_bond_order
 _atom_site_hle17_magmom
 _atom_site_pbe_bader_spin_density
 _atom_site_pbe_cm5_charge
 _atom_site_pbe_ddec_charge
 _atom_site_pbe_ddec_spin_density
 _atom_site_pbe_ddec_sum_bond_order
 _atom_site_pbe_magmom
Li  Li0  1  0.89836585  0.85866496  0.28990175  1  0  0.840321  0  0.399893  0  0  0.506793  0.777295  0  0.540721  0
Li  Li1  1  0.60163700  0.35866292  0.21009440  1  0  0.840324  0  0.399848  0  0  0.5068  0.777336  0  0.540608  0
Li  Li2  1  0.10162976  0.14134199  0.71009595  1  0  0.840355  0  0.399814  0  0  0.506803  0.777337  0  0.540612  0
Li  Li3  1  0.39835862  0.64133638  0.78990260  1  0  0.840331  0  0.399865  0  0  0.506788  0.777312  0  0.540679  0
H  H4  1  0.38194380  0.88943774  0.41076986  1  0  0.390498  0  0.929745  0  0  0.292138  0.340637  0  1.024486  0
H  H5  1  0.11805359  0.38943367  0.08922868  1  0  0.390497  0  0.929731  0  0  0.29216  0.340638  0  1.024459  0
H  H6  1  0.61804297  0.11056811  0.58923125  1  0  0.390512  0  0.929746  0  0  0.292163  0.340649  0  1.024475  0
H  H7  1  0.88194492  0.61056126  0.91076978  1  0  0.390503  0  0.929738  0  0  0.292136  0.34064  0  1.024481  0
H  H8  1  0.45812898  0.03968347  0.35775861  1  0  0.398125  0  0.919056  0  0  0.298996  0.345674  0  1.016739  0
H  H9  1  0.04186526  0.53967676  0.14224001  1  0  0.398107  0  0.919067  0  0  0.298999  0.345596  0  1.016842  0
H  H10  1  0.54185196  0.96032457  0.64224171  1  0  0.398191  0  0.918947  0  0  0.29899  0.345692  0  1.016698  0
H  H11  1  0.95813911  0.46031707  0.85775853  1  0  0.398117  0  0.919056  0  0  0.298969  0.345657  0  1.016754  0
C  C12  1  0.84208684  0.42914656  0.41870253  1  0  0.004392  0  3.822904  0  0  0.093605  -0.001856  0  4.07237  0
C  C13  1  0.65793825  0.92913591  0.08129435  1  0  0.004057  0  3.822427  0  0  0.093439  -0.002267  0  4.072087  0
C  C14  1  0.15792931  0.57086476  0.58129053  1  0  0.003933  0  3.823066  0  0  0.093541  -0.002206  0  4.072502  0
C  C15  1  0.34206898  0.07084809  0.91870778  1  0  0.004499  0  3.822737  0  0  0.093609  -0.001948  0  4.072384  0
C  C16  1  0.87437264  0.35524069  0.50606526  1  0  -0.018283  0  3.813256  0  0  0.087188  -0.028173  0  4.062428  0
C  C17  1  0.62564348  0.85522468  0.99393653  1  0  -0.018005  0  3.813579  0  0  0.087311  -0.027964  0  4.062732  0
C  C18  1  0.12566398  0.64477063  0.49392811  1  0  -0.018006  0  3.813816  0  0  0.087333  -0.027963  0  4.062894  0
C  C19  1  0.37436367  0.14475604  0.00607056  1  0  -0.018327  0  3.813527  0  0  0.087154  -0.028171  0  4.062644  0
C  C20  1  0.95600153  0.58181145  0.40526071  1  0  0.387641  0  3.786429  0  0  0.181652  0.352225  0  4.050158  0
C  C21  1  0.54401143  0.08181620  0.09474672  1  0  0.388018  0  3.786305  0  0  0.181847  0.352523  0  4.050178  0
C  C22  1  0.04400563  0.41818675  0.59474637  1  0  0.388218  0  3.786208  0  0  0.181909  0.352607  0  4.050188  0
C  C23  1  0.45598982  0.91818638  0.90526381  1  0  0.387533  0  3.78661  0  0  0.181703  0.352262  0  4.050242  0
N  N24  1  0.67952957  0.33575176  0.35368125  1  0  -0.304853  0  3.031995  0  0  -0.268883  -0.28221  0  3.314812  0
N  N25  1  0.82047651  0.83573577  0.14631859  1  0  -0.304511  0  3.031726  0  0  -0.268819  -0.281923  0  3.314517  0
N  N26  1  0.32045140  0.66426065  0.64631695  1  0  -0.304544  0  3.032072  0  0  -0.268896  -0.281959  0  3.314824  0
N  N27  1  0.17952780  0.16424714  0.85368349  1  0  -0.304876  0  3.031775  0  0  -0.268859  -0.282145  0  3.314636  0
N  N28  1  0.61306542  0.21029712  0.39922904  1  0  -0.036312  0  3.009223  0  0  -0.059521  -0.004136  0  3.283716  0
N  N29  1  0.88693975  0.71028258  0.10077063  1  0  -0.036676  0  3.009388  0  0  -0.059553  -0.00422  0  3.283614  0
N  N30  1  0.38692139  0.78971529  0.60076995  1  0  -0.036753  0  3.009499  0  0  -0.059592  -0.004376  0  3.283837  0
N  N31  1  0.11308212  0.28970579  0.89923030  1  0  -0.036267  0  3.009226  0  0  -0.059513  -0.004103  0  3.283703  0
N  N32  1  0.72717978  0.21955355  0.49123835  1  0  -0.222923  0  3.022234  0  0  -0.180636  -0.184961  0  3.282142  0
N  N33  1  0.77282523  0.71954565  0.00876199  1  0  -0.222869  0  3.022243  0  0  -0.180667  -0.184995  0  3.282131  0
N  N34  1  0.27283046  0.78045558  0.50875817  1  0  -0.222773  0  3.022116  0  0  -0.180646  -0.184897  0  3.282025  0
N  N35  1  0.22719371  0.28044818  0.99123961  1  0  -0.222984  0  3.022318  0  0  -0.180648  -0.185009  0  3.282194  0
O  O36  1  0.90383815  0.64910590  0.32918164  1  0  -0.482732  0  1.93682  0  0  -0.26846  -0.422398  0  2.152002  0
O  O37  1  0.59617392  0.14908571  0.17081416  1  0  -0.482685  0  1.937603  0  0  -0.268397  -0.422305  0  2.152788  0
O  O38  1  0.09610784  0.35091963  0.67080966  1  0  -0.482869  0  1.937695  0  0  -0.2685  -0.422431  0  2.152965  0
O  O39  1  0.40384799  0.85089720  0.82918465  1  0  -0.482749  0  1.937029  0  0  -0.268517  -0.422431  0  2.152187  0
O  O40  1  0.41051261  0.93233989  0.34603196  1  0  -0.956082  0  1.880394  0  0  -0.682963  -0.892295  0  2.11362  0
O  O41  1  0.08948408  0.43233300  0.15396779  1  0  -0.955972  0  1.880298  0  0  -0.683012  -0.892208  0  2.113606  0
O  O42  1  0.58945957  0.06766924  0.65396752  1  0  -0.956062  0  1.880187  0  0  -0.683005  -0.892262  0  2.113499  0
O  O43  1  0.91051442  0.56766083  0.84603208  1  0  -0.956061  0  1.880346  0  0  -0.682937  -0.892265  0  2.113573  0
