# generated using pymatgen
data_AlH6C15(NO4)3
_symmetry_space_group_name_H-M   'P 1'
_cell_length_a   4.15322155
_cell_length_b   17.21274749
_cell_length_c   17.21313470
_cell_angle_alpha   120.00046234
_cell_angle_beta   90.00053562
_cell_angle_gamma   89.99870068
_symmetry_Int_Tables_number   1
_chemical_formula_structural   AlH6C15(NO4)3
_chemical_formula_sum   'Al2 H12 C30 N6 O24'
_cell_volume   1065.67277658
_cell_formula_units_Z   2
loop_
 _symmetry_equiv_pos_site_id
 _symmetry_equiv_pos_as_xyz
  1  'x, y, z'
loop_
 _atom_site_type_symbol
 _atom_site_label
 _atom_site_symmetry_multiplicity
 _atom_site_fract_x
 _atom_site_fract_y
 _atom_site_fract_z
 _atom_site_occupancy
 _atom_site_pbe_bader_charge
 _atom_site_pbe_bader_spin_density
 _atom_site_pbe_cm5_charge
 _atom_site_pbe_ddec_charge
 _atom_site_pbe_ddec_spin_density
 _atom_site_pbe_ddec_sum_bond_order
 _atom_site_pbe_magmom
Al  Al0  1  0.93578901  0.49999860  0.50000086  1  2.514904  0  0.447711  1.63252  0  2.543173  0
Al  Al1  1  0.06418926  0.16666738  0.83333481  1  2.516018  0  0.447918  1.629698  0  2.54829  0
H  H2  1  0.29227157  0.11856468  0.53762542  1  0.086955  0  0.105771  0.123667  0  0.982935  0
H  H3  1  0.71828783  0.11765646  0.53428789  1  0.093439  0  0.104409  0.122325  0  0.992789  0
H  H4  1  0.70718464  0.20493372  0.45184345  1  0.081146  0  0.105676  0.123398  0  0.98297  0
H  H5  1  0.28120703  0.20157339  0.45088498  1  0.071577  0  0.104608  0.122806  0  0.992868  0
H  H6  1  0.29227313  0.91906425  0.88143665  1  0.110281  0  0.10577  0.123646  0  0.982875  0
H  H7  1  0.71829918  0.91663071  0.88234091  1  0.102108  0  0.104434  0.122338  0  0.992714  0
H  H8  1  0.70720109  0.74690987  0.79506311  1  0.090392  0  0.105672  0.123347  0  0.983082  0
H  H9  1  0.28124495  0.74931514  0.79842922  1  0.085685  0  0.104613  0.122804  0  0.992883  0
H  H10  1  0.29227519  0.46237289  0.08094029  1  0.084986  0  0.105722  0.123647  0  0.982915  0
H  H11  1  0.71831303  0.46571379  0.08337057  1  0.097462  0  0.104453  0.122377  0  0.992789  0
H  H12  1  0.70719800  0.54815770  0.25309374  1  0.09425  0  0.105645  0.123302  0  0.983109  0
H  H13  1  0.28122738  0.54911581  0.25068924  1  0.097688  0  0.104566  0.12275  0  0.992909  0
C  C14  1  0.44455668  0.43025718  0.36411712  1  1.644674  0  0.286746  0.690308  0  4.049154  0
C  C15  1  0.44455318  0.43385275  0.56973664  1  1.652073  0  0.286657  0.690164  0  4.049413  0
C  C16  1  0.44452409  0.63588068  0.56613520  1  1.643857  0  0.286907  0.690478  0  4.048713  0
C  C17  1  0.55544185  0.23614525  0.76692832  1  1.622246  0  0.28717  0.6902  0  4.051582  0
C  C18  1  0.55545893  0.03078246  0.76385356  1  1.624936  0  0.28713  0.689978  0  4.052237  0
C  C19  1  0.55544583  0.23307730  0.96921641  1  1.627315  0  0.287164  0.690302  0  4.051401  0
C  C20  1  0.52407948  0.29332715  0.72405555  1  0.182296  0  0.009368  -0.09899  0  3.907511  0
C  C21  1  0.47584771  0.39098495  0.62695884  1  0.048558  0  0.009103  -0.099477  0  3.906845  0
C  C22  1  0.50787066  0.25078954  0.63071888  1  -0.015066  0  0.003862  0.07028  0  3.875586  0
C  C23  1  0.48901546  0.43503192  0.72130172  1  0.197904  0  0.091865  0.009668  0  3.876044  0
C  C24  1  0.49167286  0.29763553  0.58415158  1  0.02578  0  0.004419  0.070135  0  3.876774  0
C  C25  1  0.51129773  0.38769510  0.76836098  1  0.189521  0  0.092378  0.009804  0  3.875397  0
C  C26  1  0.50529713  0.15976826  0.54579677  1  -0.033144  0  -0.143834  -0.19669  0  3.828326  0
C  C27  1  0.49411911  0.21292587  0.49297039  1  -0.032637  0  -0.143552  -0.196189  0  3.828481  0
C  C28  1  0.52406040  0.93072818  0.70667570  1  0.092892  0  0.009414  -0.09886  0  3.907407  0
C  C29  1  0.47584034  0.73597269  0.60901571  1  0.100014  0  0.009134  -0.099186  0  3.906839  0
C  C30  1  0.50787623  0.87992860  0.74921426  1  -0.015109  0  0.003893  0.070357  0  3.875734  0
C  C31  1  0.48893534  0.78626368  0.56496635  1  0.242196  0  0.091817  0.009493  0  3.876098  0
C  C32  1  0.49164426  0.78651355  0.70236194  1  -0.064302  0  0.004422  0.069928  0  3.876918  0
C  C33  1  0.51128782  0.88066274  0.61231029  1  0.267283  0  0.092328  0.009831  0  3.87487  0
C  C34  1  0.50530376  0.88602892  0.84023035  1  -0.087263  0  -0.143833  -0.196713  0  3.828399  0
C  C35  1  0.49413823  0.78004264  0.78706782  1  -0.020004  0  -0.143582  -0.196085  0  3.828735  0
C  C36  1  0.52412328  0.27594839  0.06927410  1  0.007716  0  0.009387  -0.098956  0  3.907358  0
C  C37  1  0.47585855  0.37304174  0.26402743  1  -0.041857  0  0.009146  -0.099436  0  3.906981  0
C  C38  1  0.50787692  0.36928437  0.12007355  1  -0.025807  0  0.003844  0.070277  0  3.875711  0
C  C39  1  0.48901339  0.27869784  0.21373276  1  0.367973  0  0.091807  0.009583  0  3.876351  0
C  C40  1  0.49165530  0.41584843  0.21348670  1  0.113159  0  0.004455  0.070154  0  3.87663  0
C  C41  1  0.51127370  0.23164254  0.11933869  1  0.143192  0  0.092445  0.00985  0  3.875323  0
C  C42  1  0.50531806  0.45420788  0.11397473  1  -0.012148  0  -0.143807  -0.196827  0  3.828195  0
C  C43  1  0.49413584  0.50703032  0.21996067  1  -0.083467  0  -0.143525  -0.195985  0  3.82848  0
N  N44  1  0.51659746  0.53447451  0.77336579  1  0.418102  0  0.060233  0.511109  0  4.22934  0
N  N45  1  0.48393522  0.43961386  0.86787602  1  0.406685  0  0.061724  0.510426  0  4.22864  0
N  N46  1  0.51650229  0.73888552  0.46552480  1  0.40601  0  0.060002  0.510586  0  4.229292  0
N  N47  1  0.48391542  0.92826693  0.56038723  1  0.422908  0  0.061787  0.510426  0  4.228141  0
N  N48  1  0.51658817  0.22663376  0.26111080  1  0.421404  0  0.060285  0.511129  0  4.229279  0
N  N49  1  0.48390608  0.13212744  0.07174026  1  0.460455  0  0.061476  0.510194  0  4.228819  0
O  O50  1  0.66696331  0.59624757  0.58404068  1  -1.246504  0  -0.234442  -0.59598  0  2.331472  0
O  O51  1  0.66698439  0.48780097  0.40375760  1  -1.247247  0  -0.234385  -0.595955  0  2.331381  0
O  O52  1  0.66699955  0.41595502  0.51220129  1  -1.245118  0  -0.234306  -0.595857  0  2.33151  0
O  O53  1  0.19202459  0.60023712  0.52141056  1  -1.244366  0  -0.219641  -0.587167  0  2.423976  0
O  O54  1  0.19206045  0.47858104  0.57882329  1  -1.244841  0  -0.219481  -0.586883  0  2.424431  0
O  O55  1  0.19205982  0.42117822  0.39975627  1  -1.236302  0  -0.219532  -0.586961  0  2.424438  0
O  O56  1  0.80799585  0.18838362  0.93362246  1  -1.236644  0  -0.219791  -0.586762  0  2.427019  0
O  O57  1  0.80799079  0.24523909  0.81162073  1  -1.231482  0  -0.219797  -0.586685  0  2.427032  0
O  O58  1  0.80800798  0.06637976  0.75475651  1  -1.232444  0  -0.219764  -0.586563  0  2.42709  0
O  O59  1  0.33290853  0.25086068  0.92950715  1  -1.253605  0  -0.234986  -0.595592  0  2.331619  0
O  O60  1  0.33292723  0.07048960  0.82134516  1  -1.254598  0  -0.234986  -0.595507  0  2.331972  0
O  O61  1  0.33290619  0.17865202  0.74914024  1  -1.254391  0  -0.235024  -0.595617  0  2.33171  0
O  O62  1  0.32913568  0.57857268  0.75505385  1  -0.435213  0  -0.104113  -0.291799  0  1.990735  0
O  O63  1  0.73490469  0.56508148  0.82952663  1  -0.411021  0  -0.110076  -0.301118  0  1.963194  0
O  O64  1  0.67157442  0.42125171  0.91190079  1  -0.431031  0  -0.104475  -0.291353  0  1.989242  0
O  O65  1  0.26553395  0.49574505  0.89859760  1  -0.419254  0  -0.111151  -0.300754  0  1.964512  0
O  O66  1  0.32899461  0.67648391  0.42141642  1  -0.425541  0  -0.104004  -0.291397  0  1.990038  0
O  O67  1  0.73477923  0.76444612  0.43492670  1  -0.41352  0  -0.109901  -0.300948  0  1.963663  0
O  O68  1  0.67158393  0.99064611  0.57872622  1  -0.434797  0  -0.104588  -0.291446  0  1.988848  0
O  O69  1  0.26551163  0.90284895  0.50426269  1  -0.426613  0  -0.111102  -0.300715  0  1.964729  0
O  O70  1  0.32913639  0.24495016  0.32351985  1  -0.432619  0  -0.104076  -0.291741  0  1.99075  0
O  O71  1  0.73490526  0.17046886  0.23555039  1  -0.414858  0  -0.110112  -0.301123  0  1.963043  0
O  O72  1  0.67148912  0.08811042  0.00934575  1  -0.437828  0  -0.104349  -0.291294  0  1.989804  0
O  O73  1  0.26550891  0.10140033  0.09714980  1  -0.415401  0  -0.111117  -0.300676  0  1.964079  0
