# generated using pymatgen
data_ZnH7C14Br2NO4
_symmetry_space_group_name_H-M   'P 1'
_cell_length_a   8.98276819
_cell_length_b   13.92652775
_cell_length_c   15.36947769
_cell_angle_alpha   90.16636148
_cell_angle_beta   89.95700020
_cell_angle_gamma   81.42195875
_symmetry_Int_Tables_number   1
_chemical_formula_structural   ZnH7C14Br2NO4
_chemical_formula_sum   'Zn2 H14 C28 Br4 N2 O8'
_cell_volume   1901.18529744
_cell_formula_units_Z   2
loop_
 _symmetry_equiv_pos_site_id
 _symmetry_equiv_pos_as_xyz
  1  'x, y, z'
loop_
 _atom_site_type_symbol
 _atom_site_label
 _atom_site_symmetry_multiplicity
 _atom_site_fract_x
 _atom_site_fract_y
 _atom_site_fract_z
 _atom_site_occupancy
 _atom_site_pbe_bader_charge
 _atom_site_pbe_bader_spin_density
 _atom_site_pbe_cm5_charge
 _atom_site_pbe_ddec_charge
 _atom_site_pbe_ddec_spin_density
 _atom_site_pbe_ddec_sum_bond_order
 _atom_site_pbe_magmom
Zn  Zn0  1  0.50732820  0.40028872  0.49563021  1  1.284079  0  0.663994  0.813496  0  2.440364  0
Zn  Zn1  1  0.49525331  0.59927647  0.50520181  1  1.279742  0  0.664343  0.812559  0  2.441505  0
H  H2  1  0.98331256  0.61252399  0.50257401  1  0.096131  0  0.107094  0.126324  0  0.990608  0
H  H3  1  0.01994838  0.38871137  0.50006058  1  0.105225  0  0.106952  0.125203  0  0.992933  0
H  H4  1  0.61939271  0.34823566  0.06674936  1  0.077113  0  0.104073  0.107317  0  0.995186  0
H  H5  1  0.62436547  0.62619554  0.93277939  1  0.092102  0  0.104217  0.10767  0  0.994202  0
H  H6  1  0.60223404  0.35792089  0.22852911  1  0.094039  0  0.107826  0.113712  0  0.990331  0
H  H7  1  0.60336186  0.62047731  0.77113968  1  0.096947  0  0.107978  0.113484  0  0.988064  0
H  H8  1  0.43380201  0.65164883  0.05316947  1  0.1092  0  0.101955  0.114499  0  1.008856  0
H  H9  1  0.42469284  0.36382016  0.94834972  1  0.087062  0  0.102066  0.114723  0  1.007567  0
H  H10  1  0.29997660  0.95525753  0.58038515  1  0.089141  0  0.11755  0.130645  0  0.971759  0
H  H11  1  0.69139006  0.04700335  0.57935607  1  0.109172  0  0.118316  0.132458  0  0.969117  0
H  H12  1  0.30678174  0.77356227  0.58292990  1  0.138402  0  0.135063  0.113986  0  0.957745  0
H  H13  1  0.68866256  0.22830886  0.57658178  1  0.142022  0  0.1346  0.114118  0  0.959053  0
H  H14  1  0.68092506  0.72991547  0.42221221  1  0.142143  0  0.133236  0.124161  0  0.967405  0
H  H15  1  0.31536787  0.26846347  0.41559881  1  0.153773  0  0.133529  0.121913  0  0.965251  0
C  C16  1  0.50771579  0.50554109  0.33030762  1  1.593036  0  0.211912  0.602744  0  4.168677  0
C  C17  1  0.50208121  0.49239590  0.67045890  1  1.610732  0  0.211926  0.60439  0  4.171868  0
C  C18  1  0.38658851  0.90751038  0.54493440  1  0.014751  0  -0.074964  -0.161877  0  3.958276  0
C  C19  1  0.60612062  0.09385177  0.54247569  1  0.00205  0  -0.074501  -0.163524  0  3.956107  0
C  C20  1  0.38938665  0.80756886  0.54682629  1  0.479926  0  0.063092  0.102039  0  3.9107  0
C  C21  1  0.60605440  0.19355746  0.54110801  1  0.46629  0  0.063907  0.106068  0  3.907717  0
C  C22  1  0.59973532  0.78247178  0.45678462  1  0.582836  0  0.060546  0.059895  0  3.893277  0
C  C23  1  0.39622381  0.21667061  0.45089919  1  0.565619  0  0.061746  0.062446  0  3.887284  0
C  C24  1  0.60388603  0.88208366  0.45248358  1  -0.048918  0  -0.007693  0.017929  0  3.941123  0
C  C25  1  0.38914783  0.11725581  0.45005140  1  -0.059571  0  -0.008589  0.016307  0  3.94181  0
C  C26  1  0.49586805  0.94700464  0.49728023  1  -0.025798  0  0.0041  0.058244  0  4.003613  0
C  C27  1  0.49627624  0.05338805  0.49607865  1  0.01714  0  0.004221  0.058646  0  4.003503  0
C  C28  1  0.20812651  0.52412145  0.50022636  1  1.594551  0  0.209165  0.631307  0  4.167479  0
C  C29  1  0.79485739  0.47690860  0.50229191  1  1.512288  0  0.208909  0.631296  0  4.165903  0
C  C30  1  0.04088873  0.53783331  0.50189555  1  -0.02379  0  -0.082388  -0.170537  0  3.891648  0
C  C31  1  0.96218684  0.46333718  0.50192809  1  -0.031506  0  -0.080162  -0.165091  0  3.889422  0
C  C32  1  0.57497320  0.41659124  0.09868222  1  -0.039333  0  -0.093564  -0.143524  0  3.997177  0
C  C33  1  0.57608297  0.56768512  0.90132088  1  -0.08104  0  -0.09357  -0.142468  0  3.997111  0
C  C34  1  0.56690769  0.42193085  0.18878122  1  -0.016144  0  -0.080623  -0.073449  0  3.988885  0
C  C35  1  0.56582742  0.56426968  0.81125390  1  -0.035605  0  -0.081465  -0.075668  0  3.989089  0
C  C36  1  0.51336021  0.50900820  0.23267402  1  0.03146  0  -0.019955  -0.076411  0  3.931062  0
C  C37  1  0.50768623  0.48889183  0.76809125  1  -0.009741  0  -0.019031  -0.07365  0  3.932987  0
C  C38  1  0.46854246  0.59180656  0.18167921  1  -0.077406  0  -0.006941  0.114613  0  3.927866  0
C  C39  1  0.45972575  0.41616835  0.81950248  1  -0.115288  0  -0.00876  0.111327  0  3.931549  0
C  C40  1  0.47508527  0.58715244  0.09103241  1  -0.093284  0  -0.098697  -0.195963  0  3.970183  0
C  C41  1  0.46837898  0.41916800  0.91005577  1  0.040813  0  -0.098206  -0.193986  0  3.968363  0
C  C42  1  0.52757767  0.49949080  0.04828590  1  0.062212  0  -0.001881  0.092457  0  3.999304  0
C  C43  1  0.52619793  0.49511738  0.95219400  1  -0.046761  0  -0.001812  0.089889  0  4.001095  0
Br  Br44  1  0.38480522  0.71457717  0.23014153  1  -0.073384  0  -0.008506  -0.093943  0  1.37525  0
Br  Br45  1  0.36833999  0.31283002  0.77091918  1  -0.073115  0  -0.010459  -0.09522  0  1.358029  0
Br  Br46  1  0.75528607  0.92582198  0.38360498  1  -0.028894  0  0.045889  -0.038841  0  1.35336  0
Br  Br47  1  0.23565232  0.07185146  0.38398569  1  -0.025217  0  0.044786  -0.039418  0  1.349744  0
N  N48  1  0.49460653  0.74692744  0.50356063  1  -1.234614  0  -0.310179  -0.168143  0  3.518142  0
N  N49  1  0.50328971  0.25303181  0.49545173  1  -1.223326  0  -0.309869  -0.169677  0  3.517665  0
O  O50  1  0.48477223  0.42513843  0.36330363  1  -1.163256  0  -0.320749  -0.548725  0  2.300226  0
O  O51  1  0.47081912  0.57663977  0.63705054  1  -1.161071  0  -0.321157  -0.550379  0  2.297333  0
O  O52  1  0.52863872  0.58089724  0.37241460  1  -1.167406  0  -0.31656  -0.548923  0  2.378488  0
O  O53  1  0.53204083  0.41281386  0.62917343  1  -1.165283  0  -0.317151  -0.549903  0  2.366849  0
O  O54  1  0.27860628  0.43807887  0.50760950  1  -1.17419  0  -0.319107  -0.55385  0  2.319006  0
O  O55  1  0.72452124  0.56148871  0.51837451  1  -1.166145  0  -0.320755  -0.551246  0  2.303741  0
O  O56  1  0.26801737  0.60123138  0.49174087  1  -1.158316  0  -0.321798  -0.550293  0  2.279645  0
O  O57  1  0.73519190  0.40103802  0.48600628  1  -1.151596  0  -0.3239  -0.551154  0  2.270155  0
