# generated using pymatgen
data_CdH6C5BrO7
_symmetry_space_group_name_H-M   'P 1'
_cell_length_a   6.34123561
_cell_length_b   9.07661922
_cell_length_c   16.26746527
_cell_angle_alpha   100.65060594
_cell_angle_beta   89.99927954
_cell_angle_gamma   90.00191886
_symmetry_Int_Tables_number   1
_chemical_formula_structural   CdH6C5BrO7
_chemical_formula_sum   'Cd4 H24 C20 Br4 O28'
_cell_volume   920.17596752
_cell_formula_units_Z   4
loop_
 _symmetry_equiv_pos_site_id
 _symmetry_equiv_pos_as_xyz
  1  'x, y, z'
loop_
 _atom_site_type_symbol
 _atom_site_label
 _atom_site_symmetry_multiplicity
 _atom_site_fract_x
 _atom_site_fract_y
 _atom_site_fract_z
 _atom_site_occupancy
 _atom_site_hle17_bader_spin_density
 _atom_site_hle17_ddec_charge
 _atom_site_hle17_ddec_spin_density
 _atom_site_hle17_ddec_sum_bond_order
 _atom_site_hle17_magmom
 _atom_site_hse06_10hf_bader_spin_density
 _atom_site_hse06_10hf_ddec_charge
 _atom_site_hse06_10hf_ddec_spin_density
 _atom_site_hse06_10hf_ddec_sum_bond_order
 _atom_site_hse06_10hf_magmom
 _atom_site_hse06_bader_spin_density
 _atom_site_hse06_ddec_charge
 _atom_site_hse06_ddec_spin_density
 _atom_site_hse06_ddec_sum_bond_order
 _atom_site_hse06_magmom
 _atom_site_pbe_bader_spin_density
 _atom_site_pbe_cm5_charge
 _atom_site_pbe_ddec_charge
 _atom_site_pbe_ddec_spin_density
 _atom_site_pbe_ddec_sum_bond_order
 _atom_site_pbe_magmom
Cd  Cd0  1  0.30526282  0.46192230  0.32254533  1  0  1.281689  0  1.493943  0  0  1.111288  0  1.919426  0  0  1.169154  0  1.859813  0  0  0.775287  1.069963  0  1.960624  0
Cd  Cd1  1  0.80527310  0.03806970  0.17744969  1  0  1.281776  0  1.493999  0  0  1.11136  0  1.91948  0  0  1.169223  0  1.859868  0  0  0.775267  1.070026  0  1.960675  0
Cd  Cd2  1  0.69472997  0.53806984  0.67745605  1  0  1.281761  0  1.493823  0  0  1.111329  0  1.919324  0  0  1.16922  0  1.85966  0  0  0.775269  1.069996  0  1.960519  0
Cd  Cd3  1  0.19476542  0.96194351  0.82254509  1  0  1.281722  0  1.493831  0  0  1.111212  0  1.91939  0  0  1.169114  0  1.859714  0  0  0.775224  1.069883  0  1.960589  0
H  H4  1  0.40946208  0.74769578  0.41236872  1  0  0.408349  0  0.85631  0  0  0.382064  0  0.926918  0  0  0.388989  0  0.920531  0  0  0.302665  0.376554  0  0.932294  0
H  H5  1  0.90947489  0.75229591  0.08762451  1  0  0.408404  0  0.856209  0  0  0.382098  0  0.926841  0  0  0.389019  0  0.920459  0  0  0.302644  0.376589  0  0.932217  0
H  H6  1  0.59054963  0.25227950  0.58762922  1  0  0.408379  0  0.856181  0  0  0.38205  0  0.926824  0  0  0.388972  0  0.920446  0  0  0.302655  0.376541  0  0.932203  0
H  H7  1  0.09048478  0.24771719  0.91236597  1  0  0.408683  0  0.855901  0  0  0.382294  0  0.92662  0  0  0.389211  0  0.920249  0  0  0.30275  0.376786  0  0.931998  0
H  H8  1  0.40711676  0.64766966  0.48132371  1  0  0.442059  0  0.841806  0  0  0.408567  0  0.913392  0  0  0.420256  0  0.896586  0  0  0.296919  0.400169  0  0.925417  0
H  H9  1  0.90714131  0.85233448  0.01867380  1  0  0.442046  0  0.841749  0  0  0.408567  0  0.913355  0  0  0.420255  0  0.896549  0  0  0.296945  0.400166  0  0.925385  0
H  H10  1  0.59287603  0.35231913  0.51867797  1  0  0.442068  0  0.841803  0  0  0.408587  0  0.913369  0  0  0.420272  0  0.89657  0  0  0.296926  0.40019  0  0.925393  0
H  H11  1  0.09282625  0.14769885  0.98132044  1  0  0.442185  0  0.841665  0  0  0.408662  0  0.913269  0  0  0.420359  0  0.896448  0  0  0.296955  0.400253  0  0.925302  0
H  H12  1  0.69716483  0.48678339  0.23375568  1  0  0.433675  0  0.862469  0  0  0.399757  0  0.929604  0  0  0.411281  0  0.912984  0  0  0.291833  0.391649  0  0.941273  0
H  H13  1  0.19719240  0.01321031  0.26624340  1  0  0.43373  0  0.8624  0  0  0.39987  0  0.929458  0  0  0.4114  0  0.912829  0  0  0.291857  0.391758  0  0.941132  0
H  H14  1  0.30284372  0.51319651  0.76624761  1  0  0.433884  0  0.862172  0  0  0.399988  0  0.929292  0  0  0.411519  0  0.912662  0  0  0.291905  0.391878  0  0.940964  0
H  H15  1  0.80282247  0.98678180  0.73375676  1  0  0.433863  0  0.862199  0  0  0.399933  0  0.929368  0  0  0.411459  0  0.912746  0  0  0.291902  0.391826  0  0.941035  0
H  H16  1  0.66360624  0.65875757  0.28198346  1  0  0.440486  0  0.845053  0  0  0.406907  0  0.911901  0  0  0.417637  0  0.89622  0  0  0.293178  0.399113  0  0.923274  0
H  H17  1  0.16360007  0.84123243  0.21802086  1  0  0.44044  0  0.845125  0  0  0.406928  0  0.911907  0  0  0.417657  0  0.896225  0  0  0.293155  0.399126  0  0.923293  0
H  H18  1  0.33639286  0.34121776  0.71801632  1  0  0.440413  0  0.845134  0  0  0.406938  0  0.911881  0  0  0.417665  0  0.896205  0  0  0.293173  0.399132  0  0.923276  0
H  H19  1  0.83639587  0.15875547  0.78198935  1  0  0.440432  0  0.845146  0  0  0.40676  0  0.912138  0  0  0.417492  0  0.896456  0  0  0.29309  0.398964  0  0.923513  0
H  H20  1  0.84983444  0.47644685  0.34470346  1  0  0.425935  0  0.87446  0  0  0.394981  0  0.938416  0  0  0.405618  0  0.922979  0  0  0.284992  0.387283  0  0.949617  0
H  H21  1  0.34981503  0.02353103  0.15528963  1  0  0.425822  0  0.874612  0  0  0.394935  0  0.938492  0  0  0.405574  0  0.923053  0  0  0.284908  0.387235  0  0.949694  0
H  H22  1  0.15018043  0.52353971  0.65529801  1  0  0.425801  0  0.874617  0  0  0.394912  0  0.938498  0  0  0.405547  0  0.923065  0  0  0.284933  0.387212  0  0.9497  0
H  H23  1  0.65020456  0.97645213  0.84471029  1  0  0.425744  0  0.874725  0  0  0.394796  0  0.938656  0  0  0.405431  0  0.923223  0  0  0.28493  0.387097  0  0.949857  0
H  H24  1  0.91885108  0.31442734  0.35603013  1  0  0.44067  0  0.836092  0  0  0.409993  0  0.90354  0  0  0.420053  0  0.888886  0  0  0.298887  0.402616  0  0.914321  0
H  H25  1  0.41888819  0.18554381  0.14395772  1  0  0.440596  0  0.835886  0  0  0.409926  0  0.903548  0  0  0.419981  0  0.888902  0  0  0.298849  0.402553  0  0.914322  0
H  H26  1  0.08115432  0.68555909  0.64396641  1  0  0.440563  0  0.835984  0  0  0.409897  0  0.903598  0  0  0.419954  0  0.888947  0  0  0.298804  0.402519  0  0.914376  0
H  H27  1  0.58112825  0.81444160  0.85604241  1  0  0.440492  0  0.836036  0  0  0.409817  0  0.903698  0  0  0.419874  0  0.889051  0  0  0.298784  0.40244  0  0.914476  0
C  C28  1  0.69705808  0.98892372  0.33662364  1  0  0.652628  0  3.939043  0  0  0.597465  0  4.243314  0  0  0.631203  0  4.236888  0  0  0.194137  0.574507  0  4.246685  0
C  C29  1  0.19706894  0.51108379  0.16338498  1  0  0.652924  0  3.939895  0  0  0.597611  0  4.244361  0  0  0.631371  0  4.237917  0  0  0.194223  0.574661  0  4.24772  0
C  C30  1  0.30292682  0.01107172  0.66337560  1  0  0.652529  0  3.941206  0  0  0.597361  0  4.245416  0  0  0.631093  0  4.239007  0  0  0.194031  0.574419  0  4.24877  0
C  C31  1  0.80291754  0.48894112  0.83662937  1  0  0.65261  0  3.940028  0  0  0.597299  0  4.244463  0  0  0.631044  0  4.238056  0  0  0.194034  0.574339  0  4.247825  0
C  C32  1  0.60491495  0.99620306  0.42278316  1  0  -0.090636  0  3.736872  0  0  -0.085969  0  3.986533  0  0  -0.088042  0  4.001505  0  0  -0.016424  -0.084176  0  3.977083  0
C  C33  1  0.10488995  0.50379913  0.07722679  1  0  -0.091123  0  3.736464  0  0  -0.086409  0  3.986325  0  0  -0.088463  0  4.001218  0  0  -0.016581  -0.084622  0  3.976877  0
C  C34  1  0.39509834  0.00377158  0.57723316  1  0  -0.090637  0  3.735409  0  0  -0.086074  0  3.985217  0  0  -0.088128  0  4.000129  0  0  -0.016336  -0.084278  0  3.975738  0
C  C35  1  0.89509180  0.49623334  0.92277721  1  0  -0.090649  0  3.736158  0  0  -0.085942  0  3.985876  0  0  -0.087992  0  4.00077  0  0  -0.016344  -0.08415  0  3.976446  0
C  C36  1  0.67410346  0.90641293  0.47862042  1  0  0.008294  0  3.759235  0  0  0.004453  0  4.040452  0  0  0.008572  0  4.058581  0  0  -0.027521  0.00142  0  4.028928  0
C  C37  1  0.17410348  0.59361848  0.02139139  1  0  0.008425  0  3.758458  0  0  0.004591  0  4.039765  0  0  0.00871  0  4.05792  0  0  -0.027312  0.001569  0  4.028242  0
C  C38  1  0.32587671  0.09361599  0.52137648  1  0  0.008135  0  3.757868  0  0  0.004288  0  4.039279  0  0  0.008414  0  4.057415  0  0  -0.027573  0.001261  0  4.027759  0
C  C39  1  0.82589561  0.40641444  0.97862986  1  0  0.008034  0  3.759334  0  0  0.004267  0  4.040603  0  0  0.008392  0  4.058751  0  0  -0.02768  0.001229  0  4.029078  0
C  C40  1  0.43279031  0.09247815  0.44586859  1  0  -0.100084  0  3.751363  0  0  -0.097124  0  4.002805  0  0  -0.099144  0  4.018023  0  0  -0.020491  -0.097263  0  3.994095  0
C  C41  1  0.93276531  0.40753750  0.05411900  1  0  -0.09959  0  3.751737  0  0  -0.096766  0  4.003152  0  0  -0.098799  0  4.018389  0  0  -0.020371  -0.096918  0  3.994495  0
C  C42  1  0.56724505  0.90750330  0.55410903  1  0  -0.100279  0  3.751927  0  0  -0.09717  0  4.003075  0  0  -0.099202  0  4.01834  0  0  -0.020637  -0.097348  0  3.994461  0
C  C43  1  0.06722275  0.59251044  0.94587848  1  0  -0.100281  0  3.751549  0  0  -0.097408  0  4.002963  0  0  -0.099423  0  4.018188  0  0  -0.020713  -0.097556  0  3.99425  0
C  C44  1  0.38294820  0.20874900  0.39421107  1  0  0.66226  0  3.940122  0  0  0.604117  0  4.242923  0  0  0.637769  0  4.236998  0  0  0.202766  0.58138  0  4.245817  0
C  C45  1  0.88290446  0.29126772  0.10578897  1  0  0.661743  0  3.940514  0  0  0.603715  0  4.243143  0  0  0.637382  0  4.237202  0  0  0.202535  0.580962  0  4.24605  0
C  C46  1  0.61706982  0.79125304  0.60578389  1  0  0.662399  0  3.939733  0  0  0.604278  0  4.242451  0  0  0.637927  0  4.236526  0  0  0.202857  0.581532  0  4.245346  0
C  C47  1  0.11708675  0.70875466  0.89421406  1  0  0.661907  0  3.941123  0  0  0.603904  0  4.243705  0  0  0.637552  0  4.237794  0  0  0.202693  0.581164  0  4.2466  0
Br  Br48  1  0.92292806  0.79025561  0.45611937  1  0  0.038738  0  1.416944  0  0  0.042555  0  1.69771  0  0  0.041091  0  1.687346  0  0  0.0841  0.043586  0  1.705735  0
Br  Br49  1  0.42291533  0.70973955  0.04388569  1  0  0.038797  0  1.417573  0  0  0.042666  0  1.698408  0  0  0.041189  0  1.68804  0  0  0.084104  0.043692  0  1.706424  0
Br  Br50  1  0.07708049  0.20971878  0.54388709  1  0  0.038911  0  1.417716  0  0  0.042784  0  1.698552  0  0  0.041304  0  1.688185  0  0  0.084217  0.043815  0  1.70657  0
Br  Br51  1  0.57707115  0.29030979  0.95612237  1  0  0.038812  0  1.417625  0  0  0.042637  0  1.698445  0  0  0.041149  0  1.688078  0  0  0.084177  0.043671  0  1.706471  0
O  O52  1  0.67771826  0.86824994  0.28383789  1  0  -0.641983  0  1.928188  0  0  -0.58372  0  2.152585  0  0  -0.610613  0  2.142325  0  0  -0.317165  -0.564471  0  2.158991  0
O  O53  1  0.17773964  0.63175084  0.21615927  1  0  -0.642104  0  1.928446  0  0  -0.583791  0  2.152977  0  0  -0.610688  0  2.142681  0  0  -0.317184  -0.564532  0  2.15938  0
O  O54  1  0.32226664  0.13171934  0.71614472  1  0  -0.641807  0  1.929195  0  0  -0.583586  0  2.153716  0  0  -0.610459  0  2.143383  0  0  -0.317057  -0.564328  0  2.160126  0
O  O55  1  0.82223265  0.36826960  0.78385526  1  0  -0.641893  0  1.928207  0  0  -0.58358  0  2.152773  0  0  -0.610436  0  2.142389  0  0  -0.317037  -0.564327  0  2.159186  0
O  O56  1  0.77480055  0.10959593  0.31938177  1  0  -0.639486  0  2.004593  0  0  -0.571606  0  2.249195  0  0  -0.601772  0  2.238851  0  0  -0.313158  -0.550216  0  2.255654  0
O  O57  1  0.27476145  0.39043114  0.18061146  1  0  -0.639286  0  2.005393  0  0  -0.571413  0  2.250137  0  0  -0.601578  0  2.239776  0  0  -0.313138  -0.550031  0  2.256599  0
O  O58  1  0.22522851  0.89041813  0.68060264  1  0  -0.639368  0  2.005604  0  0  -0.571453  0  2.250149  0  0  -0.60162  0  2.239809  0  0  -0.313079  -0.550063  0  2.2566  0
O  O59  1  0.72520295  0.60959593  0.81940001  1  0  -0.639443  0  2.005274  0  0  -0.571524  0  2.249952  0  0  -0.601698  0  2.239608  0  0  -0.313205  -0.550132  0  2.25641  0
O  O60  1  0.33292820  0.66522781  0.42954577  1  0  -0.799669  0  1.924787  0  0  -0.728169  0  2.133673  0  0  -0.751989  0  2.106305  0  0  -0.563801  -0.7108  0  2.153307  0
O  O61  1  0.83295027  0.83477182  0.07045169  1  0  -0.799698  0  1.92468  0  0  -0.728209  0  2.13372  0  0  -0.752039  0  2.106373  0  0  -0.563785  -0.710847  0  2.153353  0
O  O62  1  0.66707089  0.33476648  0.57045213  1  0  -0.799757  0  1.924626  0  0  -0.728196  0  2.133622  0  0  -0.752023  0  2.106271  0  0  -0.5638  -0.710831  0  2.15326  0
O  O63  1  0.16701729  0.16525712  0.92954582  1  0  -0.800074  0  1.92411  0  0  -0.72844  0  2.13331  0  0  -0.75227  0  2.10595  0  0  -0.563914  -0.711064  0  2.15298  0
O  O64  1  0.28563013  0.17632491  0.32568922  1  0  -0.622128  0  2.000527  0  0  -0.557079  0  2.230478  0  0  -0.585229  0  2.221363  0  0  -0.301578  -0.537067  0  2.235925  0
O  O65  1  0.78560745  0.32368630  0.17430236  1  0  -0.621809  0  2.001097  0  0  -0.55684  0  2.231054  0  0  -0.584982  0  2.22194  0  0  -0.301435  -0.53682  0  2.236498  0
O  O66  1  0.71437054  0.82366590  0.67430404  1  0  -0.622052  0  2.000619  0  0  -0.557027  0  2.230603  0  0  -0.585176  0  2.221496  0  0  -0.301551  -0.537018  0  2.236057  0
O  O67  1  0.21439953  0.67631022  0.82569514  1  0  -0.622112  0  2.0008  0  0  -0.557039  0  2.230602  0  0  -0.585198  0  2.221501  0  0  -0.301625  -0.537019  0  2.236039  0
O  O68  1  0.65144313  0.55211022  0.28711419  1  0  -0.861934  0  1.909991  0  0  -0.793336  0  2.098125  0  0  -0.816802  0  2.062773  0  0  -0.568266  -0.776438  0  2.122954  0
O  O69  1  0.15143353  0.94787881  0.21288896  1  0  -0.861922  0  1.910002  0  0  -0.793511  0  2.097929  0  0  -0.816957  0  2.062523  0  0  -0.568317  -0.776614  0  2.122766  0
O  O70  1  0.34857016  0.44787195  0.71289055  1  0  -0.862011  0  1.909866  0  0  -0.793628  0  2.097715  0  0  -0.817087  0  2.062306  0  0  -0.568345  -0.776728  0  2.122565  0
O  O71  1  0.84858133  0.05210100  0.78711125  1  0  -0.861961  0  1.909864  0  0  -0.793294  0  2.098069  0  0  -0.816755  0  2.062657  0  0  -0.568178  -0.776396  0  2.122906  0
O  O72  1  0.44911527  0.34082081  0.42471085  1  0  -0.634797  0  1.994495  0  0  -0.559406  0  2.221049  0  0  -0.589811  0  2.211509  0  0  -0.306918  -0.537696  0  2.22701  0
O  O73  1  0.94907910  0.15917030  0.07528772  1  0  -0.634887  0  1.994265  0  0  -0.559377  0  2.220621  0  0  -0.589805  0  2.211077  0  0  -0.306863  -0.537651  0  2.226578  0
O  O74  1  0.55089644  0.65915196  0.57527640  1  0  -0.63516  0  1.993908  0  0  -0.559741  0  2.220407  0  0  -0.59016  0  2.210871  0  0  -0.307067  -0.538017  0  2.226368  0
O  O75  1  0.05093892  0.84082708  0.92470003  1  0  -0.634679  0  1.994899  0  0  -0.559278  0  2.221323  0  0  -0.589694  0  2.211787  0  0  -0.306836  -0.537566  0  2.227284  0
O  O76  1  0.96452509  0.41961038  0.36638403  1  0  -0.844065  0  1.858808  0  0  -0.785743  0  2.052528  0  0  -0.80824  0  2.019068  0  0  -0.589445  -0.770106  0  2.076661  0
O  O77  1  0.46452919  0.08034009  0.13360862  1  0  -0.843941  0  1.858856  0  0  -0.785656  0  2.052568  0  0  -0.808158  0  2.019112  0  0  -0.589294  -0.77002  0  2.076697  0
O  O78  1  0.03547873  0.58036402  0.63362305  1  0  -0.843807  0  1.858825  0  0  -0.78554  0  2.052561  0  0  -0.808048  0  2.019108  0  0  -0.589283  -0.769898  0  2.076689  0
O  O79  1  0.53548567  0.91964409  0.86638770  1  0  -0.843708  0  1.858995  0  0  -0.785361  0  2.052928  0  0  -0.807869  0  2.019478  0  0  -0.589256  -0.769721  0  2.077058  0
