# generated using pymatgen
data_NaH7C3SO5
_symmetry_space_group_name_H-M   'P 1'
_cell_length_a   5.61023692
_cell_length_b   6.19525110
_cell_length_c   18.52359480
_cell_angle_alpha   89.99964460
_cell_angle_beta   96.16358153
_cell_angle_gamma   89.99938758
_symmetry_Int_Tables_number   1
_chemical_formula_structural   NaH7C3SO5
_chemical_formula_sum   'Na4 H28 C12 S4 O20'
_cell_volume   640.09970308
_cell_formula_units_Z   4
loop_
 _symmetry_equiv_pos_site_id
 _symmetry_equiv_pos_as_xyz
  1  'x, y, z'
loop_
 _atom_site_type_symbol
 _atom_site_label
 _atom_site_symmetry_multiplicity
 _atom_site_fract_x
 _atom_site_fract_y
 _atom_site_fract_z
 _atom_site_occupancy
 _atom_site_hle17_bader_spin_density
 _atom_site_hle17_ddec_charge
 _atom_site_hle17_ddec_spin_density
 _atom_site_hle17_ddec_sum_bond_order
 _atom_site_hle17_magmom
 _atom_site_hse06_10hf_bader_spin_density
 _atom_site_hse06_10hf_ddec_charge
 _atom_site_hse06_10hf_ddec_spin_density
 _atom_site_hse06_10hf_ddec_sum_bond_order
 _atom_site_hse06_10hf_magmom
 _atom_site_hse06_bader_spin_density
 _atom_site_hse06_ddec_charge
 _atom_site_hse06_ddec_spin_density
 _atom_site_hse06_ddec_sum_bond_order
 _atom_site_hse06_magmom
 _atom_site_pbe_bader_spin_density
 _atom_site_pbe_cm5_charge
 _atom_site_pbe_ddec_charge
 _atom_site_pbe_ddec_spin_density
 _atom_site_pbe_ddec_sum_bond_order
 _atom_site_pbe_magmom
Na  Na0  1  0.74889430  0.44067852  0.23313798  1  0  0.90408  0  0.37213  0  0  0.863185  0  0.524298  0  0  0.873071  0  0.502108  0  0  0.645808  0.855944  0  0.540192  0
Na  Na1  1  0.75109138  0.94067245  0.26686204  1  0  0.9041  0  0.372111  0  0  0.863173  0  0.524358  0  0  0.873053  0  0.502161  0  0  0.645805  0.855924  0  0.54025  0
Na  Na2  1  0.25109701  0.55932322  0.76686337  1  0  0.904099  0  0.372089  0  0  0.86318  0  0.524313  0  0  0.87306  0  0.502119  0  0  0.645808  0.855934  0  0.540205  0
Na  Na3  1  0.24889991  0.05931960  0.73313822  1  0  0.904103  0  0.372105  0  0  0.863193  0  0.524314  0  0  0.873069  0  0.50212  0  0  0.645821  0.855945  0  0.540207  0
H  H4  1  0.25502196  0.95644582  0.00589841  1  0  0.346263  0  0.926631  0  0  0.308659  0  1.029038  0  0  0.319901  0  1.016188  0  0  0.281024  0.300743  0  1.03809  0
H  H5  1  0.24498762  0.45643088  0.49410366  1  0  0.346253  0  0.926668  0  0  0.308673  0  1.029038  0  0  0.319903  0  1.016204  0  0  0.28103  0.300758  0  1.038103  0
H  H6  1  0.74498368  0.04356399  0.99410285  1  0  0.346187  0  0.92662  0  0  0.308598  0  1.029014  0  0  0.319836  0  1.016167  0  0  0.28102  0.300686  0  1.038075  0
H  H7  1  0.75501624  0.54357248  0.50589808  1  0  0.346251  0  0.926642  0  0  0.308676  0  1.029002  0  0  0.319907  0  1.016163  0  0  0.281022  0.300763  0  1.038064  0
H  H8  1  0.59559234  0.63604675  0.90734099  1  0  0.115218  0  0.951017  0  0  0.126506  0  1.015974  0  0  0.129077  0  1.014666  0  0  0.107119  0.124575  0  1.01694  0
H  H9  1  0.90442792  0.13605881  0.59266094  1  0  0.115192  0  0.950963  0  0  0.126468  0  1.015928  0  0  0.129036  0  1.014625  0  0  0.10709  0.124537  0  1.016896  0
H  H10  1  0.40441685  0.36395337  0.09265661  1  0  0.115252  0  0.951036  0  0  0.126529  0  1.015992  0  0  0.129097  0  1.014685  0  0  0.107134  0.124597  0  1.016958  0
H  H11  1  0.09558851  0.86394616  0.40734282  1  0  0.115026  0  0.950893  0  0  0.126337  0  1.015868  0  0  0.128906  0  1.014567  0  0  0.107035  0.124403  0  1.016843  0
H  H12  1  0.88812863  0.54092383  0.93617178  1  0  0.115637  0  0.953171  0  0  0.128864  0  1.017889  0  0  0.130779  0  1.016841  0  0  0.102448  0.127061  0  1.019305  0
H  H13  1  0.61188386  0.04092794  0.56382794  1  0  0.115713  0  0.953131  0  0  0.128947  0  1.017825  0  0  0.130858  0  1.016782  0  0  0.102493  0.12714  0  1.019253  0
H  H14  1  0.11187875  0.45907791  0.06382359  1  0  0.115697  0  0.953209  0  0  0.12893  0  1.017902  0  0  0.130842  0  1.016856  0  0  0.1025  0.127126  0  1.019317  0
H  H15  1  0.38813076  0.95907057  0.43617468  1  0  0.115675  0  0.953134  0  0  0.128901  0  1.017854  0  0  0.130816  0  1.016808  0  0  0.102482  0.127093  0  1.019278  0
H  H16  1  0.72400280  0.67864811  0.39365154  1  0  0.419247  0  0.885384  0  0  0.389221  0  0.949972  0  0  0.398834  0  0.935746  0  0  0.290622  0.382435  0  0.960007  0
H  H17  1  0.77599880  0.17864823  0.10635222  1  0  0.419478  0  0.885199  0  0  0.389431  0  0.949801  0  0  0.399043  0  0.935577  0  0  0.290678  0.382645  0  0.959836  0
H  H18  1  0.27599746  0.32135040  0.60634955  1  0  0.419198  0  0.885471  0  0  0.389167  0  0.950065  0  0  0.398779  0  0.935837  0  0  0.290572  0.382384  0  0.960095  0
H  H19  1  0.22399967  0.82135512  0.89364773  1  0  0.419465  0  0.885199  0  0  0.389428  0  0.94979  0  0  0.399042  0  0.935562  0  0  0.290668  0.382642  0  0.959825  0
H  H20  1  0.49599804  0.58608515  0.35180906  1  0  0.42668  0  0.873087  0  0  0.400245  0  0.929691  0  0  0.409618  0  0.915963  0  0  0.296997  0.393626  0  0.939393  0
H  H21  1  0.00400908  0.08609034  0.14819315  1  0  0.426439  0  0.873378  0  0  0.400044  0  0.929902  0  0  0.409426  0  0.916161  0  0  0.29694  0.393428  0  0.9396  0
H  H22  1  0.50399508  0.41391336  0.64819396  1  0  0.426623  0  0.873173  0  0  0.400198  0  0.929757  0  0  0.409574  0  0.916025  0  0  0.297005  0.393579  0  0.939462  0
H  H23  1  0.99599298  0.91391625  0.85180800  1  0  0.426606  0  0.873168  0  0  0.400175  0  0.929767  0  0  0.409558  0  0.916026  0  0  0.296968  0.393558  0  0.939467  0
H  H24  1  0.12720714  0.62212630  0.30167591  1  0  0.406826  0  0.909807  0  0  0.376457  0  0.974184  0  0  0.38727  0  0.958233  0  0  0.286752  0.368815  0  0.985463  0
H  H25  1  0.37278692  0.12213021  0.19832041  1  0  0.406775  0  0.909861  0  0  0.376398  0  0.974245  0  0  0.387222  0  0.958276  0  0  0.286755  0.368756  0  0.985523  0
H  H26  1  0.87278593  0.37786737  0.69832225  1  0  0.40675  0  0.909917  0  0  0.376389  0  0.974266  0  0  0.387203  0  0.958312  0  0  0.286724  0.368747  0  0.985544  0
H  H27  1  0.62720974  0.87787314  0.80167895  1  0  0.406823  0  0.909785  0  0  0.376457  0  0.974163  0  0  0.387282  0  0.958193  0  0  0.286748  0.368814  0  0.985443  0
H  H28  1  0.21131504  0.70793423  0.22937900  1  0  0.425177  0  0.875951  0  0  0.399915  0  0.930956  0  0  0.409403  0  0.916896  0  0  0.297342  0.393209  0  0.940896  0
H  H29  1  0.28868510  0.20793275  0.27061787  1  0  0.42526  0  0.87586  0  0  0.399988  0  0.930875  0  0  0.409471  0  0.916821  0  0  0.297409  0.393286  0  0.940812  0
H  H30  1  0.78868521  0.29206751  0.77062046  1  0  0.425127  0  0.876006  0  0  0.399848  0  0.931046  0  0  0.409334  0  0.916988  0  0  0.297332  0.393142  0  0.940987  0
H  H31  1  0.71130441  0.79205930  0.72938341  1  0  0.425211  0  0.875928  0  0  0.39992  0  0.930978  0  0  0.409404  0  0.916923  0  0  0.297388  0.393206  0  0.940925  0
C  C32  1  0.38253497  0.80073453  0.12189435  1  0  0.62022  0  3.88721  0  0  0.56976  0  4.183894  0  0  0.600859  0  4.17791  0  0  0.215802  0.549179  0  4.186483  0
C  C33  1  0.11745872  0.30072784  0.37811347  1  0  0.620366  0  3.886396  0  0  0.569893  0  4.183092  0  0  0.600972  0  4.177117  0  0  0.215918  0.549302  0  4.185692  0
C  C34  1  0.61746708  0.19926237  0.87810625  1  0  0.620239  0  3.887339  0  0  0.569829  0  4.183925  0  0  0.600911  0  4.177946  0  0  0.215798  0.549245  0  4.186522  0
C  C35  1  0.88253261  0.69928197  0.62189112  1  0  0.62035  0  3.886578  0  0  0.569886  0  4.1833  0  0  0.600985  0  4.177319  0  0  0.21582  0.549296  0  4.1859  0
C  C36  1  0.39263992  0.68735317  0.04757181  1  0  0.181068  0  3.618116  0  0  0.185678  0  3.872346  0  0  0.189032  0  3.884444  0  0  0.075973  0.182961  0  3.864095  0
C  C37  1  0.10736765  0.18734357  0.45242481  1  0  0.180751  0  3.618524  0  0  0.185385  0  3.872737  0  0  0.188742  0  3.884835  0  0  0.075931  0.182673  0  3.864495  0
C  C38  1  0.60736926  0.31265502  0.95242417  1  0  0.180904  0  3.618301  0  0  0.185574  0  3.872369  0  0  0.188953  0  3.88446  0  0  0.075976  0.182863  0  3.864121  0
C  C39  1  0.89264338  0.81264526  0.54757770  1  0  0.180736  0  3.618516  0  0  0.185333  0  3.872804  0  0  0.188674  0  3.884903  0  0  0.075904  0.182622  0  3.864564  0
C  C40  1  0.70174440  0.54373159  0.94959383  1  0  -0.208384  0  3.626516  0  0  -0.249021  0  3.87824  0  0  -0.25031  0  3.887903  0  0  -0.15343  -0.247505  0  3.871664  0
C  C41  1  0.79826805  0.04372286  0.55040588  1  0  -0.208353  0  3.626609  0  0  -0.24901  0  3.878541  0  0  -0.250291  0  3.888211  0  0  -0.153375  -0.247476  0  3.871913  0
C  C42  1  0.29826839  0.45627499  0.05040549  1  0  -0.208532  0  3.626665  0  0  -0.249139  0  3.878397  0  0  -0.250415  0  3.888063  0  0  -0.153463  -0.247634  0  3.871855  0
C  C43  1  0.20174839  0.95626597  0.44959896  1  0  -0.208114  0  3.626267  0  0  -0.24878  0  3.878118  0  0  -0.250089  0  3.887832  0  0  -0.153326  -0.247236  0  3.87147  0
S  S44  1  0.71656146  0.68652852  0.03497117  1  0  -0.021709  0  2.309814  0  0  -0.025101  0  2.654587  0  0  -0.024956  0  2.647674  0  0  0.011597  -0.026108  0  2.660887  0
S  S45  1  0.78344537  0.18652343  0.46502788  1  0  -0.021607  0  2.30981  0  0  -0.02501  0  2.654643  0  0  -0.024869  0  2.647738  0  0  0.011643  -0.026033  0  2.660938  0
S  S46  1  0.28344054  0.31347645  0.96502349  1  0  -0.021661  0  2.309665  0  0  -0.02508  0  2.654439  0  0  -0.024945  0  2.647528  0  0  0.011603  -0.026089  0  2.66074  0
S  S47  1  0.21656028  0.81347023  0.53497392  1  0  -0.02167  0  2.309855  0  0  -0.025048  0  2.654675  0  0  -0.024905  0  2.647784  0  0  0.011609  -0.026071  0  2.660968  0
O  O48  1  0.47647148  0.70588993  0.17849599  1  0  -0.713748  0  2.007173  0  0  -0.664684  0  2.248082  0  0  -0.687195  0  2.236096  0  0  -0.394964  -0.648826  0  2.255523  0
O  O49  1  0.02350176  0.20587391  0.32149572  1  0  -0.713952  0  2.006378  0  0  -0.664862  0  2.247291  0  0  -0.687395  0  2.235353  0  0  -0.395149  -0.649008  0  2.25474  0
O  O50  1  0.52352517  0.29411019  0.82150174  1  0  -0.713842  0  2.007126  0  0  -0.664747  0  2.247953  0  0  -0.687285  0  2.236033  0  0  -0.394973  -0.648889  0  2.255395  0
O  O51  1  0.97648237  0.79411814  0.67850432  1  0  -0.713828  0  2.006742  0  0  -0.664746  0  2.247713  0  0  -0.687242  0  2.235687  0  0  -0.395022  -0.648888  0  2.255154  0
O  O52  1  0.27968203  0.98339915  0.11957302  1  0  -0.628253  0  2.040271  0  0  -0.555294  0  2.249789  0  0  -0.58155  0  2.242131  0  0  -0.301408  -0.537205  0  2.254555  0
O  O53  1  0.22033969  0.48339788  0.38042235  1  0  -0.628311  0  2.039993  0  0  -0.555348  0  2.249567  0  0  -0.581524  0  2.24185  0  0  -0.30135  -0.537252  0  2.254333  0
O  O54  1  0.72032182  0.01661389  0.88042764  1  0  -0.628234  0  2.040436  0  0  -0.555329  0  2.250001  0  0  -0.581583  0  2.242347  0  0  -0.30142  -0.537247  0  2.254778  0
O  O55  1  0.77964802  0.51659095  0.61957780  1  0  -0.62835  0  2.039729  0  0  -0.555407  0  2.24931  0  0  -0.581636  0  2.241628  0  0  -0.30138  -0.537326  0  2.254088  0
O  O56  1  0.25555114  0.80128545  0.99189710  1  0  -0.564208  0  2.223078  0  0  -0.512963  0  2.455506  0  0  -0.530922  0  2.44576  0  0  -0.375577  -0.499764  0  2.462615  0
O  O57  1  0.24444266  0.30127965  0.50810011  1  0  -0.564041  0  2.223265  0  0  -0.512793  0  2.455655  0  0  -0.530749  0  2.445921  0  0  -0.375576  -0.499593  0  2.462733  0
O  O58  1  0.74444189  0.19872275  0.00809782  1  0  -0.564055  0  2.22319  0  0  -0.512816  0  2.455569  0  0  -0.530773  0  2.445827  0  0  -0.375565  -0.499576  0  2.462567  0
O  O59  1  0.75555224  0.69872209  0.49190189  1  0  -0.564047  0  2.223187  0  0  -0.512792  0  2.455589  0  0  -0.530737  0  2.445847  0  0  -0.375568  -0.49956  0  2.462595  0
O  O60  1  0.65267694  0.64837412  0.34359377  1  0  -0.900483  0  1.759138  0  0  -0.860182  0  1.933668  0  0  -0.876098  0  1.902809  0  0  -0.678356  -0.848897  0  1.955279  0
O  O61  1  0.84730706  0.14838714  0.15640356  1  0  -0.900466  0  1.759367  0  0  -0.860188  0  1.93395  0  0  -0.876106  0  1.903069  0  0  -0.678334  -0.848904  0  1.955553  0
O  O62  1  0.34731615  0.35162116  0.65640655  1  0  -0.900387  0  1.759274  0  0  -0.860117  0  1.933859  0  0  -0.876009  0  1.902969  0  0  -0.678337  -0.848831  0  1.955458  0
O  O63  1  0.15268781  0.85161944  0.84359520  1  0  -0.900633  0  1.759148  0  0  -0.860338  0  1.933718  0  0  -0.876247  0  1.90282  0  0  -0.678372  -0.849047  0  1.955326  0
O  O64  1  0.06725712  0.69483594  0.25524897  1  0  -0.923552  0  1.775907  0  0  -0.88118  0  1.949484  0  0  -0.896763  0  1.915955  0  0  -0.707773  -0.870193  0  1.972981  0
O  O65  1  0.43272711  0.19483679  0.24475229  1  0  -0.923614  0  1.775957  0  0  -0.881229  0  1.94959  0  0  -0.896805  0  1.916047  0  0  -0.707848  -0.870242  0  1.973083  0
O  O66  1  0.93273594  0.30516580  0.74474811  1  0  -0.923454  0  1.776076  0  0  -0.881042  0  1.949648  0  0  -0.896638  0  1.916148  0  0  -0.707748  -0.870051  0  1.973142  0
O  O67  1  0.56726240  0.80516172  0.75524792  1  0  -0.923579  0  1.775882  0  0  -0.881194  0  1.949498  0  0  -0.896764  0  1.915934  0  0  -0.707799  -0.87019  0  1.97302  0
