# generated using pymatgen
data_CdH17C19N3O8
_symmetry_space_group_name_H-M   'P 1'
_cell_length_a   10.03678781
_cell_length_b   10.39047940
_cell_length_c   11.27365881
_cell_angle_alpha   95.00956928
_cell_angle_beta   88.19082456
_cell_angle_gamma   122.08459243
_symmetry_Int_Tables_number   1
_chemical_formula_structural   CdH17C19N3O8
_chemical_formula_sum   'Cd2 H34 C38 N6 O16'
_cell_volume   992.16833255
_cell_formula_units_Z   2
loop_
 _symmetry_equiv_pos_site_id
 _symmetry_equiv_pos_as_xyz
  1  'x, y, z'
loop_
 _atom_site_type_symbol
 _atom_site_label
 _atom_site_symmetry_multiplicity
 _atom_site_fract_x
 _atom_site_fract_y
 _atom_site_fract_z
 _atom_site_occupancy
 _atom_site_hle17_bader_spin_density
 _atom_site_hle17_ddec_charge
 _atom_site_hle17_ddec_spin_density
 _atom_site_hle17_ddec_sum_bond_order
 _atom_site_hle17_magmom
 _atom_site_hse06_10hf_bader_spin_density
 _atom_site_hse06_10hf_ddec_charge
 _atom_site_hse06_10hf_ddec_spin_density
 _atom_site_hse06_10hf_ddec_sum_bond_order
 _atom_site_hse06_10hf_magmom
 _atom_site_hse06_bader_spin_density
 _atom_site_hse06_ddec_charge
 _atom_site_hse06_ddec_spin_density
 _atom_site_hse06_ddec_sum_bond_order
 _atom_site_hse06_magmom
 _atom_site_pbe_bader_spin_density
 _atom_site_pbe_cm5_charge
 _atom_site_pbe_ddec_charge
 _atom_site_pbe_ddec_spin_density
 _atom_site_pbe_ddec_sum_bond_order
 _atom_site_pbe_magmom
Cd  Cd0  1  0.71324085  0.39511407  0.02905807  1  0  1.176382  0  1.605481  0  0  0.993189  0  2.039392  0  0  1.050682  0  1.985103  0  0  0.765024  0.949308  0  2.07857  0
Cd  Cd1  1  0.28675370  0.60488250  0.97094087  1  0  1.176498  0  1.60547  0  0  0.993293  0  2.039373  0  0  1.050783  0  1.985074  0  0  0.765065  0.949416  0  2.078553  0
H  H2  1  0.97716813  0.41895776  0.13644495  1  0  0.434527  0  0.852925  0  0  0.405173  0  0.918733  0  0  0.415308  0  0.904045  0  0  0.299202  0.398058  0  0.929037  0
H  H3  1  0.02282635  0.58104097  0.86356125  1  0  0.434539  0  0.85291  0  0  0.405138  0  0.918821  0  0  0.415273  0  0.90413  0  0  0.299155  0.398016  0  0.929133  0
H  H4  1  0.02896493  0.58800557  0.13101260  1  0  0.419023  0  0.892701  0  0  0.385145  0  0.962571  0  0  0.396068  0  0.946874  0  0  0.286627  0.377342  0  0.973834  0
H  H5  1  0.97103039  0.41199437  0.86898659  1  0  0.418974  0  0.892764  0  0  0.385115  0  0.962602  0  0  0.396041  0  0.946902  0  0  0.286624  0.377312  0  0.973866  0
H  H6  1  0.13667868  0.01561432  0.63779345  1  0  0.395374  0  0.879438  0  0  0.371789  0  0.950453  0  0  0.381866  0  0.938466  0  0  0.309293  0.364741  0  0.958735  0
H  H7  1  0.86331721  0.98437552  0.36221031  1  0  0.395453  0  0.879283  0  0  0.371864  0  0.950317  0  0  0.38194  0  0.938327  0  0  0.309321  0.364814  0  0.958604  0
H  H8  1  0.42429245  0.32335529  0.91500447  1  0  0.428586  0  0.88012  0  0  0.392825  0  0.952118  0  0  0.405004  0  0.934468  0  0  0.2841  0.384004  0  0.964913  0
H  H9  1  0.57569597  0.67664324  0.08500086  1  0  0.428645  0  0.880051  0  0  0.392894  0  0.952024  0  0  0.405068  0  0.934382  0  0  0.284172  0.384075  0  0.964816  0
H  H10  1  0.55011102  0.35453620  0.81400233  1  0  0.409357  0  0.84642  0  0  0.388072  0  0.911231  0  0  0.396078  0  0.902473  0  0  0.308127  0.382394  0  0.917408  0
H  H11  1  0.44987214  0.64545772  0.18599825  1  0  0.409358  0  0.846463  0  0  0.387999  0  0.911367  0  0  0.396001  0  0.902616  0  0  0.30813  0.382321  0  0.917541  0
H  H12  1  0.37299453  0.92920949  0.29623806  1  0  0.300732  0  0.879452  0  0  0.288218  0  0.934257  0  0  0.294592  0  0.93006  0  0  0.326171  0.283513  0  0.937557  0
H  H13  1  0.62701632  0.07079326  0.70375771  1  0  0.300826  0  0.879244  0  0  0.288265  0  0.934128  0  0  0.294638  0  0.929933  0  0  0.326169  0.283561  0  0.937428  0
H  H14  1  0.72489079  0.89476696  0.03753222  1  0  0.114042  0  0.968688  0  0  0.123759  0  1.032765  0  0  0.127546  0  1.029568  0  0  0.105487  0.120971  0  1.035284  0
H  H15  1  0.27510730  0.10523301  0.96247495  1  0  0.113897  0  0.96869  0  0  0.123655  0  1.032746  0  0  0.127428  0  1.029566  0  0  0.105448  0.120876  0  1.035257  0
H  H16  1  0.99223065  0.81121912  0.76716445  1  0  0.118658  0  0.9437  0  0  0.128227  0  1.006186  0  0  0.132472  0  1.002738  0  0  0.107948  0.125203  0  1.008613  0
H  H17  1  0.00776388  0.18877401  0.23284223  1  0  0.118679  0  0.943588  0  0  0.128169  0  1.006174  0  0  0.132411  0  1.002732  0  0  0.107941  0.125143  0  1.008605  0
H  H18  1  0.97305049  0.21543871  0.77519575  1  0  0.118488  0  0.937158  0  0  0.131808  0  0.99483  0  0  0.135183  0  0.992678  0  0  0.109628  0.129686  0  0.995833  0
H  H19  1  0.02694716  0.78456017  0.22480690  1  0  0.118476  0  0.937202  0  0  0.131794  0  0.994872  0  0  0.135172  0  0.992718  0  0  0.109639  0.129671  0  0.995876  0
H  H20  1  0.21535480  0.76456105  0.65550407  1  0  0.115164  0  0.937299  0  0  0.124758  0  0.997223  0  0  0.128617  0  0.994876  0  0  0.111719  0.122145  0  0.998601  0
H  H21  1  0.78466200  0.23544529  0.34448839  1  0  0.115255  0  0.937152  0  0  0.124808  0  0.997099  0  0  0.128666  0  0.994754  0  0  0.111753  0.122194  0  0.998477  0
H  H22  1  0.19231201  0.45380894  0.29367670  1  0  0.069748  0  0.972347  0  0  0.075427  0  1.041202  0  0  0.078066  0  1.039748  0  0  0.104239  0.073556  0  1.042212  0
H  H23  1  0.80769630  0.54619701  0.70632642  1  0  0.069792  0  0.972199  0  0  0.075461  0  1.041071  0  0  0.078102  0  1.039616  0  0  0.104239  0.073592  0  1.04208  0
H  H24  1  0.25944986  0.71476526  0.27337876  1  0  0.108533  0  1.000245  0  0  0.116506  0  1.064624  0  0  0.120675  0  1.061965  0  0  0.105604  0.113477  0  1.066823  0
H  H25  1  0.74055627  0.28523620  0.72661871  1  0  0.108511  0  1.000326  0  0  0.116509  0  1.064675  0  0  0.120679  0  1.062016  0  0  0.105614  0.11348  0  1.066874  0
H  H26  1  0.30813586  0.21158015  0.47932053  1  0  0.134263  0  0.937036  0  0  0.142716  0  0.994171  0  0  0.14701  0  0.990189  0  0  0.119626  0.139524  0  0.997154  0
H  H27  1  0.69186699  0.78841894  0.52067856  1  0  0.134239  0  0.937068  0  0  0.142702  0  0.994188  0  0  0.146996  0  0.990206  0  0  0.119605  0.13951  0  0.997168  0
H  H28  1  0.42791721  0.47248522  0.41262166  1  0  0.099656  0  0.97854  0  0  0.109139  0  1.039552  0  0  0.111328  0  1.040249  0  0  0.106805  0.107561  0  1.039231  0
H  H29  1  0.57208972  0.52751620  0.58738202  1  0  0.099696  0  0.978528  0  0  0.109163  0  1.039555  0  0  0.111354  0  1.040249  0  0  0.106778  0.107585  0  1.039236  0
H  H30  1  0.59778684  0.54409166  0.23099642  1  0  0.084484  0  0.953504  0  0  0.095177  0  1.014326  0  0  0.097944  0  1.01178  0  0  0.118891  0.093336  0  1.015743  0
H  H31  1  0.40221868  0.45591084  0.76900645  1  0  0.084404  0  0.953564  0  0  0.095125  0  1.01437  0  0  0.097877  0  1.011827  0  0  0.118881  0.093289  0  1.01578  0
H  H32  1  0.52452996  0.11269964  0.17519143  1  0  0.110109  0  0.94994  0  0  0.119662  0  1.01013  0  0  0.122983  0  1.006741  0  0  0.12431  0.117138  0  1.01276  0
H  H33  1  0.47546358  0.88730032  0.82480067  1  0  0.110149  0  0.949884  0  0  0.119692  0  1.010078  0  0  0.123014  0  1.006689  0  0  0.124288  0.11717  0  1.012708  0
H  H34  1  0.14634611  0.49660812  0.65953374  1  0  0.079979  0  0.95906  0  0  0.088014  0  1.021659  0  0  0.090695  0  1.019772  0  0  0.107236  0.086049  0  1.023274  0
H  H35  1  0.85366729  0.50339924  0.34045704  1  0  0.080037  0  0.959129  0  0  0.088042  0  1.021744  0  0  0.090714  0  1.019868  0  0  0.107232  0.086077  0  1.023358  0
C  C36  1  0.78020618  0.15783212  0.96682243  1  0  0.63836  0  3.917818  0  0  0.586697  0  4.210993  0  0  0.620352  0  4.204795  0  0  0.197421  0.563861  0  4.214533  0
C  C37  1  0.21978761  0.84216887  0.03317950  1  0  0.638379  0  3.917662  0  0  0.586721  0  4.210824  0  0  0.620369  0  4.204624  0  0  0.197507  0.563883  0  4.214367  0
C  C38  1  0.84076867  0.06277384  0.91155981  1  0  -0.063841  0  3.809541  0  0  -0.039689  0  4.054321  0  0  -0.047619  0  4.077654  0  0  -0.027507  -0.03476  0  4.039139  0
C  C39  1  0.15922689  0.93722495  0.08844462  1  0  -0.063883  0  3.809357  0  0  -0.039794  0  4.054263  0  0  -0.047703  0  4.077561  0  0  -0.02754  -0.03486  0  4.039077  0
C  C40  1  0.79812013  0.92621142  0.95917455  1  0  -0.096392  0  3.713702  0  0  -0.138583  0  3.966843  0  0  -0.137959  0  3.988663  0  0  -0.090886  -0.139002  0  3.953092  0
C  C41  1  0.20187734  0.07378740  0.04083342  1  0  -0.096144  0  3.713506  0  0  -0.138384  0  3.96667  0  0  -0.13775  0  3.988497  0  0  -0.090854  -0.138845  0  3.952888  0
C  C42  1  0.80422308  0.68777043  0.95498373  1  0  0.647868  0  3.895915  0  0  0.594301  0  4.188798  0  0  0.628397  0  4.183436  0  0  0.203165  0.571045  0  4.191779  0
C  C43  1  0.19576775  0.31222144  0.04502465  1  0  0.647953  0  3.895995  0  0  0.594345  0  4.18892  0  0  0.628449  0  4.183566  0  0  0.203124  0.57106  0  4.191893  0
C  C44  1  0.94976483  0.88205607  0.80689834  1  0  -0.187664  0  3.67433  0  0  -0.220914  0  3.924536  0  0  -0.222767  0  3.942646  0  0  -0.092977  -0.219078  0  3.912015  0
C  C45  1  0.05023017  0.11793816  0.19311196  1  0  -0.18761  0  3.674312  0  0  -0.220846  0  3.924477  0  0  -0.222686  0  3.942577  0  0  -0.092989  -0.219032  0  3.911911  0
C  C46  1  0.99489015  0.02031739  0.76079370  1  0  0.336948  0  3.834464  0  0  0.334722  0  4.097736  0  0  0.343959  0  4.113686  0  0  0.082799  0.328015  0  4.086813  0
C  C47  1  0.00510382  0.97967461  0.23921201  1  0  0.336997  0  3.834716  0  0  0.334885  0  4.097806  0  0  0.344122  0  4.113761  0  0  0.08285  0.328176  0  4.086891  0
C  C48  1  0.93834552  0.10927187  0.81302522  1  0  -0.166862  0  3.67288  0  0  -0.207157  0  3.931933  0  0  -0.207478  0  3.948641  0  0  -0.09699  -0.206131  0  3.919906  0
C  C49  1  0.06164677  0.89072236  0.18697534  1  0  -0.166865  0  3.672879  0  0  -0.207176  0  3.931932  0  0  -0.207504  0  3.948634  0  0  -0.096995  -0.206152  0  3.919904  0
C  C50  1  0.21364961  0.69930163  0.57383412  1  0  -0.114495  0  3.696882  0  0  -0.139626  0  3.947342  0  0  -0.143519  0  3.968573  0  0  -0.07727  -0.136474  0  3.932938  0
C  C51  1  0.78636218  0.30070456  0.42615658  1  0  -0.114686  0  3.696899  0  0  -0.139808  0  3.947373  0  0  -0.143703  0  3.968601  0  0  -0.077317  -0.136653  0  3.932965  0
C  C52  1  0.20225351  0.52647854  0.37343385  1  0  0.097032  0  3.764149  0  0  0.077163  0  4.02447  0  0  0.080385  0  4.042725  0  0  0.032019  0.075009  0  4.011797  0
C  C53  1  0.79775661  0.47352303  0.62656538  1  0  0.09703  0  3.764081  0  0  0.077175  0  4.024368  0  0  0.080397  0  4.042626  0  0  0.032006  0.07502  0  4.011697  0
C  C54  1  0.24240423  0.67547124  0.36247118  1  0  -0.151253  0  3.721811  0  0  -0.173125  0  3.967214  0  0  -0.177903  0  3.98817  0  0  -0.091382  -0.16984  0  3.953435  0
C  C55  1  0.75760792  0.32453040  0.63752805  1  0  -0.151385  0  3.721875  0  0  -0.17329  0  3.967277  0  0  -0.178067  0  3.988224  0  0  -0.091463  -0.169999  0  3.953487  0
C  C56  1  0.38040885  0.24420713  0.40056029  1  0  -0.086143  0  3.633194  0  0  -0.112988  0  3.882612  0  0  -0.112234  0  3.899213  0  0  -0.062323  -0.11363  0  3.871913  0
C  C57  1  0.61959158  0.75579300  0.59943800  1  0  -0.086125  0  3.633177  0  0  -0.112981  0  3.882545  0  0  -0.112227  0  3.899148  0  0  -0.062287  -0.11362  0  3.871843  0
C  C58  1  0.44759819  0.38997807  0.36256731  1  0  -0.099377  0  3.760415  0  0  -0.112109  0  4.016979  0  0  -0.11791  0  4.039743  0  0  -0.081021  -0.108468  0  4.001706  0
C  C59  1  0.55241047  0.61002457  0.63743290  1  0  -0.099466  0  3.760424  0  0  -0.112187  0  4.016969  0  0  -0.11799  0  4.039725  0  0  -0.081032  -0.108549  0  4.001706  0
C  C60  1  0.53844716  0.42973780  0.26101230  1  0  0.09973  0  3.720024  0  0  0.064864  0  3.975949  0  0  0.070377  0  3.99574  0  0  0.038515  0.061404  0  3.961992  0
C  C61  1  0.46155764  0.57026695  0.73898720  1  0  0.099885  0  3.720001  0  0  0.065005  0  3.975914  0  0  0.070537  0  3.99569  0  0  0.038545  0.061542  0  3.961959  0
C  C62  1  0.85114781  0.83505008  0.90601460  1  0  -0.054933  0  3.789333  0  0  -0.029113  0  4.028729  0  0  -0.037454  0  4.05405  0  0  -0.023199  -0.023845  0  4.012155  0
C  C63  1  0.14884298  0.16494178  0.09399467  1  0  -0.054985  0  3.789453  0  0  -0.029094  0  4.028795  0  0  -0.037457  0  4.054143  0  0  -0.023074  -0.023729  0  4.012093  0
C  C64  1  0.49850336  0.18838937  0.23022851  1  0  0.028222  0  3.671331  0  0  -0.010337  0  3.928179  0  0  -0.006097  0  3.946679  0  0  0.050404  -0.012963  0  3.915456  0
C  C65  1  0.50149879  0.81161758  0.76976496  1  0  0.028149  0  3.671293  0  0  -0.010426  0  3.928166  0  0  -0.006188  0  3.946667  0  0  0.05038  -0.013053  0  3.915445  0
C  C66  1  0.40977972  0.14164362  0.33406064  1  0  0.215304  0  3.785886  0  0  0.212411  0  4.036654  0  0  0.215773  0  4.060616  0  0  0.110888  0.209541  0  4.02113  0
C  C67  1  0.59021914  0.85836096  0.66593444  1  0  0.215278  0  3.785846  0  0  0.212421  0  4.036537  0  0  0.215784  0  4.060496  0  0  0.110786  0.209552  0  4.021016  0
C  C68  1  0.29391057  0.92718520  0.46510483  1  0  0.556545  0  3.800762  0  0  0.510894  0  4.084402  0  0  0.539888  0  4.083019  0  0  0.254247  0.491213  0  4.085149  0
C  C69  1  0.70609525  0.07280959  0.53488594  1  0  0.556487  0  3.801003  0  0  0.510998  0  4.084354  0  0  0.540019  0  4.082929  0  0  0.254216  0.491314  0  4.085103  0
C  C70  1  0.25033278  0.76543962  0.46535616  1  0  -0.020535  0  3.76493  0  0  -0.004806  0  4.00184  0  0  -0.007838  0  4.023669  0  0  -0.004158  -0.003372  0  3.987823  0
C  C71  1  0.74968029  0.23456545  0.53463889  1  0  -0.020251  0  3.764758  0  0  -0.004539  0  4.001582  0  0  -0.007574  0  4.023406  0  0  -0.004012  -0.003106  0  3.987563  0
C  C72  1  0.17566823  0.54923009  0.57536090  1  0  0.114671  0  3.725763  0  0  0.092084  0  3.987515  0  0  0.095514  0  4.006409  0  0  0.038872  0.089394  0  3.975096  0
C  C73  1  0.82433839  0.45077589  0.42463247  1  0  0.1146  0  3.725714  0  0  0.092075  0  3.987398  0  0  0.095514  0  4.006293  0  0  0.038875  0.089385  0  3.974977  0
N  N74  1  0.35664191  0.99350241  0.36137985  1  0  -0.428223  0  3.368047  0  0  -0.374905  0  3.604815  0  0  -0.397492  0  3.617115  0  0  -0.386008  -0.359452  0  3.596569  0
N  N75  1  0.64336144  0.00650121  0.63861513  1  0  -0.4283  0  3.367741  0  0  -0.37502  0  3.604443  0  0  -0.397617  0  3.616731  0  0  -0.385895  -0.359568  0  3.596204  0
N  N76  1  0.56052890  0.32837880  0.19492697  1  0  -0.321334  0  3.327287  0  0  -0.238545  0  3.595476  0  0  -0.260014  0  3.618768  0  0  -0.331931  -0.223333  0  3.578632  0
N  N77  1  0.43946815  0.67162236  0.80506875  1  0  -0.32139  0  3.327183  0  0  -0.238602  0  3.595392  0  0  -0.260071  0  3.618678  0  0  -0.33188  -0.223392  0  3.578557  0
N  N78  1  0.17117481  0.46321922  0.47763518  1  0  -0.304781  0  3.047659  0  0  -0.274464  0  3.316147  0  0  -0.282459  0  3.330603  0  0  -0.324735  -0.268367  0  3.306054  0
N  N79  1  0.82883772  0.53678692  0.52236349  1  0  -0.304802  0  3.047582  0  0  -0.274504  0  3.316047  0  0  -0.2825  0  3.330496  0  0  -0.32476  -0.268407  0  3.305955  0
O  O80  1  0.93655213  0.48699896  0.15039994  1  0  -0.835003  0  1.867163  0  0  -0.774768  0  2.067414  0  0  -0.797373  0  2.034893  0  0  -0.586098  -0.75884  0  2.090118  0
O  O81  1  0.06344254  0.51299983  0.84960094  1  0  -0.834979  0  1.867174  0  0  -0.774749  0  2.067405  0  0  -0.797347  0  2.034868  0  0  -0.586047  -0.758812  0  2.09012  0
O  O82  1  0.79705650  0.26597638  0.90463940  1  0  -0.705184  0  2.085527  0  0  -0.621783  0  2.325638  0  0  -0.652476  0  2.314386  0  0  -0.342489  -0.599549  0  2.333749  0
O  O83  1  0.20293971  0.73401918  0.09535325  1  0  -0.705341  0  2.0856  0  0  -0.62187  0  2.325674  0  0  -0.652559  0  2.314422  0  0  -0.342584  -0.599637  0  2.33379  0
O  O84  1  0.09067129  0.07601825  0.66666494  1  0  -0.523223  0  2.087418  0  0  -0.477352  0  2.283279  0  0  -0.494524  0  2.272989  0  0  -0.363568  -0.464787  0  2.289628  0
O  O85  1  0.90933015  0.92397849  0.33334019  1  0  -0.523273  0  2.08752  0  0  -0.477449  0  2.283346  0  0  -0.494616  0  2.273058  0  0  -0.363571  -0.464885  0  2.289701  0
O  O86  1  0.71630395  0.13364585  0.06632059  1  0  -0.599253  0  1.903366  0  0  -0.549731  0  2.121905  0  0  -0.573236  0  2.113081  0  0  -0.318371  -0.532713  0  2.12712  0
O  O87  1  0.28369591  0.86635534  0.93368222  1  0  -0.599203  0  1.903274  0  0  -0.549694  0  2.121833  0  0  -0.573198  0  2.11301  0  0  -0.318379  -0.532677  0  2.127049  0
O  O88  1  0.70417523  0.63699031  0.03862405  1  0  -0.659702  0  2.014315  0  0  -0.590991  0  2.248458  0  0  -0.619798  0  2.238834  0  0  -0.319971  -0.569839  0  2.254129  0
O  O89  1  0.29581396  0.36301161  0.96138153  1  0  -0.659798  0  2.014249  0  0  -0.591127  0  2.248509  0  0  -0.619909  0  2.238818  0  0  -0.320023  -0.569975  0  2.254191  0
O  O90  1  0.86322810  0.61127197  0.91111629  1  0  -0.672186  0  2.023308  0  0  -0.601225  0  2.264328  0  0  -0.629612  0  2.253965  0  0  -0.325761  -0.580612  0  2.271788  0
O  O91  1  0.13677110  0.38872807  0.08888821  1  0  -0.67223  0  2.023279  0  0  -0.601272  0  2.264312  0  0  -0.629648  0  2.253916  0  0  -0.325801  -0.580669  0  2.271785  0
O  O92  1  0.27785399  0.99672299  0.55414567  1  0  -0.543147  0  1.96261  0  0  -0.497853  0  2.176192  0  0  -0.517968  0  2.167938  0  0  -0.279809  -0.483953  0  2.181547  0
O  O93  1  0.72213325  0.00326888  0.44584941  1  0  -0.543107  0  1.963021  0  0  -0.497869  0  2.176517  0  0  -0.51799  0  2.168245  0  0  -0.279798  -0.483968  0  2.181873  0
O  O94  1  0.50798555  0.30216537  0.88601853  1  0  -0.818275  0  1.849959  0  0  -0.762663  0  2.047194  0  0  -0.783047  0  2.016356  0  0  -0.581949  -0.748474  0  2.069275  0
O  O95  1  0.49200296  0.69783319  0.11398414  1  0  -0.818344  0  1.84996  0  0  -0.762646  0  2.047313  0  0  -0.783026  0  2.016485  0  0  -0.582008  -0.748451  0  2.069376  0
