# generated using pymatgen
data_ZnH10C22Br2NO4
_symmetry_space_group_name_H-M   'P 1'
_cell_length_a   10.97376137
_cell_length_b   17.05791192
_cell_length_c   17.80456213
_cell_angle_alpha   89.99876016
_cell_angle_beta   87.98961319
_cell_angle_gamma   89.99672396
_symmetry_Int_Tables_number   1
_chemical_formula_structural   ZnH10C22Br2NO4
_chemical_formula_sum   'Zn2 H20 C44 Br4 N2 O8'
_cell_volume   3330.77486284
_cell_formula_units_Z   2
loop_
 _symmetry_equiv_pos_site_id
 _symmetry_equiv_pos_as_xyz
  1  'x, y, z'
loop_
 _atom_site_type_symbol
 _atom_site_label
 _atom_site_symmetry_multiplicity
 _atom_site_fract_x
 _atom_site_fract_y
 _atom_site_fract_z
 _atom_site_occupancy
 _atom_site_pbe_bader_charge
 _atom_site_pbe_bader_spin_density
 _atom_site_pbe_cm5_charge
 _atom_site_pbe_ddec_charge
 _atom_site_pbe_ddec_spin_density
 _atom_site_pbe_ddec_sum_bond_order
 _atom_site_pbe_magmom
Zn  Zn0  1  0.50236296  0.58666987  0.49981843  1  1.326534  0  0.660522  0.878607  0  2.312124  0
Zn  Zn1  1  0.50237417  0.41332978  0.49982034  1  1.314496  0  0.660459  0.878544  0  2.312212  0
H  H2  1  0.89549009  0.50005705  0.24184317  1  0.039084  0  0.098363  0.096531  0  0.997614  0
H  H3  1  0.10887668  0.49993205  0.75799821  1  0.065848  0  0.097881  0.09639  0  1.000048  0
H  H4  1  0.12407939  0.50008379  0.23957205  1  0.060288  0  0.098602  0.097286  0  1.001742  0
H  H5  1  0.88033196  0.49989124  0.76036851  1  0.104136  0  0.099588  0.09702  0  0.997172  0
H  H6  1  0.77036082  0.49992492  0.64206878  1  0.043822  0  0.101783  0.112182  0  1.005476  0
H  H7  1  0.23353806  0.50005772  0.35779495  1  0.066258  0  0.099323  0.1065  0  1.021747  0
H  H8  1  0.22579572  0.49998468  0.63742031  1  0.023733  0  0.09586  0.104068  0  1.022902  0
H  H9  1  0.77819127  0.50002025  0.36247443  1  0.063859  0  0.097275  0.107846  0  1.013374  0
H  H10  1  0.44173184  0.62647086  0.87834025  1  0.08105  0  0.103561  0.106345  0  0.990745  0
H  H11  1  0.43984258  0.37351839  0.12440961  1  0.074386  0  0.10404  0.107288  0  0.991019  0
H  H12  1  0.43948798  0.62645966  0.12443110  1  0.075108  0  0.104224  0.107495  0  0.99064  0
H  H13  1  0.44174983  0.37354893  0.87833934  1  0.080884  0  0.103527  0.106417  0  0.990759  0
H  H14  1  0.47290181  0.62576061  0.73843616  1  0.102539  0  0.098057  0.102  0  1.02336  0
H  H15  1  0.47110894  0.37430389  0.26299683  1  0.101167  0  0.101815  0.107074  0  1.009401  0
H  H16  1  0.47078460  0.62568695  0.26301557  1  0.100346  0  0.101784  0.106955  0  1.009371  0
H  H17  1  0.47290782  0.37426441  0.73843488  1  0.102788  0  0.098134  0.1021  0  1.023291  0
H  H18  1  0.64463872  0.86916494  0.41391430  1  0.101497  0  0.118136  0.141009  0  0.983564  0
H  H19  1  0.35563607  0.13143500  0.58561337  1  0.110227  0  0.11793  0.140647  0  0.984906  0
H  H20  1  0.35562887  0.86858795  0.58561391  1  0.110692  0  0.117851  0.140546  0  0.984844  0
H  H21  1  0.64464784  0.13082955  0.41391542  1  0.101847  0  0.118136  0.140988  0  0.983668  0
C  C22  1  0.49374737  0.49999941  0.35368336  1  1.572873  0  0.207626  0.585798  0  4.186081  0
C  C23  1  0.49235158  0.50001600  0.64645796  1  1.580348  0  0.209001  0.585716  0  4.187385  0
C  C24  1  0.44045767  0.50000926  0.88786821  1  0.08572  0  0.000792  0.142745  0  4.115315  0
C  C25  1  0.43892076  0.49999171  0.11495662  1  -0.031158  0  -0.000131  0.141957  0  4.118215  0
C  C26  1  0.43027561  0.50000411  0.96729726  1  -0.236286  0  -0.046879  -0.112051  0  4.1283  0
C  C27  1  0.42968809  0.49999269  0.03592316  1  -0.206269  0  -0.047871  -0.111949  0  4.129425  0
C  C28  1  0.58068183  0.83917550  0.45199377  1  0.120902  0  -0.082524  -0.230518  0  3.905081  0
C  C29  1  0.41991844  0.16112253  0.54753486  1  0.123252  0  -0.082204  -0.23009  0  3.90623  0
C  C30  1  0.41990603  0.83889247  0.54753473  1  0.121843  0  -0.082067  -0.229998  0  3.906052  0
C  C31  1  0.58069340  0.16082518  0.45199280  1  0.120621  0  -0.082559  -0.230483  0  3.904883  0
C  C32  1  0.57732801  0.75758226  0.45401484  1  0.379639  0  0.123923  0.261232  0  3.95939  0
C  C33  1  0.42347424  0.24269174  0.54519454  1  0.349891  0  0.124577  0.261855  0  3.957485  0
C  C34  1  0.42344929  0.75732214  0.54519322  1  0.349116  0  0.124728  0.262114  0  3.957449  0
C  C35  1  0.57734848  0.24241897  0.45401344  1  0.379664  0  0.12398  0.261408  0  3.95905  0
C  C36  1  0.50029443  0.88136947  0.49989670  1  0.142126  0  0.023417  0.21399  0  4.096455  0
C  C37  1  0.50030045  0.11863954  0.49989657  1  0.140996  0  0.023516  0.213991  0  4.096466  0
C  C38  1  0.50012940  0.96428232  0.50001069  1  -0.283533  0  -0.02101  -0.076967  0  4.045462  0
C  C39  1  0.50012860  0.03572787  0.50000987  1  -0.041598  0  -0.020815  -0.076578  0  4.045455  0
C  C40  1  0.73681850  0.49998242  0.50235429  1  1.575262  0  0.218057  0.615285  0  4.182524  0
C  C41  1  0.26708454  0.50000198  0.49745770  1  1.614713  0  0.217821  0.614569  0  4.181755  0
C  C42  1  0.86980452  0.49993347  0.64074071  1  -0.026746  0  -0.09082  -0.122138  0  3.967796  0
C  C43  1  0.13415752  0.50005035  0.35918706  1  -0.023663  0  -0.090975  -0.119163  0  3.967526  0
C  C44  1  0.12636750  0.49996382  0.63803086  1  -0.016307  0  -0.100414  -0.137999  0  3.99297  0
C  C45  1  0.87765523  0.50002820  0.36184584  1  -0.100302  0  -0.099785  -0.138481  0  3.993136  0
C  C46  1  0.93124531  0.49991339  0.70664304  1  -0.122425  0  -0.100379  -0.093946  0  4.057716  0
C  C47  1  0.07290409  0.50006281  0.29323758  1  -0.033001  0  -0.101013  -0.095855  0  4.054929  0
C  C48  1  0.06098104  0.49993862  0.70531095  1  -0.00968  0  -0.102053  -0.096171  0  4.060129  0
C  C49  1  0.94317091  0.50005341  0.29458816  1  -0.02817  0  -0.102736  -0.096615  0  4.063701  0
C  C50  1  0.06592203  0.49997161  0.56819379  1  0.050303  0  -0.0081  0.053471  0  3.990966  0
C  C51  1  0.93804491  0.50001572  0.43170075  1  0.058672  0  -0.00773  0.053902  0  3.992546  0
C  C52  1  0.93428060  0.49996396  0.56965130  1  -0.093755  0  -0.005573  0.056138  0  3.986949  0
C  C53  1  0.06966265  0.50002278  0.43024142  1  -0.008459  0  -0.005849  0.056127  0  3.98633  0
C  C54  1  0.13032211  0.50000210  0.49848518  1  -0.073611  0  -0.009181  -0.110207  0  3.911902  0
C  C55  1  0.87360663  0.49998464  0.50139993  1  0.009209  0  -0.009364  -0.11013  0  3.912255  0
C  C56  1  0.44836918  0.57130897  0.84753546  1  -0.021058  0  -0.086272  -0.129646  0  3.951424  0
C  C57  1  0.44654844  0.42867271  0.15490705  1  0.012961  0  -0.085627  -0.131447  0  3.954501  0
C  C58  1  0.44635407  0.57130799  0.15491954  1  0.013572  0  -0.085855  -0.131982  0  3.954671  0
C  C59  1  0.44837564  0.42871121  0.84753418  1  -0.020565  0  -0.086273  -0.129889  0  3.95163  0
C  C60  1  0.46576523  0.57103450  0.76989125  1  -0.029174  0  -0.086708  -0.091451  0  3.994138  0
C  C61  1  0.46400701  0.42897310  0.23176783  1  -0.055874  0  -0.084654  -0.089347  0  3.992013  0
C  C62  1  0.46381540  0.57101158  0.23178309  1  -0.054409  0  -0.084829  -0.089269  0  3.991796  0
C  C63  1  0.46577529  0.42898956  0.76988933  1  -0.028988  0  -0.086786  -0.091474  0  3.993916  0
C  C64  1  0.47525771  0.50001257  0.73035319  1  -0.093922  0  -0.018807  -0.030431  0  3.954747  0
C  C65  1  0.47382606  0.49999392  0.27083743  1  0.029111  0  -0.018412  -0.032556  0  3.958596  0
Br  Br66  1  0.68854565  0.70570852  0.38793406  1  0.054096  0  0.098071  0.01237  0  1.473183  0
Br  Br67  1  0.31084541  0.29464461  0.61037197  1  0.04921  0  0.10139  0.013893  0  1.490394  0
Br  Br68  1  0.31079779  0.70538481  0.61035749  1  0.04968  0  0.101302  0.013768  0  1.490331  0
Br  Br69  1  0.68857163  0.29428009  0.38793264  1  0.05392  0  0.098049  0.012357  0  1.473244  0
N  N70  1  0.50060033  0.71567862  0.49962366  1  -1.158488  0  -0.297393  -0.276825  0  3.360625  0
N  N71  1  0.50063185  0.28432805  0.49962414  1  -1.158788  0  -0.297314  -0.276856  0  3.360515  0
O  O72  1  0.50131649  0.56664869  0.38551497  1  -1.170797  0  -0.324524  -0.567765  0  2.389185  0
O  O73  1  0.49807409  0.43336912  0.61418962  1  -1.170351  0  -0.324811  -0.565468  0  2.38284  0
O  O74  1  0.49806397  0.56666269  0.61419055  1  -1.169436  0  -0.324802  -0.565259  0  2.382839  0
O  O75  1  0.50134755  0.43334632  0.38551647  1  -1.171032  0  -0.324422  -0.567676  0  2.38904  0
O  O76  1  0.68529096  0.56665630  0.50222262  1  -1.162188  0  -0.31884  -0.557523  0  2.374812  0
O  O77  1  0.31862963  0.43334159  0.49747673  1  -1.162866  0  -0.318966  -0.557381  0  2.374286  0
O  O78  1  0.31861767  0.56666096  0.49747994  1  -1.163189  0  -0.318923  -0.557346  0  2.374399  0
O  O79  1  0.68531188  0.43329707  0.50223554  1  -1.162202  0  -0.31885  -0.557596  0  2.375197  0
