# generated using pymatgen
data_CuH4C7SN3O
_symmetry_space_group_name_H-M   'P 1'
_cell_length_a   5.06778128
_cell_length_b   8.48476514
_cell_length_c   19.57222258
_cell_angle_alpha   87.80007282
_cell_angle_beta   82.56848346
_cell_angle_gamma   72.60062450
_symmetry_Int_Tables_number   1
_chemical_formula_structural   CuH4C7SN3O
_chemical_formula_sum   'Cu4 H16 C28 S4 N12 O4'
_cell_volume   796.33106059
_cell_formula_units_Z   4
loop_
 _symmetry_equiv_pos_site_id
 _symmetry_equiv_pos_as_xyz
  1  'x, y, z'
loop_
 _atom_site_type_symbol
 _atom_site_label
 _atom_site_symmetry_multiplicity
 _atom_site_fract_x
 _atom_site_fract_y
 _atom_site_fract_z
 _atom_site_occupancy
 _atom_site_hle17_bader_spin_density
 _atom_site_hle17_ddec_charge
 _atom_site_hle17_ddec_spin_density
 _atom_site_hle17_ddec_sum_bond_order
 _atom_site_hle17_magmom
 _atom_site_hse06_10hf_bader_spin_density
 _atom_site_hse06_10hf_ddec_charge
 _atom_site_hse06_10hf_ddec_spin_density
 _atom_site_hse06_10hf_ddec_sum_bond_order
 _atom_site_hse06_10hf_magmom
 _atom_site_hse06_bader_spin_density
 _atom_site_hse06_ddec_charge
 _atom_site_hse06_ddec_spin_density
 _atom_site_hse06_ddec_sum_bond_order
 _atom_site_hse06_magmom
 _atom_site_pbe_bader_spin_density
 _atom_site_pbe_cm5_charge
 _atom_site_pbe_ddec_charge
 _atom_site_pbe_ddec_spin_density
 _atom_site_pbe_ddec_sum_bond_order
 _atom_site_pbe_magmom
Cu  Cu0  1  0.52287722  0.55634533  0.94864277  1  0  0.35316  0  2.177321  0  0  0.260484  0  2.686523  0  0  0.254335  0  2.645645  0  0  0.441461  0.268632  0  2.711262  0
Cu  Cu1  1  0.02735130  0.44418513  0.05134432  1  0  0.353283  0  2.176486  0  0  0.260055  0  2.686088  0  0  0.253942  0  2.645246  0  0  0.441097  0.268247  0  2.710643  0
Cu  Cu2  1  0.82836809  0.94434527  0.44867871  1  0  0.352514  0  2.174738  0  0  0.259385  0  2.684193  0  0  0.253403  0  2.643204  0  0  0.440803  0.267448  0  2.709006  0
Cu  Cu3  1  0.22157915  0.05609263  0.55129071  1  0  0.353482  0  2.176354  0  0  0.260728  0  2.685267  0  0  0.254639  0  2.644447  0  0  0.441481  0.268833  0  2.709936  0
H  H4  1  0.73647727  0.80971727  0.99356798  1  0  0.070068  0  0.968895  0  0  0.075983  0  1.041564  0  0  0.079518  0  1.037378  0  0  0.102545  0.07308  0  1.045219  0
H  H5  1  0.54156025  0.19076004  0.00633462  1  0  0.070687  0  0.967785  0  0  0.076837  0  1.040267  0  0  0.080384  0  1.036017  0  0  0.102408  0.073934  0  1.043942  0
H  H6  1  0.29704779  0.69063449  0.49367923  1  0  0.070528  0  0.967728  0  0  0.076375  0  1.040735  0  0  0.079941  0  1.036457  0  0  0.102169  0.073455  0  1.044382  0
H  H7  1  0.47898786  0.30992833  0.50641079  1  0  0.070294  0  0.968087  0  0  0.076029  0  1.041233  0  0  0.079601  0  1.036965  0  0  0.102436  0.073124  0  1.044882  0
H  H8  1  0.02250214  0.05948985  0.81597348  1  0  0.1089  0  0.943996  0  0  0.113869  0  1.012661  0  0  0.117789  0  1.008664  0  0  0.109463  0.110939  0  1.015596  0
H  H9  1  0.89596060  0.93876760  0.18404429  1  0  0.108765  0  0.944798  0  0  0.113235  0  1.014189  0  0  0.117235  0  1.010118  0  0  0.109246  0.110292  0  1.01716  0
H  H10  1  0.82960647  0.43859010  0.31598906  1  0  0.109542  0  0.944659  0  0  0.114052  0  1.013881  0  0  0.117986  0  1.009865  0  0  0.109808  0.111072  0  1.016956  0
H  H11  1  0.58862398  0.55928457  0.68404731  1  0  0.108662  0  0.945501  0  0  0.11465  0  1.013188  0  0  0.118485  0  1.009313  0  0  0.109922  0.111717  0  1.016157  0
H  H12  1  0.98345044  0.01372761  0.94271903  1  0  0.100592  0  0.978022  0  0  0.111393  0  1.037981  0  0  0.113428  0  1.03967  0  0  0.09834  0.10992  0  1.036944  0
H  H13  1  0.94049023  0.98613717  0.05738160  1  0  0.099872  0  0.977518  0  0  0.110574  0  1.037796  0  0  0.112638  0  1.039495  0  0  0.097746  0.109102  0  1.036728  0
H  H14  1  0.74715212  0.48589310  0.44266679  1  0  0.100837  0  0.977182  0  0  0.11168  0  1.037036  0  0  0.113736  0  1.038748  0  0  0.098162  0.110213  0  1.035952  0
H  H15  1  0.67546561  0.51371367  0.55728948  1  0  0.099354  0  0.978677  0  0  0.110469  0  1.038484  0  0  0.11246  0  1.040263  0  0  0.097718  0.109052  0  1.037362  0
H  H16  1  0.58853322  0.69474372  0.80170403  1  0  0.086779  0  0.991211  0  0  0.084025  0  1.074264  0  0  0.088654  0  1.069086  0  0  0.112005  0.080648  0  1.07807  0
H  H17  1  0.08461706  0.30584531  0.19803732  1  0  0.086393  0  0.990582  0  0  0.08435  0  1.072892  0  0  0.088932  0  1.067729  0  0  0.112123  0.080933  0  1.076752  0
H  H18  1  0.03283099  0.80609925  0.30189946  1  0  0.086381  0  0.989548  0  0  0.083927  0  1.072517  0  0  0.088553  0  1.067283  0  0  0.11197  0.080519  0  1.076353  0
H  H19  1  0.14021562  0.19462823  0.69830432  1  0  0.086951  0  0.989756  0  0  0.08436  0  1.072768  0  0  0.08903  0  1.067506  0  0  0.112246  0.080967  0  1.076597  0
C  C20  1  0.78268560  0.89161819  0.61617908  1  0  0.384942  0  3.715339  0  0  0.355993  0  4.01157  0  0  0.377034  0  4.018567  0  0  0.195064  0.341942  0  4.00644  0
C  C21  1  0.28943616  0.10863515  0.38376457  1  0  0.384014  0  3.714215  0  0  0.354663  0  4.011155  0  0  0.375709  0  4.018172  0  0  0.195013  0.340574  0  4.006041  0
C  C22  1  0.42358263  0.60850121  0.11622101  1  0  0.385494  0  3.715744  0  0  0.356012  0  4.012207  0  0  0.377106  0  4.019185  0  0  0.195379  0.341941  0  4.007099  0
C  C23  1  0.14861150  0.39184968  0.88381292  1  0  0.384651  0  3.716427  0  0  0.355195  0  4.013066  0  0  0.376345  0  4.020017  0  0  0.19481  0.341072  0  4.007969  0
C  C24  1  0.76146292  0.83313794  0.93828333  1  0  0.121362  0  3.687011  0  0  0.093217  0  3.934576  0  0  0.102115  0  3.946876  0  0  0.039365  0.086912  0  3.927369  0
C  C25  1  0.53355279  0.16711476  0.06162849  1  0  0.120044  0  3.684816  0  0  0.091322  0  3.933074  0  0  0.100261  0  3.945413  0  0  0.038595  0.084992  0  3.925854  0
C  C26  1  0.34455822  0.66702158  0.43838837  1  0  0.120354  0  3.683042  0  0  0.091808  0  3.931029  0  0  0.10077  0  3.943422  0  0  0.039157  0.085491  0  3.923734  0
C  C27  1  0.44881278  0.33324372  0.56171262  1  0  0.12023  0  3.685976  0  0  0.091873  0  3.933549  0  0  0.100835  0  3.945896  0  0  0.038654  0.085537  0  3.92632  0
C  C28  1  0.92143854  0.97061653  0.83942815  1  0  -0.018626  0  3.663265  0  0  -0.049557  0  3.912915  0  0  -0.043897  0  3.92846  0  0  -0.063245  -0.053132  0  3.902878  0
C  C29  1  0.73034276  0.02839472  0.16053914  1  0  -0.018768  0  3.664006  0  0  -0.049422  0  3.91369  0  0  -0.043856  0  3.929277  0  0  -0.063327  -0.052992  0  3.903645  0
C  C30  1  0.64044182  0.52824025  0.33949638  1  0  -0.019787  0  3.663366  0  0  -0.05042  0  3.913129  0  0  -0.044739  0  3.928755  0  0  -0.063807  -0.054039  0  3.903049  0
C  C31  1  0.51064865  0.47054880  0.66058846  1  0  -0.018586  0  3.665406  0  0  -0.050626  0  3.915673  0  0  -0.044912  0  3.93131  0  0  -0.063671  -0.054241  0  3.905599  0
C  C32  1  0.80867077  0.88058474  0.79843655  1  0  -0.064635  0  3.818471  0  0  -0.042455  0  4.055078  0  0  -0.051206  0  4.079696  0  0  -0.008229  -0.037329  0  4.038996  0
C  C33  1  0.48651352  0.11898003  0.20143414  1  0  -0.064872  0  3.819697  0  0  -0.043219  0  4.056169  0  0  -0.051975  0  4.080772  0  0  -0.007992  -0.038113  0  4.040156  0
C  C34  1  0.43782428  0.61894255  0.29856849  1  0  -0.064661  0  3.817816  0  0  -0.042958  0  4.054863  0  0  -0.05177  0  4.079536  0  0  -0.007545  -0.037799  0  4.038787  0
C  C35  1  0.35687485  0.38055688  0.70156462  1  0  -0.064218  0  3.818514  0  0  -0.042589  0  4.055855  0  0  -0.051397  0  4.080483  0  0  -0.007401  -0.037413  0  4.039757  0
C  C36  1  0.89823296  0.94510191  0.91006271  1  0  -0.113089  0  3.746293  0  0  -0.122953  0  3.993774  0  0  -0.130278  0  4.014713  0  0  -0.087363  -0.118614  0  3.980405  0
C  C37  1  0.75331291  0.05457877  0.08993827  1  0  -0.111045  0  3.745154  0  0  -0.120501  0  3.992304  0  0  -0.127909  0  4.013329  0  0  -0.086345  -0.116129  0  3.978906  0
C  C38  1  0.59268238  0.55442658  0.41009428  1  0  -0.111787  0  3.744705  0  0  -0.121223  0  3.991459  0  0  -0.128648  0  4.01247  0  0  -0.086656  -0.116825  0  3.978043  0
C  C39  1  0.55754531  0.44513569  0.58994532  1  0  -0.110712  0  3.745492  0  0  -0.120594  0  3.992762  0  0  -0.1279  0  4.013758  0  0  -0.08637  -0.11629  0  3.979357  0
C  C40  1  0.67545374  0.77001463  0.83084156  1  0  0.101074  0  3.635322  0  0  0.058278  0  3.893131  0  0  0.065539  0  3.906639  0  0  0.041037  0.053564  0  3.884504  0
C  C41  1  0.27593997  0.23023654  0.16895368  1  0  0.102018  0  3.632939  0  0  0.059048  0  3.890189  0  0  0.066411  0  3.90369  0  0  0.040812  0.054318  0  3.881611  0
C  C42  1  0.19480268  0.73035742  0.33102216  1  0  0.102302  0  3.632734  0  0  0.059439  0  3.890507  0  0  0.066811  0  3.904138  0  0  0.040374  0.054696  0  3.881823  0
C  C43  1  0.25603228  0.26998405  0.66915783  1  0  0.101377  0  3.634347  0  0  0.058321  0  3.892461  0  0  0.065724  0  3.905891  0  0  0.040589  0.05351  0  3.883896  0
C  C44  1  0.83889816  0.90275050  0.72435850  1  0  0.341839  0  3.751589  0  0  0.306943  0  4.032505  0  0  0.324053  0  4.042533  0  0  0.212418  0.295633  0  4.025659  0
C  C45  1  0.46469039  0.09719723  0.27554478  1  0  0.340813  0  3.752349  0  0  0.307114  0  4.031824  0  0  0.324303  0  4.041747  0  0  0.212556  0.295736  0  4.02505  0
C  C46  1  0.49033937  0.59708942  0.22446725  1  0  0.341144  0  3.751015  0  0  0.306488  0  4.031633  0  0  0.323665  0  4.041645  0  0  0.211911  0.295125  0  4.024839  0
C  C47  1  0.31317105  0.40270396  0.77564085  1  0  0.343125  0  3.751361  0  0  0.308751  0  4.031568  0  0  0.326063  0  4.041426  0  0  0.213268  0.297303  0  4.024819  0
S  S48  1  0.64914633  0.84770092  0.54633743  1  0  -0.399404  0  2.68846  0  0  -0.389546  0  3.182861  0  0  -0.394101  0  3.152086  0  0  -0.228949  -0.386655  0  3.202283  0
S  S49  1  0.04257752  0.15271153  0.45367106  1  0  -0.398746  0  2.687237  0  0  -0.388592  0  3.181309  0  0  -0.39315  0  3.150606  0  0  -0.22802  -0.385692  0  3.200691  0
S  S50  1  0.24656853  0.65252274  0.04632677  1  0  -0.399232  0  2.688596  0  0  -0.389359  0  3.183084  0  0  -0.393885  0  3.152347  0  0  -0.228636  -0.386488  0  3.202474  0
S  S51  1  0.94528821  0.34792430  0.95363432  1  0  -0.399572  0  2.68831  0  0  -0.389923  0  3.183226  0  0  -0.394445  0  3.152418  0  0  -0.229138  -0.387047  0  3.202644  0
N  N52  1  0.96279582  0.97570698  0.62113670  1  0  -0.275577  0  3.251903  0  0  -0.22339  0  3.569834  0  0  -0.2328  0  3.575507  0  0  -0.280858  -0.217764  0  3.566062  0
N  N53  1  0.55883457  0.02482495  0.37881720  1  0  -0.274479  0  3.251382  0  0  -0.222091  0  3.569626  0  0  -0.231494  0  3.575303  0  0  -0.28042  -0.216478  0  3.565882  0
N  N54  1  0.68806583  0.52478109  0.12119394  1  0  -0.27682  0  3.253609  0  0  -0.224109  0  3.571609  0  0  -0.233517  0  3.577221  0  0  -0.280987  -0.218476  0  3.567852  0
N  N55  1  0.33379444  0.47584097  0.87885564  1  0  -0.274172  0  3.254118  0  0  -0.22168  0  3.571965  0  0  -0.231109  0  3.577664  0  0  -0.2797  -0.216074  0  3.568205  0
N  N56  1  0.65269528  0.74651243  0.89951130  1  0  -0.271946  0  3.326821  0  0  -0.199471  0  3.610456  0  0  -0.209705  0  3.619955  0  0  -0.348665  -0.193504  0  3.6044  0
N  N57  1  0.29906205  0.25395852  0.10029004  1  0  -0.272183  0  3.324834  0  0  -0.19939  0  3.608751  0  0  -0.209719  0  3.618302  0  0  -0.34779  -0.19337  0  3.602654  0
N  N58  1  0.14901514  0.75403830  0.39968777  1  0  -0.272881  0  3.323592  0  0  -0.200015  0  3.607369  0  0  -0.210493  0  3.617105  0  0  -0.348223  -0.193875  0  3.601142  0
N  N59  1  0.30164279  0.24648104  0.60048279  1  0  -0.273257  0  3.327485  0  0  -0.200257  0  3.610735  0  0  -0.210703  0  3.620469  0  0  -0.348987  -0.194177  0  3.604567  0
N  N60  1  0.99652431  0.98248581  0.68984085  1  0  -0.260017  0  2.959614  0  0  -0.242065  0  3.239702  0  0  -0.252035  0  3.251753  0  0  -0.224388  -0.235474  0  3.231686  0
N  N61  1  0.66784484  0.01793906  0.31009799  1  0  -0.26004  0  2.961371  0  0  -0.242632  0  3.241245  0  0  -0.252592  0  3.253204  0  0  -0.225061  -0.236034  0  3.233285  0
N  N62  1  0.72818671  0.51788499  0.18992476  1  0  -0.258678  0  2.959589  0  0  -0.241195  0  3.239714  0  0  -0.251114  0  3.251674  0  0  -0.224106  -0.234602  0  3.231744  0
N  N63  1  0.43641349  0.48240400  0.81015764  1  0  -0.261359  0  2.961233  0  0  -0.244039  0  3.241539  0  0  -0.253986  0  3.253461  0  0  -0.226231  -0.237444  0  3.233616  0
O  O64  1  0.69869221  0.84019482  0.68182046  1  0  -0.26541  0  2.256522  0  0  -0.190767  0  2.473254  0  0  -0.208495  0  2.473956  0  0  -0.110002  -0.178791  0  2.472357  0
O  O65  1  0.21933208  0.15972622  0.31809280  1  0  -0.265082  0  2.254621  0  0  -0.19055  0  2.470877  0  0  -0.208373  0  2.471625  0  0  -0.110098  -0.17846  0  2.46994  0
O  O66  1  0.28765054  0.65953167  0.18188113  1  0  -0.265715  0  2.257599  0  0  -0.190435  0  2.473573  0  0  -0.208303  0  2.474393  0  0  -0.110002  -0.178417  0  2.472676  0
O  O67  1  0.13026302  0.34033134  0.81815817  1  0  -0.266475  0  2.256867  0  0  -0.190901  0  2.47232  0  0  -0.208925  0  2.473224  0  0  -0.109942  -0.178737  0  2.471328  0
