# generated using pymatgen
data_Zn3P2H16(C10O7)2
_symmetry_space_group_name_H-M   'P 1'
_cell_length_a   8.92260391
_cell_length_b   11.34799126
_cell_length_c   14.24118089
_cell_angle_alpha   113.48523577
_cell_angle_beta   107.99554083
_cell_angle_gamma   90.01451907
_symmetry_Int_Tables_number   1
_chemical_formula_structural   Zn3P2H16(C10O7)2
_chemical_formula_sum   'Zn6 P4 H32 C40 O28'
_cell_volume   1245.18153960
_cell_formula_units_Z   2
loop_
 _symmetry_equiv_pos_site_id
 _symmetry_equiv_pos_as_xyz
  1  'x, y, z'
loop_
 _atom_site_type_symbol
 _atom_site_label
 _atom_site_symmetry_multiplicity
 _atom_site_fract_x
 _atom_site_fract_y
 _atom_site_fract_z
 _atom_site_occupancy
 _atom_site_hle17_bader_spin_density
 _atom_site_hle17_ddec_charge
 _atom_site_hle17_ddec_spin_density
 _atom_site_hle17_ddec_sum_bond_order
 _atom_site_hle17_magmom
 _atom_site_hse06_10hf_bader_spin_density
 _atom_site_hse06_10hf_ddec_charge
 _atom_site_hse06_10hf_ddec_spin_density
 _atom_site_hse06_10hf_ddec_sum_bond_order
 _atom_site_hse06_10hf_magmom
 _atom_site_hse06_bader_spin_density
 _atom_site_hse06_ddec_charge
 _atom_site_hse06_ddec_spin_density
 _atom_site_hse06_ddec_sum_bond_order
 _atom_site_hse06_magmom
 _atom_site_pbe_bader_spin_density
 _atom_site_pbe_cm5_charge
 _atom_site_pbe_ddec_charge
 _atom_site_pbe_ddec_spin_density
 _atom_site_pbe_ddec_sum_bond_order
 _atom_site_pbe_magmom
Zn  Zn0  1  0.91612471  0.80514212  0.89523889  1  0  1.242777  0  1.792997  0  0  1.081496  0  2.270678  0  0  1.126689  0  2.204085  0  0  0.72035  1.049783  0  2.316363  0
Zn  Zn1  1  0.58381876  0.90995607  0.10479397  1  0  1.24239  0  1.793589  0  0  1.081066  0  2.271098  0  0  1.126207  0  2.20466  0  0  0.72014  1.049411  0  2.316687  0
Zn  Zn2  1  0.08387508  0.19485795  0.10476138  1  0  1.242745  0  1.792979  0  0  1.081468  0  2.270655  0  0  1.126655  0  2.20406  0  0  0.720335  1.049753  0  2.316338  0
Zn  Zn3  1  0.41618237  0.09004497  0.89520546  1  0  1.24242  0  1.793582  0  0  1.081079  0  2.271115  0  0  1.126222  0  2.204675  0  0  0.720143  1.049422  0  2.316701  0
Zn  Zn4  1  0.75004727  0.68647540  0.00003393  1  0  1.177671  0  1.786356  0  0  1.009864  0  2.258001  0  0  1.05809  0  2.194077  0  0  0.712934  0.975825  0  2.301984  0
Zn  Zn5  1  0.24995236  0.31352371  0.99996600  1  0  1.177667  0  1.786364  0  0  1.009847  0  2.258012  0  0  1.058071  0  2.194097  0  0  0.712942  0.975806  0  2.302006  0
P  P6  1  0.05264543  0.03899745  0.84768217  1  0  1.540978  0  4.814032  0  0  1.391952  0  5.301907  0  0  1.44033  0  5.266853  0  0  0.349923  1.358125  0  5.325741  0
P  P7  1  0.44730287  0.19128386  0.15217864  1  0  1.541731  0  4.815113  0  0  1.392454  0  5.302802  0  0  1.440851  0  5.267688  0  0  0.349958  1.358655  0  5.326568  0
P  P8  1  0.94735418  0.96100165  0.15231706  1  0  1.540959  0  4.814053  0  0  1.391969  0  5.301937  0  0  1.440343  0  5.266882  0  0  0.349914  1.358136  0  5.325766  0
P  P9  1  0.55269676  0.80871524  0.84782270  1  0  1.541799  0  4.815092  0  0  1.392535  0  5.302775  0  0  1.440931  0  5.267664  0  0  0.349995  1.358719  0  5.326575  0
H  H10  1  0.83497170  0.30391911  0.85462597  1  0  0.118338  0  0.926594  0  0  0.129271  0  0.984912  0  0  0.132906  0  0.982221  0  0  0.110838  0.126636  0  0.986882  0
H  H11  1  0.66465347  0.44930476  0.14510400  1  0  0.118559  0  0.926708  0  0  0.12942  0  0.985  0  0  0.13305  0  0.982339  0  0  0.110584  0.126794  0  0.986979  0
H  H12  1  0.16502910  0.69607999  0.14537419  1  0  0.118375  0  0.926568  0  0  0.129326  0  0.984867  0  0  0.132963  0  0.982171  0  0  0.110853  0.126691  0  0.986836  0
H  H13  1  0.33534531  0.55069628  0.85489498  1  0  0.118578  0  0.92668  0  0  0.129419  0  0.985003  0  0  0.133049  0  0.982343  0  0  0.110576  0.126795  0  0.986979  0
H  H14  1  0.99884133  0.06204597  0.59513681  1  0  0.117183  0  0.959316  0  0  0.124319  0  1.025072  0  0  0.128144  0  1.021879  0  0  0.109994  0.121488  0  1.027445  0
H  H15  1  0.50132347  0.46681594  0.40479020  1  0  0.116643  0  0.95919  0  0  0.123868  0  1.025144  0  0  0.127726  0  1.021857  0  0  0.110007  0.121025  0  1.027594  0
H  H16  1  0.00115846  0.93795410  0.40486276  1  0  0.117178  0  0.959318  0  0  0.12431  0  1.025079  0  0  0.128138  0  1.02188  0  0  0.109996  0.121479  0  1.027454  0
H  H17  1  0.49867867  0.53318413  0.59520982  1  0  0.116707  0  0.959246  0  0  0.123943  0  1.025162  0  0  0.127801  0  1.021876  0  0  0.110059  0.1211  0  1.027613  0
H  H18  1  0.02565648  0.47419318  0.68771561  1  0  0.106121  0  0.960657  0  0  0.111351  0  1.032471  0  0  0.114906  0  1.029527  0  0  0.110218  0.108825  0  1.034481  0
H  H19  1  0.47415342  0.78640655  0.31226765  1  0  0.106013  0  0.95995  0  0  0.111341  0  1.031887  0  0  0.114947  0  1.028859  0  0  0.110346  0.108785  0  1.033939  0
H  H20  1  0.97434230  0.52580787  0.31228548  1  0  0.106109  0  0.96065  0  0  0.111336  0  1.032473  0  0  0.114892  0  1.029529  0  0  0.110216  0.108814  0  1.034482  0
H  H21  1  0.52584654  0.21359450  0.68773367  1  0  0.106019  0  0.959951  0  0  0.111347  0  1.031888  0  0  0.114951  0  1.028861  0  0  0.110355  0.108793  0  1.033937  0
H  H22  1  0.85091820  0.96227443  0.67198821  1  0  0.163874  0  0.94945  0  0  0.174041  0  1.008142  0  0  0.1777  0  1.006231  0  0  0.114609  0.171353  0  1.009644  0
H  H23  1  0.64909742  0.29030647  0.32784389  1  0  0.163627  0  0.950141  0  0  0.173601  0  1.008871  0  0  0.177276  0  1.00694  0  0  0.114427  0.170932  0  1.010311  0
H  H24  1  0.14908344  0.03772273  0.32801150  1  0  0.163881  0  0.949363  0  0  0.17405  0  1.00808  0  0  0.177709  0  1.006171  0  0  0.114611  0.171359  0  1.009576  0
H  H25  1  0.35090388  0.70969554  0.67215659  1  0  0.163693  0  0.950075  0  0  0.17363  0  1.008865  0  0  0.177289  0  1.006955  0  0  0.114445  0.170963  0  1.010304  0
H  H26  1  0.77810657  0.06075480  0.77811437  1  0  0.149701  0  0.916296  0  0  0.166137  0  0.964814  0  0  0.168487  0  0.964378  0  0  0.113101  0.164418  0  0.965252  0
H  H27  1  0.72189190  0.28270445  0.22172079  1  0  0.150446  0  0.916437  0  0  0.166844  0  0.964579  0  0  0.169162  0  0.964176  0  0  0.113367  0.165089  0  0.965041  0
H  H28  1  0.22189272  0.93924237  0.22188559  1  0  0.149647  0  0.916363  0  0  0.166109  0  0.964869  0  0  0.168458  0  0.964435  0  0  0.113079  0.164385  0  0.965302  0
H  H29  1  0.27810788  0.71729562  0.77827878  1  0  0.150443  0  0.916452  0  0  0.16685  0  0.964596  0  0  0.169168  0  0.964192  0  0  0.113368  0.165098  0  0.965054  0
H  H30  1  0.12759484  0.44245697  0.43188632  1  0  0.110083  0  0.933042  0  0  0.126739  0  0.995734  0  0  0.128001  0  0.994266  0  0  0.108741  0.125735  0  0.996902  0
H  H31  1  0.37256837  0.01045099  0.56832851  1  0  0.110032  0  0.933265  0  0  0.126902  0  0.995745  0  0  0.128179  0  0.994253  0  0  0.108782  0.125883  0  0.996918  0
H  H32  1  0.87240377  0.55754310  0.56811373  1  0  0.110058  0  0.933056  0  0  0.126736  0  0.995724  0  0  0.127999  0  0.994255  0  0  0.10873  0.125731  0  0.996891  0
H  H33  1  0.62743142  0.98954909  0.43167106  1  0  0.110032  0  0.933267  0  0  0.126896  0  0.995756  0  0  0.128172  0  0.994267  0  0  0.108782  0.125875  0  0.996932  0
H  H34  1  0.03553817  0.27534994  0.35237970  1  0  0.093635  0  0.934061  0  0  0.112968  0  0.995546  0  0  0.113318  0  0.994801  0  0  0.103134  0.112628  0  0.996138  0
H  H35  1  0.46465298  0.92274349  0.64769610  1  0  0.093358  0  0.932772  0  0  0.112293  0  0.994905  0  0  0.112636  0  0.99415  0  0  0.102531  0.111969  0  0.995478  0
H  H36  1  0.96446044  0.72465013  0.64761965  1  0  0.09365  0  0.934045  0  0  0.112985  0  0.995529  0  0  0.113333  0  0.994783  0  0  0.103133  0.112642  0  0.996117  0
H  H37  1  0.53534681  0.07725658  0.35230347  1  0  0.093343  0  0.932715  0  0  0.112295  0  0.994834  0  0  0.112638  0  0.994077  0  0  0.102536  0.111964  0  0.995413  0
H  H38  1  0.24037838  0.31277256  0.43726317  1  0  0.094321  0  0.944092  0  0  0.109802  0  1.01038  0  0  0.110181  0  1.010096  0  0  0.10169  0.109399  0  1.010699  0
H  H39  1  0.25975941  0.87533502  0.56293528  1  0  0.093599  0  0.94459  0  0  0.109464  0  1.01053  0  0  0.109805  0  1.010283  0  0  0.101432  0.109028  0  1.010894  0
H  H40  1  0.75962040  0.68722849  0.56273651  1  0  0.094327  0  0.944095  0  0  0.109794  0  1.0104  0  0  0.110172  0  1.010117  0  0  0.101675  0.109384  0  1.010731  0
H  H41  1  0.74024038  0.12466505  0.43706429  1  0  0.093592  0  0.944593  0  0  0.109456  0  1.010541  0  0  0.109797  0  1.010292  0  0  0.101435  0.109022  0  1.010905  0
C  C42  1  0.90695034  0.53271259  0.84880049  1  0  0.693138  0  3.84678  0  0  0.642939  0  4.12722  0  0  0.679112  0  4.120046  0  0  0.231563  0.61832  0  4.131384  0
C  C43  1  0.59273248  0.68390202  0.15108454  1  0  0.694717  0  3.844377  0  0  0.64374  0  4.125964  0  0  0.679924  0  4.118742  0  0  0.232259  0.619116  0  4.130163  0
C  C44  1  0.09304928  0.46728651  0.15120014  1  0  0.693184  0  3.846816  0  0  0.642927  0  4.127341  0  0  0.679099  0  4.120166  0  0  0.231546  0.618313  0  4.131504  0
C  C45  1  0.40726781  0.31610096  0.84891605  1  0  0.694629  0  3.844522  0  0  0.643624  0  4.126126  0  0  0.67981  0  4.118902  0  0  0.232206  0.619002  0  4.130323  0
C  C46  1  0.93109034  0.40141189  0.77901610  1  0  -0.075475  0  3.779039  0  0  -0.049539  0  4.018391  0  0  -0.060737  0  4.042623  0  0  -0.020092  -0.042404  0  4.002053  0
C  C47  1  0.56862405  0.62236796  0.22085337  1  0  -0.074607  0  3.777532  0  0  -0.048312  0  4.016793  0  0  -0.059509  0  4.041042  0  0  -0.019798  -0.041193  0  4.00046  0
C  C48  1  0.06891047  0.59858721  0.22098547  1  0  -0.075491  0  3.779091  0  0  -0.049535  0  4.018466  0  0  -0.060733  0  4.042699  0  0  -0.020087  -0.042406  0  4.002135  0
C  C49  1  0.43137456  0.37763211  0.77914527  1  0  -0.07464  0  3.777625  0  0  -0.048355  0  4.016905  0  0  -0.059548  0  4.041144  0  0  -0.019855  -0.041236  0  4.000577  0
C  C50  1  0.88783155  0.29183692  0.79236588  1  0  -0.099718  0  3.652755  0  0  -0.138778  0  3.90942  0  0  -0.136586  0  3.927329  0  0  -0.075425  -0.139921  0  3.897144  0
C  C51  1  0.61192198  0.49946366  0.20745134  1  0  -0.101249  0  3.65549  0  0  -0.140161  0  3.912632  0  0  -0.137934  0  3.930451  0  0  -0.075772  -0.141394  0  3.900502  0
C  C52  1  0.11217026  0.70816122  0.20763417  1  0  -0.099735  0  3.652668  0  0  -0.138815  0  3.909323  0  0  -0.136625  0  3.927232  0  0  -0.075433  -0.139952  0  3.897048  0
C  C53  1  0.38807797  0.50053738  0.79254786  1  0  -0.101289  0  3.655453  0  0  -0.140199  0  3.912608  0  0  -0.137975  0  3.930429  0  0  -0.075779  -0.141429  0  3.900476  0
C  C54  1  0.91316338  0.16884837  0.72720321  1  0  0.14515  0  3.730597  0  0  0.167445  0  3.97101  0  0  0.165901  0  3.995879  0  0  -0.000922  0.168141  0  3.954235  0
C  C55  1  0.58678264  0.44163712  0.27266079  1  0  0.145509  0  3.730924  0  0  0.166986  0  3.972237  0  0  0.165439  0  3.997099  0  0  -0.000263  0.167666  0  3.95548  0
C  C56  1  0.08683742  0.83115074  0.27279695  1  0  0.145077  0  3.730484  0  0  0.16739  0  3.970918  0  0  0.165846  0  3.995787  0  0  -0.000939  0.168077  0  3.954148  0
C  C57  1  0.41321950  0.55836295  0.72733923  1  0  0.145563  0  3.730922  0  0  0.167062  0  3.972214  0  0  0.165516  0  3.997072  0  0  -0.00025  0.167734  0  3.955467  0
C  C58  1  0.97943869  0.15722085  0.64703373  1  0  -0.074445  0  3.613215  0  0  -0.111493  0  3.860759  0  0  -0.10864  0  3.878102  0  0  -0.065325  -0.112886  0  3.848859  0
C  C59  1  0.52061768  0.51012890  0.35289799  1  0  -0.073531  0  3.611334  0  0  -0.110151  0  3.859338  0  0  -0.107313  0  3.87668  0  0  -0.065487  -0.111582  0  3.847491  0
C  C60  1  0.02056093  0.84277825  0.35296620  1  0  -0.074389  0  3.613316  0  0  -0.111426  0  3.860851  0  0  -0.108573  0  3.878195  0  0  -0.065308  -0.112821  0  3.848954  0
C  C61  1  0.47938362  0.48987312  0.64710248  1  0  -0.073688  0  3.611442  0  0  -0.110291  0  3.859435  0  0  -0.107452  0  3.876775  0  0  -0.065537  -0.111722  0  3.847589  0
C  C62  1  0.01674151  0.26603754  0.63069698  1  0  -0.081433  0  3.80351  0  0  -0.060036  0  4.051026  0  0  -0.070726  0  4.075611  0  0  -0.018401  -0.05325  0  4.034503  0
C  C63  1  0.48324165  0.63527344  0.36926940  1  0  -0.08025  0  3.803272  0  0  -0.060072  0  4.052159  0  0  -0.070706  0  4.076692  0  0  -0.018423  -0.05333  0  4.035695  0
C  C64  1  0.98325844  0.73396350  0.36930223  1  0  -0.081374  0  3.80357  0  0  -0.060022  0  4.05108  0  0  -0.070712  0  4.075668  0  0  -0.018398  -0.053233  0  4.034556  0
C  C65  1  0.51675831  0.36472761  0.63073191  1  0  -0.080159  0  3.803159  0  0  -0.060011  0  4.052065  0  0  -0.070645  0  4.076597  0  0  -0.018408  -0.053254  0  4.035585  0
C  C66  1  0.99453920  0.38864372  0.69798234  1  0  -0.052777  0  3.704446  0  0  -0.101076  0  3.969093  0  0  -0.096463  0  3.987041  0  0  -0.073658  -0.103647  0  3.956613  0
C  C67  1  0.50531370  0.69061481  0.30196862  1  0  -0.05275  0  3.702955  0  0  -0.100832  0  3.967627  0  0  -0.096254  0  3.985582  0  0  -0.07361  -0.10335  0  3.95508  0
C  C68  1  0.00546059  0.61135636  0.30201864  1  0  -0.052728  0  3.704363  0  0  -0.101027  0  3.969019  0  0  -0.09641  0  3.986954  0  0  -0.073638  -0.103599  0  3.956546  0
C  C69  1  0.49468491  0.30938526  0.69803142  1  0  -0.05274  0  3.702992  0  0  -0.100814  0  3.967671  0  0  -0.096234  0  3.985621  0  0  -0.073603  -0.103342  0  3.955127  0
C  C70  1  0.87782340  0.05201418  0.74679285  1  0  -0.48947  0  3.658894  0  0  -0.509742  0  3.888393  0  0  -0.520068  0  3.897371  0  0  -0.159558  -0.502679  0  3.882591  0
C  C71  1  0.62218203  0.30522938  0.25304898  1  0  -0.490862  0  3.661165  0  0  -0.510183  0  3.889906  0  0  -0.520495  0  3.89883  0  0  -0.159876  -0.503003  0  3.88395  0
C  C72  1  0.12217858  0.94798492  0.25320683  1  0  -0.489371  0  3.658771  0  0  -0.509728  0  3.88839  0  0  -0.520053  0  3.897367  0  0  -0.159545  -0.502638  0  3.882552  0
C  C73  1  0.37781910  0.69477167  0.74695115  1  0  -0.490931  0  3.661123  0  0  -0.510281  0  3.889949  0  0  -0.520576  0  3.898877  0  0  -0.159905  -0.503096  0  3.883993  0
C  C74  1  0.07757318  0.24857656  0.54044447  1  0  0.574998  0  3.820979  0  0  0.524382  0  4.116663  0  0  0.5573  0  4.11013  0  0  0.234588  0.502018  0  4.120762  0
C  C75  1  0.42238742  0.70799674  0.45953775  1  0  0.573518  0  3.820552  0  0  0.523573  0  4.116071  0  0  0.556464  0  4.109557  0  0  0.234283  0.501194  0  4.120206  0
C  C76  1  0.92242543  0.75142351  0.45955487  1  0  0.574781  0  3.821172  0  0  0.524277  0  4.116706  0  0  0.557194  0  4.11018  0  0  0.234544  0.501913  0  4.120803  0
C  C77  1  0.57761321  0.29200139  0.54046137  1  0  0.57353  0  3.82052  0  0  0.523599  0  4.116017  0  0  0.556492  0  4.109501  0  0  0.234306  0.501213  0  4.120153  0
C  C78  1  0.12295921  0.34470531  0.42887372  1  0  -0.066444  0  3.579683  0  0  -0.164294  0  3.840615  0  0  -0.156059  0  3.843177  0  0  -0.138498  -0.169789  0  3.838936  0
C  C79  1  0.37715620  0.91566102  0.57125098  1  0  -0.064946  0  3.578564  0  0  -0.162904  0  3.838955  0  0  -0.154622  0  3.841547  0  0  -0.137409  -0.168408  0  3.837255  0
C  C80  1  0.87703957  0.65529573  0.57112596  1  0  -0.066447  0  3.579691  0  0  -0.164298  0  3.840615  0  0  -0.156058  0  3.843167  0  0  -0.138472  -0.169788  0  3.838931  0
C  C81  1  0.62284460  0.08433809  0.42874918  1  0  -0.064896  0  3.578498  0  0  -0.162873  0  3.83889  0  0  -0.154592  0  3.841482  0  0  -0.137399  -0.168378  0  3.837207  0
O  O82  1  0.07562007  0.16706933  0.95432821  1  0  -0.94918  0  2.163525  0  0  -0.836092  0  2.481777  0  0  -0.867722  0  2.451372  0  0  -0.382925  -0.813727  0  2.501918  0
O  O83  1  0.42423994  0.21273623  0.04555939  1  0  -0.949106  0  2.164619  0  0  -0.836027  0  2.482892  0  0  -0.867769  0  2.452614  0  0  -0.382512  -0.813674  0  2.503013  0
O  O84  1  0.92437989  0.83293172  0.04567241  1  0  -0.949187  0  2.163572  0  0  -0.836103  0  2.481818  0  0  -0.867738  0  2.451423  0  0  -0.382894  -0.813739  0  2.501958  0
O  O85  1  0.57575968  0.78726287  0.95443984  1  0  -0.949129  0  2.16467  0  0  -0.836031  0  2.482905  0  0  -0.86777  0  2.45262  0  0  -0.382529  -0.813674  0  2.503033  0
O  O86  1  0.03449463  0.92044646  0.87038790  1  0  -0.882271  0  2.04572  0  0  -0.789568  0  2.357224  0  0  -0.817213  0  2.325615  0  0  -0.385849  -0.770101  0  2.378387  0
O  O87  1  0.46531729  0.04998509  0.12933187  1  0  -0.882399  0  2.046208  0  0  -0.789517  0  2.357433  0  0  -0.817138  0  2.325797  0  0  -0.385995  -0.770089  0  2.378607  0
O  O88  1  0.96550517  0.07955361  0.12961307  1  0  -0.88227  0  2.045725  0  0  -0.789584  0  2.357231  0  0  -0.817225  0  2.325619  0  0  -0.385877  -0.770114  0  2.378392  0
O  O89  1  0.53468385  0.95001596  0.87067038  1  0  -0.882415  0  2.046144  0  0  -0.789531  0  2.357365  0  0  -0.817152  0  2.32573  0  0  -0.386001  -0.770098  0  2.378551  0
O  O90  1  0.19188002  0.03947360  0.80667309  1  0  -0.873657  0  1.996286  0  0  -0.781901  0  2.279515  0  0  -0.811231  0  2.256169  0  0  -0.380204  -0.761083  0  2.295073  0
O  O91  1  0.30817007  0.23276008  0.19328436  1  0  -0.873877  0  1.996714  0  0  -0.782228  0  2.279964  0  0  -0.81153  0  2.256609  0  0  -0.380454  -0.761435  0  2.29554  0
O  O92  1  0.80811977  0.96052648  0.19332788  1  0  -0.873665  0  1.996287  0  0  -0.78191  0  2.279499  0  0  -0.811234  0  2.256149  0  0  -0.380203  -0.761091  0  2.295057  0
O  O93  1  0.69183073  0.76723903  0.80671580  1  0  -0.873926  0  1.996726  0  0  -0.782271  0  2.279973  0  0  -0.811576  0  2.25662  0  0  -0.38047  -0.761471  0  2.295556  0
O  O94  1  0.81498018  0.53749935  0.90346776  1  0  -0.644196  0  2.076106  0  0  -0.567838  0  2.348614  0  0  -0.59826  0  2.333121  0  0  -0.311481  -0.546679  0  2.358651  0
O  O95  1  0.68482069  0.63409249  0.09649209  1  0  -0.644458  0  2.077089  0  0  -0.567993  0  2.350083  0  0  -0.598426  0  2.334575  0  0  -0.311574  -0.54686  0  2.360138  0
O  O96  1  0.18501911  0.46249782  0.09653219  1  0  -0.644188  0  2.076107  0  0  -0.567807  0  2.348636  0  0  -0.598229  0  2.333144  0  0  -0.311452  -0.546648  0  2.358673  0
O  O97  1  0.31518196  0.36591050  0.90350966  1  0  -0.644361  0  2.077133  0  0  -0.567855  0  2.350092  0  0  -0.598288  0  2.334583  0  0  -0.311509  -0.54672  0  2.360145  0
O  O98  1  0.97869517  0.62955869  0.84830014  1  0  -0.637782  0  2.035497  0  0  -0.565582  0  2.294934  0  0  -0.593999  0  2.278173  0  0  -0.311396  -0.546067  0  2.305834  0
O  O99  1  0.52094160  0.78117912  0.15152557  1  0  -0.639035  0  2.033919  0  0  -0.566317  0  2.293555  0  0  -0.594717  0  2.27676  0  0  -0.312052  -0.546847  0  2.304507  0
O  O100  1  0.02130328  0.37044041  0.15170097  1  0  -0.637852  0  2.035524  0  0  -0.565622  0  2.294982  0  0  -0.59404  0  2.27822  0  0  -0.311416  -0.546107  0  2.305884  0
O  O101  1  0.47905853  0.21882290  0.84847538  1  0  -0.639079  0  2.034009  0  0  -0.566326  0  2.293625  0  0  -0.594727  0  2.276831  0  0  -0.312063  -0.546857  0  2.304578  0
O  O102  1  0.07413691  0.35495696  0.51949876  1  0  -0.28314  0  2.303222  0  0  -0.205425  0  2.543427  0  0  -0.227255  0  2.543414  0  0  -0.167475  -0.190337  0  2.543044  0
O  O103  1  0.42583055  0.83535033  0.48054604  1  0  -0.283439  0  2.303201  0  0  -0.20596  0  2.543219  0  0  -0.227813  0  2.543221  0  0  -0.16757  -0.190817  0  2.542797  0
O  O104  1  0.92586170  0.64504311  0.48050128  1  0  -0.283128  0  2.303232  0  0  -0.20546  0  2.543411  0  0  -0.22729  0  2.543399  0  0  -0.167515  -0.190374  0  2.543026  0
O  O105  1  0.57416906  0.16464877  0.51945319  1  0  -0.283489  0  2.30324  0  0  -0.205984  0  2.543236  0  0  -0.227836  0  2.543235  0  0  -0.167596  -0.190841  0  2.542812  0
O  O106  1  0.12325990  0.14874950  0.48907390  1  0  -0.528983  0  1.97228  0  0  -0.486232  0  2.192532  0  0  -0.506889  0  2.185914  0  0  -0.273869  -0.471962  0  2.196687  0
O  O107  1  0.37666949  0.65948929  0.51086342  1  0  -0.528603  0  1.971067  0  0  -0.485971  0  2.191284  0  0  -0.506631  0  2.184673  0  0  -0.273907  -0.471699  0  2.195437  0
O  O108  1  0.87673989  0.85125057  0.51092567  1  0  -0.528866  0  1.972391  0  0  -0.48615  0  2.192599  0  0  -0.506801  0  2.185969  0  0  -0.273812  -0.471874  0  2.196738  0
O  O109  1  0.62333131  0.34050981  0.48913674  1  0  -0.528581  0  1.971063  0  0  -0.48598  0  2.191299  0  0  -0.506642  0  2.18469  0  0  -0.273905  -0.471708  0  2.195457  0
