# generated using pymatgen
data_Zn2H20C21SN2O9
_symmetry_space_group_name_H-M   'P 1'
_cell_length_a   7.79293335
_cell_length_b   11.14563512
_cell_length_c   14.52907115
_cell_angle_alpha   71.73135796
_cell_angle_beta   74.45086803
_cell_angle_gamma   69.54425553
_symmetry_Int_Tables_number   1
_chemical_formula_structural   Zn2H20C21SN2O9
_chemical_formula_sum   'Zn4 H40 C42 S2 N4 O18'
_cell_volume   1104.82077204
_cell_formula_units_Z   2
loop_
 _symmetry_equiv_pos_site_id
 _symmetry_equiv_pos_as_xyz
  1  'x, y, z'
loop_
 _atom_site_type_symbol
 _atom_site_label
 _atom_site_symmetry_multiplicity
 _atom_site_fract_x
 _atom_site_fract_y
 _atom_site_fract_z
 _atom_site_occupancy
 _atom_site_hle17_bader_spin_density
 _atom_site_hle17_ddec_charge
 _atom_site_hle17_ddec_spin_density
 _atom_site_hle17_ddec_sum_bond_order
 _atom_site_hle17_magmom
 _atom_site_hse06_10hf_bader_spin_density
 _atom_site_hse06_10hf_ddec_charge
 _atom_site_hse06_10hf_ddec_spin_density
 _atom_site_hse06_10hf_ddec_sum_bond_order
 _atom_site_hse06_10hf_magmom
 _atom_site_hse06_bader_spin_density
 _atom_site_hse06_ddec_charge
 _atom_site_hse06_ddec_spin_density
 _atom_site_hse06_ddec_sum_bond_order
 _atom_site_hse06_magmom
 _atom_site_pbe_bader_spin_density
 _atom_site_pbe_cm5_charge
 _atom_site_pbe_ddec_charge
 _atom_site_pbe_ddec_spin_density
 _atom_site_pbe_ddec_sum_bond_order
 _atom_site_pbe_magmom
Zn  Zn0  1  0.66996875  0.00169712  0.55676203  1  0  1.064232  0  1.859398  0  0  0.883148  0  2.345886  0  0  0.931706  0  2.283444  0  0  0.675005  0.849165  0  2.38897  0
Zn  Zn1  1  0.77126193  0.50165486  0.05690514  1  0  1.061445  0  1.861753  0  0  0.880727  0  2.34835  0  0  0.929226  0  2.285988  0  0  0.674376  0.846608  0  2.391714  0
Zn  Zn2  1  0.88102203  0.71578807  0.62956389  1  0  1.09714  0  1.794633  0  0  0.925524  0  2.254305  0  0  0.971526  0  2.195945  0  0  0.676465  0.89316  0  2.294796  0
Zn  Zn3  1  0.77338073  0.21582621  0.12959242  1  0  1.096576  0  1.796106  0  0  0.925602  0  2.255905  0  0  0.971648  0  2.197472  0  0  0.676815  0.893144  0  2.296556  0
H  H4  1  0.54193035  0.82010268  0.65745647  1  0  0.395376  0  0.928845  0  0  0.363752  0  0.995253  0  0  0.373694  0  0.981125  0  0  0.268513  0.356697  0  1.005257  0
H  H5  1  0.98036728  0.32006646  0.15750909  1  0  0.39485  0  0.929099  0  0  0.363539  0  0.995167  0  0  0.373437  0  0.981098  0  0  0.268563  0.356528  0  1.005099  0
H  H6  1  0.14939836  0.78136095  0.67178819  1  0  0.433033  0  0.864699  0  0  0.401057  0  0.928557  0  0  0.411692  0  0.913165  0  0  0.290427  0.393587  0  0.939346  0
H  H7  1  0.39732045  0.28143929  0.17185355  1  0  0.433553  0  0.864402  0  0  0.401533  0  0.928157  0  0  0.412098  0  0.912873  0  0  0.290783  0.394019  0  0.939006  0
H  H8  1  0.94735603  0.88487220  0.70230446  1  0  0.428624  0  0.876081  0  0  0.395978  0  0.941887  0  0  0.407751  0  0.924842  0  0  0.285956  0.387667  0  0.953908  0
H  H9  1  0.46546158  0.38493931  0.20237521  1  0  0.428921  0  0.875919  0  0  0.396324  0  0.941713  0  0  0.408063  0  0.924726  0  0  0.286041  0.387937  0  0.953873  0
H  H10  1  0.22109923  0.66213476  0.35738040  1  0  0.115848  0  0.94495  0  0  0.122081  0  1.013054  0  0  0.126269  0  1.008623  0  0  0.11362  0.119003  0  1.016321  0
H  H11  1  0.75948164  0.16241260  0.85737808  1  0  0.11535  0  0.945937  0  0  0.122442  0  1.013118  0  0  0.126629  0  1.008688  0  0  0.114239  0.119335  0  1.016451  0
H  H12  1  0.45743592  0.88079633  0.08036840  1  0  0.110294  0  0.952878  0  0  0.117381  0  1.020038  0  0  0.121493  0  1.016182  0  0  0.109677  0.1144  0  1.022832  0
H  H13  1  0.58179422  0.38088307  0.58025353  1  0  0.109685  0  0.953057  0  0  0.116596  0  1.020602  0  0  0.120729  0  1.016677  0  0  0.109217  0.113515  0  1.023515  0
H  H14  1  0.06586697  0.08582884  0.29322530  1  0  0.111122  0  0.944157  0  0  0.118095  0  1.012406  0  0  0.12205  0  1.008834  0  0  0.109156  0.115318  0  1.014819  0
H  H15  1  0.55515383  0.58614211  0.79308528  1  0  0.111367  0  0.944122  0  0  0.118395  0  1.012112  0  0  0.122335  0  1.008559  0  0  0.10959  0.115396  0  1.015015  0
H  H16  1  0.55680555  0.27051538  0.44546306  1  0  0.090071  0  0.922135  0  0  0.103259  0  0.975957  0  0  0.105679  0  0.97362  0  0  0.125231  0.10144  0  0.977741  0
H  H17  1  0.72698304  0.77046982  0.94535708  1  0  0.089308  0  0.921235  0  0  0.102845  0  0.974724  0  0  0.105215  0  0.972437  0  0  0.125165  0.101025  0  0.976522  0
H  H18  1  0.28241754  0.43323404  0.38016161  1  0  0.12334  0  0.974329  0  0  0.132209  0  1.03395  0  0  0.135917  0  1.032148  0  0  0.113761  0.129537  0  1.035397  0
H  H19  1  0.90400438  0.93319995  0.88030335  1  0  0.124266  0  0.974087  0  0  0.133249  0  1.033488  0  0  0.136964  0  1.03167  0  0  0.114073  0.130547  0  1.035033  0
H  H20  1  0.01966646  0.12031663  0.47281706  1  0  0.122462  0  0.971543  0  0  0.130361  0  1.033829  0  0  0.133832  0  1.033077  0  0  0.10606  0.127886  0  1.034464  0
H  H21  1  0.38665975  0.62027800  0.97311060  1  0  0.123354  0  0.971756  0  0  0.131515  0  1.033636  0  0  0.134921  0  1.032977  0  0  0.106758  0.129066  0  1.034273  0
H  H22  1  0.30812727  0.96845297  0.53448906  1  0  0.086964  0  0.951956  0  0  0.095255  0  1.013648  0  0  0.09834  0  1.010653  0  0  0.115895  0.092858  0  1.015995  0
H  H23  1  0.18834831  0.46845565  0.03469368  1  0  0.087407  0  0.951166  0  0  0.095736  0  1.012743  0  0  0.098775  0  1.009828  0  0  0.115981  0.093337  0  1.015181  0
H  H24  1  0.82918682  0.37811577  0.44445948  1  0  0.084876  0  0.927767  0  0  0.105433  0  0.985982  0  0  0.105827  0  0.986355  0  0  0.099284  0.105085  0  0.98581  0
H  H25  1  0.34790589  0.87810997  0.94479137  1  0  0.084642  0  0.928021  0  0  0.10578  0  0.985432  0  0  0.106223  0  0.98574  0  0  0.098994  0.105408  0  0.985306  0
H  H26  1  0.92729877  0.35317048  0.32604253  1  0  0.1  0  0.921535  0  0  0.121944  0  0.973824  0  0  0.123061  0  0.973551  0  0  0.101337  0.121092  0  0.974089  0
H  H27  1  0.39326736  0.85294262  0.82641478  1  0  0.100313  0  0.919621  0  0  0.121996  0  0.972241  0  0  0.123104  0  0.971952  0  0  0.101709  0.121138  0  0.972523  0
H  H28  1  0.96093380  0.56839300  0.40557968  1  0  0.074615  0  0.941296  0  0  0.093033  0  1.004045  0  0  0.093925  0  1.004294  0  0  0.090612  0.092329  0  1.003924  0
H  H29  1  0.06502747  0.06854086  0.90554443  1  0  0.074367  0  0.940994  0  0  0.093031  0  1.003968  0  0  0.093906  0  1.004254  0  0  0.090268  0.092284  0  1.003965  0
H  H30  1  0.07278318  0.53906164  0.28823921  1  0  0.068615  0  0.956426  0  0  0.086041  0  1.018848  0  0  0.087254  0  1.018941  0  0  0.088176  0.085134  0  1.018881  0
H  H31  1  0.10015175  0.03896787  0.78827135  1  0  0.070147  0  0.955183  0  0  0.08782  0  1.017652  0  0  0.089055  0  1.017719  0  0  0.088816  0.086922  0  1.017661  0
H  H32  1  0.76166839  0.58133833  0.24616016  1  0  0.081297  0  0.942356  0  0  0.098639  0  1.00416  0  0  0.099476  0  1.004212  0  0  0.093209  0.097628  0  1.004883  0
H  H33  1  0.41103377  0.08125939  0.74631443  1  0  0.080484  0  0.942869  0  0  0.098075  0  1.004724  0  0  0.098956  0  1.004665  0  0  0.093335  0.097354  0  1.004943  0
H  H34  1  0.64976867  0.61415175  0.36328728  1  0  0.096327  0  0.938775  0  0  0.111901  0  0.999274  0  0  0.113518  0  0.998963  0  0  0.09649  0.110635  0  0.999584  0
H  H35  1  0.37281066  0.11415733  0.86344764  1  0  0.095794  0  0.939171  0  0  0.111329  0  0.999705  0  0  0.112866  0  0.999509  0  0  0.096424  0.110158  0  0.999947  0
H  H36  1  0.57585761  0.06904212  0.30606406  1  0  0.078871  0  0.958683  0  0  0.087006  0  1.023483  0  0  0.088839  0  1.022533  0  0  0.114085  0.085654  0  1.024234  0
H  H37  1  0.04895830  0.56891989  0.80614991  1  0  0.079016  0  0.957999  0  0  0.087086  0  1.022933  0  0  0.088946  0  1.021947  0  0  0.113911  0.085646  0  1.023799  0
H  H38  1  0.56369569  0.83603003  0.37994824  1  0  0.116112  0  0.948803  0  0  0.124105  0  1.012337  0  0  0.127188  0  1.011944  0  0  0.108688  0.121876  0  1.012827  0
H  H39  1  0.22039105  0.33599390  0.88006042  1  0  0.116662  0  0.9487  0  0  0.124532  0  1.0124  0  0  0.12756  0  1.012049  0  0  0.108604  0.122217  0  1.01302  0
H  H40  1  0.98843151  0.72672533  0.13622779  1  0  0.101314  0  0.97091  0  0  0.110793  0  1.033864  0  0  0.112593  0  1.036129  0  0  0.103352  0.109563  0  1.032401  0
H  H41  1  0.14850481  0.22652429  0.63640457  1  0  0.100657  0  0.970849  0  0  0.110269  0  1.033859  0  0  0.112063  0  1.036109  0  0  0.103408  0.108964  0  1.032438  0
H  H42  1  0.98713442  0.96242676  0.07362023  1  0  0.082691  0  0.945558  0  0  0.09257  0  1.008444  0  0  0.094394  0  1.007293  0  0  0.11829  0.091181  0  1.009376  0
H  H43  1  0.97670962  0.46219021  0.57377483  1  0  0.083272  0  0.946154  0  0  0.092687  0  1.009514  0  0  0.094553  0  1.008322  0  0  0.118323  0.091283  0  1.010416  0
C  C44  1  0.13385808  0.87291786  0.33576989  1  0  -0.068457  0  3.734511  0  0  -0.040202  0  3.970061  0  0  -0.051549  0  3.993691  0  0  -0.014422  -0.033066  0  3.954231  0
C  C45  1  0.65756702  0.37324777  0.83565331  1  0  -0.068152  0  3.733448  0  0  -0.040032  0  3.968949  0  0  -0.051308  0  3.992508  0  0  -0.014036  -0.032909  0  3.95314  0
C  C46  1  0.23420122  0.75524691  0.30704722  1  0  -0.030564  0  3.648886  0  0  -0.072908  0  3.901316  0  0  -0.06637  0  3.916665  0  0  -0.060737  -0.07678  0  3.890826  0
C  C47  1  0.70359476  0.25549771  0.80700524  1  0  -0.029175  0  3.648066  0  0  -0.07204  0  3.899949  0  0  -0.065541  0  3.91534  0  0  -0.061427  -0.075984  0  3.889459  0
C  C48  1  0.34768295  0.75780246  0.21445718  1  0  -0.072495  0  3.758033  0  0  -0.044491  0  3.994343  0  0  -0.055291  0  4.017348  0  0  -0.016197  -0.037764  0  3.979011  0
C  C49  1  0.68013006  0.25791413  0.71443233  1  0  -0.076193  0  3.75488  0  0  -0.048483  0  3.991954  0  0  -0.059314  0  4.014934  0  0  -0.016689  -0.041591  0  3.97648  0
C  C50  1  0.36640507  0.87833269  0.15185393  1  0  -0.053603  0  3.713928  0  0  -0.095991  0  3.965508  0  0  -0.090861  0  3.982336  0  0  -0.075091  -0.098995  0  3.954145  0
C  C51  1  0.60375831  0.37844614  0.65174249  1  0  -0.049771  0  3.710706  0  0  -0.091843  0  3.962193  0  0  -0.086635  0  3.979027  0  0  -0.072979  -0.094731  0  3.950657  0
C  C52  1  0.26532559  0.99529163  0.18038224  1  0  -0.132083  0  3.774443  0  0  -0.101158  0  4.025713  0  0  -0.110821  0  4.048002  0  0  -0.021583  -0.095116  0  4.010865  0
C  C53  1  0.55924926  0.49545851  0.68023648  1  0  -0.133305  0  3.773199  0  0  -0.102817  0  4.025093  0  0  -0.112616  0  4.047504  0  0  -0.022566  -0.096648  0  4.009995  0
C  C54  1  0.14812375  0.99410869  0.27185139  1  0  -0.056017  0  3.706683  0  0  -0.099416  0  3.964256  0  0  -0.094371  0  3.981726  0  0  -0.074473  -0.102287  0  3.952253  0
C  C55  1  0.58600832  0.49441290  0.77171661  1  0  -0.056966  0  3.705638  0  0  -0.100009  0  3.962888  0  0  -0.094935  0  3.980342  0  0  -0.075112  -0.102998  0  3.951206  0
C  C56  1  0.00264949  0.86748314  0.43237048  1  0  0.666952  0  3.880279  0  0  0.612766  0  4.166637  0  0  0.648394  0  4.159822  0  0  0.223733  0.588601  0  4.170572  0
C  C57  1  0.69752119  0.36784867  0.93229011  1  0  0.667192  0  3.876942  0  0  0.61354  0  4.162992  0  0  0.649154  0  4.156156  0  0  0.223054  0.589431  0  4.166793  0
C  C58  1  0.44349770  0.63390211  0.17920846  1  0  0.654738  0  3.922549  0  0  0.601387  0  4.218785  0  0  0.635813  0  4.211636  0  0  0.214293  0.578139  0  4.222779  0
C  C59  1  0.74345602  0.13394949  0.67917187  1  0  0.657013  0  3.918699  0  0  0.60375  0  4.21454  0  0  0.638187  0  4.207397  0  0  0.214983  0.580373  0  4.218763  0
C  C60  1  0.43469091  0.24114656  0.45019929  1  0  0.147888  0  3.687065  0  0  0.116378  0  3.937693  0  0  0.125009  0  3.953999  0  0  0.053772  0.110757  0  3.926614  0
C  C61  1  0.87363142  0.74114861  0.95025880  1  0  0.149619  0  3.685772  0  0  0.117567  0  3.936379  0  0  0.126247  0  3.952662  0  0  0.05359  0.111974  0  3.925225  0
C  C62  1  0.27821682  0.33234882  0.41503507  1  0  -0.161294  0  3.68446  0  0  -0.178523  0  3.929428  0  0  -0.186739  0  3.949478  0  0  -0.079074  -0.17328  0  3.916063  0
C  C63  1  0.97410009  0.83231824  0.91522356  1  0  -0.163752  0  3.686051  0  0  -0.180674  0  3.931938  0  0  -0.188898  0  3.951945  0  0  -0.079104  -0.175467  0  3.918681  0
C  C64  1  0.12277393  0.29249290  0.42185883  1  0  0.170031  0  3.675366  0  0  0.184236  0  3.914415  0  0  0.190449  0  3.935692  0  0  0.023755  0.180343  0  3.899809  0
C  C65  1  0.16250299  0.79245541  0.92216178  1  0  0.17088  0  3.678104  0  0  0.183203  0  3.919603  0  0  0.1894  0  3.940886  0  0  0.022959  0.179258  0  3.905029  0
C  C66  1  0.13511077  0.15850829  0.46525662  1  0  -0.173005  0  3.684592  0  0  -0.19062  0  3.931878  0  0  -0.199601  0  3.953802  0  0  -0.084215  -0.184849  0  3.917122  0
C  C67  1  0.24062310  0.65847916  0.96552342  1  0  -0.173776  0  3.685218  0  0  -0.191009  0  3.933046  0  0  -0.199917  0  3.95493  0  0  -0.085534  -0.185271  0  3.918335  0
C  C68  1  0.29566974  0.07262078  0.49952227  1  0  0.118908  0  3.712647  0  0  0.090711  0  3.962192  0  0  0.097585  0  3.980932  0  0  0.04096  0.08635  0  3.949496  0
C  C69  1  0.13165168  0.57260794  0.99970074  1  0  0.118572  0  3.711226  0  0  0.090183  0  3.960474  0  0  0.09708  0  3.979194  0  0  0.041476  0.085761  0  3.947834  0
C  C70  1  0.94937384  0.38709211  0.38458776  1  0  -0.157514  0  3.676844  0  0  -0.19903  0  3.925347  0  0  -0.200594  0  3.937767  0  0  -0.152638  -0.19786  0  3.916599  0
C  C71  1  0.27868348  0.88699771  0.88489772  1  0  -0.158238  0  3.676833  0  0  -0.198932  0  3.925553  0  0  -0.200447  0  3.937892  0  0  -0.152826  -0.197653  0  3.916718  0
C  C72  1  0.94999457  0.53123035  0.34615886  1  0  -0.096967  0  3.666668  0  0  -0.137622  0  3.925678  0  0  -0.138656  0  3.93893  0  0  -0.164256  -0.1367  0  3.91631  0
C  C73  1  0.17269577  0.03119954  0.84624814  1  0  -0.097714  0  3.665444  0  0  -0.139728  0  3.925986  0  0  -0.140819  0  3.93925  0  0  -0.163984  -0.138793  0  3.916652  0
C  C74  1  0.77257604  0.61950784  0.30510738  1  0  -0.167369  0  3.675977  0  0  -0.208066  0  3.921521  0  0  -0.210017  0  3.933529  0  0  -0.159342  -0.206387  0  3.913271  0
C  C75  1  0.30297760  0.11942573  0.80523186  1  0  -0.165561  0  3.675409  0  0  -0.2056  0  3.92157  0  0  -0.207515  0  3.933538  0  0  -0.159444  -0.204127  0  3.913295  0
C  C76  1  0.66587901  0.98937890  0.27167922  1  0  0.13947  0  3.695687  0  0  0.106941  0  3.947735  0  0  0.114645  0  3.967129  0  0  0.046701  0.101932  0  3.934558  0
C  C77  1  0.07309304  0.48923627  0.77175750  1  0  0.138192  0  3.694848  0  0  0.105539  0  3.946741  0  0  0.113221  0  3.966116  0  0  0.045858  0.10061  0  3.933499  0
C  C78  1  0.65895099  0.86013964  0.31165463  1  0  -0.160073  0  3.674437  0  0  -0.177722  0  3.922322  0  0  -0.187236  0  3.945598  0  0  -0.082075  -0.171592  0  3.906866  0
C  C79  1  0.16938465  0.36004804  0.81174019  1  0  -0.160244  0  3.674352  0  0  -0.177273  0  3.922529  0  0  -0.186732  0  3.94577  0  0  -0.081324  -0.171133  0  3.907115  0
C  C80  1  0.77436035  0.76084451  0.26408556  1  0  0.181363  0  3.673509  0  0  0.196193  0  3.909973  0  0  0.202292  0  3.931651  0  0  0.025689  0.192129  0  3.895223  0
C  C81  1  0.20081334  0.26072420  0.76419161  1  0  0.181382  0  3.672836  0  0  0.194688  0  3.91153  0  0  0.200886  0  3.933039  0  0  0.025596  0.190682  0  3.896893  0
C  C82  1  0.89410571  0.79919520  0.17664359  1  0  -0.172628  0  3.697031  0  0  -0.189543  0  3.944398  0  0  -0.199203  0  3.968753  0  0  -0.084267  -0.183277  0  3.928058  0
C  C83  1  0.13001769  0.29901766  0.67679402  1  0  -0.170652  0  3.696423  0  0  -0.187118  0  3.944027  0  0  -0.196798  0  3.96839  0  0  -0.083688  -0.180965  0  3.927871  0
C  C84  1  0.89479845  0.92998714  0.14086516  1  0  0.142271  0  3.702511  0  0  0.110278  0  3.952444  0  0  0.118065  0  3.971974  0  0  0.049058  0.105196  0  3.939324  0
C  C85  1  0.03428018  0.42979529  0.64101770  1  0  0.139342  0  3.706858  0  0  0.107433  0  3.956547  0  0  0.115176  0  3.976098  0  0  0.048239  0.102428  0  3.943339  0
S  S86  1  0.26175455  0.14525039  0.08837176  1  0  1.276408  0  5.674587  0  0  1.177957  0  6.191655  0  0  1.225723  0  6.169218  0  0  0.503625  1.145078  0  6.206145  0
S  S87  1  0.50500881  0.64531910  0.58820814  1  0  1.279245  0  5.668041  0  0  1.180631  0  6.185237  0  0  1.228567  0  6.162689  0  0  0.504208  1.147756  0  6.199616  0
N  N88  1  0.44452772  0.11310452  0.49254002  1  0  -0.366111  0  3.336113  0  0  -0.283781  0  3.623685  0  0  -0.304158  0  3.637017  0  0  -0.343572  -0.270027  0  3.614448  0
N  N89  1  0.94938684  0.61310488  0.99263783  1  0  -0.365947  0  3.336133  0  0  -0.282604  0  3.622448  0  0  -0.302985  0  3.635807  0  0  -0.342323  -0.268776  0  3.61312  0
N  N90  1  0.78257386  0.02450485  0.18766356  1  0  -0.354355  0  3.320201  0  0  -0.267157  0  3.598861  0  0  -0.288455  0  3.613677  0  0  -0.336303  -0.252754  0  3.588888  0
N  N91  1  0.00516234  0.52435981  0.68777279  1  0  -0.353633  0  3.321721  0  0  -0.265764  0  3.599564  0  0  -0.287048  0  3.614417  0  0  -0.336191  -0.251496  0  3.58943  0
O  O92  1  0.89022691  0.97756665  0.44866714  1  0  -0.653724  0  2.085693  0  0  -0.580405  0  2.361564  0  0  -0.608654  0  2.344415  0  0  -0.320398  -0.560722  0  2.372627  0
O  O93  1  0.68342528  0.47796217  0.94860539  1  0  -0.652992  0  2.087057  0  0  -0.58012  0  2.363085  0  0  -0.608375  0  2.346088  0  0  -0.320027  -0.560325  0  2.374044  0
O  O94  1  0.01062784  0.75453571  0.48985402  1  0  -0.602961  0  2.121802  0  0  -0.530641  0  2.390614  0  0  -0.55798  0  2.375869  0  0  -0.299707  -0.51172  0  2.400131  0
O  O95  1  0.74502487  0.25491741  0.98978942  1  0  -0.602315  0  2.119248  0  0  -0.530989  0  2.388824  0  0  -0.558346  0  2.374096  0  0  -0.299134  -0.511904  0  2.398127  0
O  O96  1  0.56102171  0.64687049  0.09785629  1  0  -0.665181  0  2.102297  0  0  -0.595288  0  2.389751  0  0  -0.624559  0  2.374206  0  0  -0.331721  -0.574674  0  2.399727  0
O  O97  1  0.69393486  0.14685048  0.59791740  1  0  -0.66854  0  2.099685  0  0  -0.59765  0  2.386173  0  0  -0.626944  0  2.370613  0  0  -0.333033  -0.577046  0  2.396274  0
O  O98  1  0.40299029  0.52940346  0.22817246  1  0  -0.610054  0  2.000711  0  0  -0.553844  0  2.221204  0  0  -0.578306  0  2.211862  0  0  -0.301085  -0.53674  0  2.227264  0
O  O99  1  0.83980287  0.02951130  0.72801884  1  0  -0.609173  0  2.000572  0  0  -0.553567  0  2.221562  0  0  -0.57805  0  2.212126  0  0  -0.300608  -0.536572  0  2.227673  0
O  O100  1  0.10095960  0.16723007  0.04329624  1  0  -0.688234  0  1.999363  0  0  -0.631857  0  2.268434  0  0  -0.655433  0  2.254622  0  0  -0.338609  -0.615215  0  2.277446  0
O  O101  1  0.68891806  0.66729608  0.54320074  1  0  -0.689129  0  1.996806  0  0  -0.632605  0  2.266293  0  0  -0.656098  0  2.252231  0  0  -0.338747  -0.61582  0  2.275124  0
O  O102  1  0.43917900  0.12572366  0.02152209  1  0  -0.614049  0  1.920001  0  0  -0.573774  0  2.160903  0  0  -0.593974  0  2.149121  0  0  -0.334189  -0.55952  0  2.1685  0
O  O103  1  0.41406688  0.62575727  0.52131516  1  0  -0.614224  0  1.918249  0  0  -0.574131  0  2.159341  0  0  -0.594336  0  2.147503  0  0  -0.334205  -0.559939  0  2.166983  0
O  O104  1  0.22357305  0.24952237  0.14168750  1  0  -0.694822  0  1.996217  0  0  -0.624492  0  2.22476  0  0  -0.646202  0  2.208959  0  0  -0.339594  -0.609115  0  2.235372  0
O  O105  1  0.38550017  0.74955269  0.64151229  1  0  -0.696253  0  1.994378  0  0  -0.625554  0  2.222801  0  0  -0.647569  0  2.207054  0  0  -0.340011  -0.610234  0  2.233381  0
O  O106  1  0.64482747  0.84883333  0.66265525  1  0  -0.953854  0  1.84942  0  0  -0.852231  0  2.133929  0  0  -0.884362  0  2.095594  0  0  -0.589903  -0.829358  0  2.160066  0
O  O107  1  0.84355069  0.34878946  0.16274110  1  0  -0.951905  0  1.849244  0  0  -0.851097  0  2.133374  0  0  -0.883171  0  2.095168  0  0  -0.589717  -0.82815  0  2.159707  0
O  O108  1  0.01352925  0.79291746  0.69334379  1  0  -0.85463  0  1.913568  0  0  -0.786981  0  2.126618  0  0  -0.809857  0  2.090586  0  0  -0.581552  -0.770746  0  2.151522  0
O  O109  1  0.50015080  0.29300839  0.19335637  1  0  -0.856471  0  1.914388  0  0  -0.788676  0  2.127743  0  0  -0.811544  0  2.091778  0  0  -0.582522  -0.772455  0  2.152901  0
