# generated using pymatgen
data_ZnH20C20NO5
_symmetry_space_group_name_H-M   'P 1'
_cell_length_a   10.83795593
_cell_length_b   13.94089713
_cell_length_c   15.34319279
_cell_angle_alpha   89.83555376
_cell_angle_beta   90.10743553
_cell_angle_gamma   89.60860861
_symmetry_Int_Tables_number   1
_chemical_formula_structural   ZnH20C20NO5
_chemical_formula_sum   'Zn2 H40 C40 N2 O10'
_cell_volume   2318.14791783
_cell_formula_units_Z   2
loop_
 _symmetry_equiv_pos_site_id
 _symmetry_equiv_pos_as_xyz
  1  'x, y, z'
loop_
 _atom_site_type_symbol
 _atom_site_label
 _atom_site_symmetry_multiplicity
 _atom_site_fract_x
 _atom_site_fract_y
 _atom_site_fract_z
 _atom_site_occupancy
 _atom_site_pbe_bader_charge
 _atom_site_pbe_bader_spin_density
 _atom_site_pbe_cm5_charge
 _atom_site_pbe_ddec_charge
 _atom_site_pbe_ddec_spin_density
 _atom_site_pbe_ddec_sum_bond_order
 _atom_site_pbe_magmom
Zn  Zn0  1  0.50136432  0.40144600  0.50075739  1  1.272338  0  0.663758  0.808578  0  2.442415  0
Zn  Zn1  1  0.49954045  0.59987512  0.50085850  1  1.304682  0  0.666838  0.814372  0  2.439424  0
H  H2  1  0.09298438  0.35879125  0.44765967  1  0.063149  0  0.103192  0.049112  0  0.968952  0
H  H3  1  0.10590648  0.63982119  0.54863528  1  0.042926  0  0.098717  0.035585  0  0.994335  0
H  H4  1  0.58413736  0.64122219  0.78194133  1  0.088052  0  0.099094  0.100079  0  1.009649  0
H  H5  1  0.41062786  0.36598837  0.77605923  1  0.083927  0  0.102209  0.107148  0  1.001256  0
H  H6  1  0.46336293  0.93300025  0.36117133  1  0.06442  0  0.115364  0.120721  0  0.987716  0
H  H7  1  0.34513928  0.07053815  0.40940050  1  0.097602  0  0.114229  0.119666  0  0.999733  0
H  H8  1  0.46713424  0.75249880  0.36811054  1  0.160753  0  0.128943  0.105826  0  0.994335  0
H  H9  1  0.35227873  0.25081096  0.41392085  1  0.133399  0  0.136461  0.117883  0  0.960586  0
H  H10  1  0.53545189  0.75268635  0.63271441  1  0.154891  0  0.127891  0.106714  0  0.9909  0
H  H11  1  0.64540278  0.24761406  0.58661672  1  0.117171  0  0.132098  0.108836  0  0.968429  0
H  H12  1  0.53521350  0.93312812  0.63849753  1  0.064011  0  0.114605  0.120282  0  0.989539  0
H  H13  1  0.65151708  0.06749119  0.59061800  1  0.083337  0  0.114485  0.120154  0  0.990014  0
H  H14  1  0.90038847  0.48038221  0.35928263  1  0.036991  0  0.097786  0.106354  0  0.991014  0
H  H15  1  0.89204672  0.63414315  0.43170627  1  0.067337  0  0.096077  0.104698  0  0.99662  0
H  H16  1  0.88419290  0.37086181  0.41643399  1  0.038371  0  0.091532  0.100129  0  0.986804  0
H  H17  1  0.89054657  0.64429204  0.54625781  1  0.027745  0  0.086401  0.087902  0  0.994191  0
H  H18  1  0.11905258  0.38786243  0.59047188  1  0.036232  0  0.092482  0.09152  0  0.987581  0
H  H19  1  0.10900810  0.50479237  0.63395132  1  0.03568  0  0.092735  0.091914  0  0.97773  0
H  H20  1  0.90297978  0.37655272  0.58540595  1  0.053347  0  0.088287  0.088244  0  0.991404  0
H  H21  1  0.89483049  0.48790240  0.63957010  1  0.028665  0  0.090553  0.090151  0  0.974388  0
H  H22  1  0.53734350  0.35206931  0.06133233  1  0.070884  0  0.098738  0.09694  0  1.006929  0
H  H23  1  0.43335724  0.65088074  0.05984893  1  0.045479  0  0.098864  0.095069  0  1.007561  0
H  H24  1  0.53972266  0.35389161  0.22423268  1  0.089783  0  0.103139  0.107028  0  1.001274  0
H  H25  1  0.43692886  0.65105775  0.22252116  1  0.088399  0  0.100245  0.097571  0  1.014355  0
H  H26  1  0.57895833  0.63954302  0.94450799  1  0.055551  0  0.09831  0.096698  0  1.008595  0
H  H27  1  0.40007855  0.36465966  0.93876527  1  0.067343  0  0.099446  0.098452  0  1.004791  0
H  H28  1  0.19247695  0.56094477  0.30041528  1  0.06364  0  0.089981  0.058594  0  1.002726  0
H  H29  1  0.03079606  0.54829828  0.29082476  1  0.024406  0  0.089205  0.045573  0  1.011345  0
H  H30  1  0.22411301  0.44329907  0.17989661  1  0.031771  0  0.084442  0.078545  0  0.999095  0
H  H31  1  0.06294775  0.42418599  0.17359692  1  0.03388  0  0.084696  0.075016  0  0.981319  0
H  H32  1  0.02875842  0.59703469  0.13082373  1  0.016476  0  0.079522  0.10177  0  1.010336  0
H  H33  1  0.13485931  0.54187565  0.05797847  1  0.03891  0  0.082398  0.109293  0  1.00726  0
H  H34  1  0.18943277  0.61912821  0.14083594  1  -0.000154  0  0.077591  0.100691  0  1.028451  0
H  H35  1  0.20858909  0.77134767  0.37536492  1  0.013942  0  0.093929  0.056539  0  0.97704  0
H  H36  1  0.21542464  0.75087226  0.48994098  1  0.035291  0  0.087223  0.045079  0  1.012979  0
H  H37  1  0.98561131  0.81880300  0.38858107  1  0.023045  0  0.090135  0.08509  0  0.971929  0
H  H38  1  0.99379110  0.80355440  0.50273455  1  0.004553  0  0.089124  0.083745  0  0.98314  0
H  H39  1  0.15896282  0.93132460  0.51138367  1  0.004051  0  0.079504  0.101965  0  1.014918  0
H  H40  1  0.02173145  0.97758983  0.46323237  1  0.048262  0  0.084575  0.111209  0  1.005202  0
H  H41  1  0.14959305  0.94707302  0.39656871  1  -0.015131  0  0.078448  0.097119  0  1.019845  0
C  C42  1  0.49441449  0.50417036  0.33042005  1  1.574045  0  0.215229  0.593582  0  4.168969  0
C  C43  1  0.93321916  0.45147531  0.58207375  1  -0.042687  0  -0.161368  -0.178256  0  3.875316  0
C  C44  1  0.51387916  0.41761715  0.09652015  1  -0.133616  0  -0.092459  -0.139148  0  3.995104  0
C  C45  1  0.45860436  0.58588120  0.09565331  1  0.006366  0  -0.091455  -0.136379  0  3.996565  0
C  C46  1  0.51616610  0.41828637  0.18718509  1  0.03861  0  -0.0836  -0.086618  0  3.990314  0
C  C47  1  0.45993323  0.58630289  0.18624893  1  -0.116886  0  -0.084998  -0.08834  0  4.001119  0
C  C48  1  0.48979900  0.50281809  0.23292490  1  -0.017687  0  -0.016402  -0.031428  0  3.961198  0
C  C49  1  0.48628404  0.50165460  0.04917412  1  0.023274  0  -0.004679  0.072679  0  4.002793  0
C  C50  1  0.53958343  0.58028162  0.90766521  1  -0.10122  0  -0.095401  -0.140092  0  4.001308  0
C  C51  1  0.44228091  0.42482792  0.90458927  1  0.005926  0  -0.094282  -0.140004  0  3.996494  0
C  C52  1  0.54358630  0.58118638  0.81707550  1  0.013057  0  -0.08997  -0.093788  0  4.009348  0
C  C53  1  0.44701062  0.42548072  0.81395985  1  -0.110154  0  -0.087356  -0.090224  0  3.995016  0
C  C54  1  0.49752068  0.50373347  0.76928220  1  0.058733  0  -0.021787  -0.036034  0  3.972883  0
C  C55  1  0.48875252  0.50215435  0.95303340  1  -0.091931  0  -0.0056  0.073778  0  4.006373  0
C  C56  1  0.47866556  0.89621548  0.42305469  1  0.053524  0  -0.076019  -0.174646  0  3.946623  0
C  C57  1  0.41421231  0.10672883  0.44893884  1  0.013729  0  -0.076158  -0.175863  0  3.941619  0
C  C58  1  0.26230830  0.49832070  0.49708488  1  1.531183  0  0.222793  0.608347  0  4.103185  0
C  C59  1  0.48116210  0.79658101  0.42588854  1  0.392241  0  0.0648  0.104644  0  3.917391  0
C  C60  1  0.41692826  0.20640860  0.45118171  1  0.477569  0  0.067135  0.110352  0  3.898949  0
C  C61  1  0.52065965  0.79662929  0.57459522  1  0.394729  0  0.062781  0.105776  0  3.914974  0
C  C62  1  0.58056047  0.20461610  0.54916004  1  0.538551  0  0.064434  0.109149  0  3.918143  0
C  C63  1  0.52083772  0.89623785  0.57681202  1  0.033852  0  -0.079001  -0.178935  0  3.953609  0
C  C64  1  0.58283574  0.10500868  0.55104217  1  -0.029763  0  -0.078301  -0.178806  0  3.951649  0
C  C65  1  0.49906507  0.94819650  0.49979554  1  0.002649  0  0.015527  0.104837  0  3.996118  0
C  C66  1  0.49850816  0.05400407  0.49980226  1  -0.026343  0  0.014074  0.104473  0  3.995705  0
C  C67  1  0.50208713  0.50441357  0.67170819  1  1.525872  0  0.210758  0.591641  0  4.17914  0
C  C68  1  0.73939703  0.49534523  0.49972469  1  1.547498  0  0.220481  0.59423  0  4.091543  0
C  C69  1  0.06977006  0.43061515  0.42247195  1  0.460924  0  0.006286  0.166562  0  3.804651  0
C  C70  1  0.06984066  0.60387528  0.49003522  1  0.439005  0  0.003237  0.160792  0  3.799854  0
C  C71  1  0.92782139  0.44169736  0.41888266  1  -0.0341  0  -0.162417  -0.256801  0  3.855727  0
C  C72  1  0.92728798  0.60140202  0.49199505  1  -0.047464  0  -0.17116  -0.263276  0  3.89515  0
C  C73  1  0.07561544  0.45857459  0.58106058  1  -0.059059  0  -0.154475  -0.167306  0  3.862019  0
C  C74  1  0.12182799  0.50059055  0.49269063  1  0.052903  0  -0.020152  -0.100102  0  3.742844  0
C  C75  1  0.88015367  0.49816441  0.49874194  1  0.065992  0  -0.017678  0.043826  0  3.808031  0
C  C76  1  0.11941418  0.50991900  0.28262773  1  0.426014  0  -0.081041  0.041743  0  3.916729  0
C  C77  1  0.13353302  0.47828752  0.18837814  1  -0.026165  0  -0.172996  -0.131825  0  3.990987  0
C  C78  1  0.12085873  0.56365543  0.12602420  1  -0.07559  0  -0.247638  -0.349568  0  3.996578  0
C  C79  1  0.15321744  0.75070509  0.43261319  1  0.46884  0  -0.074913  0.035526  0  3.953397  0
C  C80  1  0.04828643  0.82329788  0.44495810  1  -0.010953  0  -0.173043  -0.140638  0  3.980887  0
C  C81  1  0.09708562  0.92534843  0.45469449  1  -0.040895  0  -0.245858  -0.347754  0  4.004471  0
N  N82  1  0.50135125  0.74782308  0.50037350  1  -1.25095  0  -0.313024  -0.188855  0  3.502541  0
N  N83  1  0.49899816  0.25409082  0.50026766  1  -1.233246  0  -0.313093  -0.187274  0  3.509239  0
O  O84  1  0.52302728  0.42596475  0.36870424  1  -1.16984  0  -0.31897  -0.54787  0  2.316288  0
O  O85  1  0.46997333  0.58373586  0.36775784  1  -1.17091  0  -0.318512  -0.554205  0  2.324947  0
O  O86  1  0.31498537  0.41825190  0.48238626  1  -1.168401  0  -0.314986  -0.549939  0  2.3515  0
O  O87  1  0.31652092  0.57524390  0.51938072  1  -1.170545  0  -0.318612  -0.552915  0  2.362256  0
O  O88  1  0.47880367  0.42577398  0.63317718  1  -1.171658  0  -0.320848  -0.552453  0  2.317907  0
O  O89  1  0.52870777  0.58363103  0.63453758  1  -1.178375  0  -0.322749  -0.561011  0  2.319703  0
O  O90  1  0.68916349  0.41533257  0.51785659  1  -1.177343  0  -0.322451  -0.558352  0  2.322376  0
O  O91  1  0.68220498  0.57285868  0.48155450  1  -1.174068  0  -0.3181  -0.543182  0  2.351636  0
O  O92  1  0.12609415  0.42739251  0.33830821  1  -1.056358  0  -0.241852  -0.276465  0  2.450196  0
O  O93  1  0.11378055  0.65572573  0.41542465  1  -1.054291  0  -0.22738  -0.261438  0  2.506712  0
