# generated using pymatgen
data_Zn2H13C17(NO3)3
_symmetry_space_group_name_H-M   'P 1'
_cell_length_a   12.14065355
_cell_length_b   14.22211345
_cell_length_c   14.30817575
_cell_angle_alpha   105.18491463
_cell_angle_beta   89.99996162
_cell_angle_gamma   90.00004540
_symmetry_Int_Tables_number   1
_chemical_formula_structural   Zn2H13C17(NO3)3
_chemical_formula_sum   'Zn8 H52 C68 N12 O36'
_cell_volume   2384.27452339
_cell_formula_units_Z   4
loop_
 _symmetry_equiv_pos_site_id
 _symmetry_equiv_pos_as_xyz
  1  'x, y, z'
loop_
 _atom_site_type_symbol
 _atom_site_label
 _atom_site_symmetry_multiplicity
 _atom_site_fract_x
 _atom_site_fract_y
 _atom_site_fract_z
 _atom_site_occupancy
 _atom_site_pbe_bader_charge
 _atom_site_pbe_bader_spin_density
 _atom_site_pbe_cm5_charge
 _atom_site_pbe_ddec_charge
 _atom_site_pbe_ddec_spin_density
 _atom_site_pbe_ddec_sum_bond_order
 _atom_site_pbe_magmom
Zn  Zn0  1  0.01248879  0.65070522  0.33775340  1  1.327469  0  0.695064  0.893279  0  2.27797  0
Zn  Zn1  1  0.51248757  0.84929497  0.16224638  1  1.32747  0  0.695068  0.893283  0  2.277955  0
Zn  Zn2  1  0.98751181  0.34929528  0.66224625  1  1.327542  0  0.695041  0.893234  0  2.278023  0
Zn  Zn3  1  0.48751221  0.15070554  0.83775466  1  1.327475  0  0.695095  0.893339  0  2.277989  0
Zn  Zn4  1  0.23812163  0.55409879  0.19708697  1  1.358908  0  0.682131  0.899994  0  2.274968  0
Zn  Zn5  1  0.73812121  0.94590153  0.30291341  1  1.358896  0  0.682122  0.899982  0  2.274988  0
Zn  Zn6  1  0.76187815  0.44590098  0.80291388  1  1.3589  0  0.682127  0.899996  0  2.274974  0
Zn  Zn7  1  0.26187774  0.05409898  0.69708764  1  1.358915  0  0.682129  0.899997  0  2.274964  0
H  H8  1  0.68548055  0.79205651  0.54116911  1  0.113499  0  0.112828  0.122086  0  1.027397  0
H  H9  1  0.18548667  0.70793970  0.95882726  1  0.113609  0  0.112842  0.122072  0  1.0274  0
H  H10  1  0.31451511  0.20794108  0.45882838  1  0.113603  0  0.112857  0.122099  0  1.027379  0
H  H11  1  0.81451805  0.29205716  0.04117004  1  0.113495  0  0.112853  0.122074  0  1.027411  0
H  H12  1  0.68959143  0.67820733  0.65077903  1  0.117067  0  0.11981  0.126401  0  0.967007  0
H  H13  1  0.18959939  0.82178742  0.84921557  1  0.117223  0  0.119771  0.126443  0  0.967021  0
H  H14  1  0.31040258  0.32178807  0.34921650  1  0.117217  0  0.119785  0.12647  0  0.967045  0
H  H15  1  0.81040615  0.17820871  0.15078155  1  0.117068  0  0.119811  0.126418  0  0.96702  0
H  H16  1  0.93961586  0.51437644  0.46440269  1  0.151849  0  0.121792  0.096629  0  1.038033  0
H  H17  1  0.43961187  0.98562764  0.03560136  1  0.151721  0  0.121779  0.096583  0  1.038067  0
H  H18  1  0.06038803  0.48562625  0.53559963  1  0.151881  0  0.121795  0.096596  0  1.038082  0
H  H19  1  0.56038379  0.01437578  0.96440255  1  0.151797  0  0.121789  0.096619  0  1.038078  0
H  H20  1  0.92573660  0.37022881  0.98756865  1  0.093364  0  0.110378  0.123244  0  1.034213  0
H  H21  1  0.42573724  0.12977052  0.51243191  1  0.093377  0  0.110383  0.12326  0  1.034183  0
H  H22  1  0.07426318  0.62976951  0.01243183  1  0.093361  0  0.110375  0.123235  0  1.034218  0
H  H23  1  0.57426254  0.87022998  0.48756914  1  0.093364  0  0.110374  0.123249  0  1.034217  0
H  H24  1  0.04510608  0.25263679  0.86682178  1  0.116984  0  0.1148  0.119073  0  1.001229  0
H  H25  1  0.54510726  0.24736159  0.63317876  1  0.11699  0  0.114818  0.119115  0  1.001201  0
H  H26  1  0.95489370  0.74736153  0.13317940  1  0.11697  0  0.114802  0.119093  0  1.001183  0
H  H27  1  0.45489334  0.75263819  0.36682280  1  0.117013  0  0.114772  0.119039  0  1.00117  0
H  H28  1  0.32804593  0.38565018  0.03015555  1  0.128005  0  0.124036  0.101124  0  1.017006  0
H  H29  1  0.82804590  0.11435026  0.46984274  1  0.127994  0  0.124037  0.101134  0  1.017015  0
H  H30  1  0.67195467  0.61435178  0.96984309  1  0.127903  0  0.12405  0.101159  0  1.017032  0
H  H31  1  0.17195388  0.88565097  0.53015710  1  0.127995  0  0.124065  0.101154  0  1.017031  0
H  H32  1  0.74968715  0.55437951  0.23137794  1  0.126386  0  0.10748  0.14212  0  1.041629  0
H  H33  1  0.24968706  0.94562081  0.26862244  1  0.126382  0  0.107504  0.142145  0  1.041633  0
H  H34  1  0.25031262  0.44562026  0.76862292  1  0.126373  0  0.107481  0.142105  0  1.041625  0
H  H35  1  0.75031272  0.05437896  0.73137842  1  0.126382  0  0.107499  0.142129  0  1.041587  0
H  H36  1  0.66042998  0.55720013  0.33082403  1  0.057214  0  0.096799  0.10794  0  0.99605  0
H  H37  1  0.16043078  0.94280014  0.16917639  1  0.057217  0  0.096812  0.107961  0  0.996053  0
H  H38  1  0.33956898  0.44279964  0.66917683  1  0.057222  0  0.096814  0.107949  0  0.996062  0
H  H39  1  0.83956982  0.05719963  0.83082377  1  0.057206  0  0.096813  0.10796  0  0.996033  0
H  H40  1  0.65974722  0.65573490  0.27420423  1  0.050667  0  0.101243  0.120985  0  1.006813  0
H  H41  1  0.15974706  0.84426538  0.22579689  1  0.050632  0  0.101248  0.121005  0  1.006798  0
H  H42  1  0.34025339  0.34426561  0.72579682  1  0.050634  0  0.101254  0.120995  0  1.006811  0
H  H43  1  0.84025272  0.15573513  0.77420416  1  0.050672  0  0.101251  0.120994  0  1.006806  0
H  H44  1  0.46128340  0.59791116  0.28374831  1  0.120021  0  0.124546  0.052167  0  1.011595  0
H  H45  1  0.96128301  0.90208929  0.21625198  1  0.120069  0  0.124551  0.052167  0  1.011597  0
H  H46  1  0.53871637  0.40208935  0.71625204  1  0.120067  0  0.124531  0.052137  0  1.011621  0
H  H47  1  0.03871594  0.09791121  0.78374837  1  0.120064  0  0.124527  0.052138  0  1.01162  0
H  H48  1  0.70435352  0.45169914  0.09769707  1  0.110775  0  0.109029  0.134001  0  1.0133  0
H  H49  1  0.20435377  0.04830123  0.40230267  1  0.110763  0  0.10903  0.133989  0  1.013318  0
H  H50  1  0.29564708  0.54830209  0.90230207  1  0.110783  0  0.10904  0.134015  0  1.013311  0
H  H51  1  0.79564518  0.95169928  0.59769768  1  0.110746  0  0.109024  0.133977  0  1.013306  0
H  H52  1  0.58604774  0.48547285  0.03963887  1  0.070913  0  0.10622  0.124464  0  1.005945  0
H  H53  1  0.08604791  0.01452745  0.46036162  1  0.070898  0  0.106224  0.124472  0  1.005922  0
H  H54  1  0.41395204  0.51452692  0.96036130  1  0.070907  0  0.106219  0.12447  0  1.005947  0
H  H55  1  0.91395187  0.98547305  0.53963873  1  0.070913  0  0.106218  0.124454  0  1.005949  0
H  H56  1  0.57690731  0.38712258  0.09447616  1  0.043453  0  0.101823  0.116206  0  0.98807  0
H  H57  1  0.07690679  0.11287845  0.40552522  1  0.043438  0  0.101831  0.116222  0  0.988073  0
H  H58  1  0.42309412  0.61287793  0.90552489  1  0.043435  0  0.10183  0.116209  0  0.988117  0
H  H59  1  0.92309216  0.88712206  0.59447513  1  0.043463  0  0.101821  0.116198  0  0.988036  0
C  C60  1  0.81452467  0.71449116  0.44988334  1  0.461516  0  0.116738  0.100951  0  3.960405  0
C  C61  1  0.31452625  0.78550702  0.05011504  1  0.461713  0  0.116679  0.100954  0  3.960461  0
C  C62  1  0.18547510  0.28550789  0.55011593  1  0.461522  0  0.116692  0.100925  0  3.960457  0
C  C63  1  0.68547436  0.21449203  0.94988493  1  0.461717  0  0.116682  0.100893  0  3.960478  0
C  C64  1  0.74068678  0.72969045  0.52712876  1  0.013083  0  -0.071704  -0.132347  0  3.938232  0
C  C65  1  0.24069130  0.77030578  0.97286829  1  0.012958  0  -0.071642  -0.132175  0  3.938242  0
C  C66  1  0.25931053  0.27030641  0.47286855  1  0.012932  0  -0.071655  -0.132183  0  3.938222  0
C  C67  1  0.75931260  0.22969108  0.02713041  1  0.013101  0  -0.071673  -0.132169  0  3.938237  0
C  C68  1  0.74258778  0.66668172  0.58724826  1  -0.019139  0  -0.051838  -0.032222  0  3.907431  0
C  C69  1  0.24259405  0.83331452  0.91274809  1  -0.019267  0  -0.051826  -0.032389  0  3.907682  0
C  C70  1  0.25740788  0.33331441  0.41274816  1  -0.019271  0  -0.051841  -0.032405  0  3.907569  0
C  C71  1  0.75740984  0.16668234  0.08724991  1  -0.019156  0  -0.051825  -0.032332  0  3.907612  0
C  C72  1  0.81505502  0.58748025  0.56619441  1  -0.013634  0  -0.006929  -0.06872  0  3.927807  0
C  C73  1  0.31505723  0.91251822  0.93380458  1  -0.013677  0  -0.006891  -0.068688  0  3.92793  0
C  C74  1  0.18494311  0.41251807  0.43380398  1  -0.013658  0  -0.006923  -0.068739  0  3.927918  0
C  C75  1  0.68494337  0.08748083  0.06619469  1  -0.013654  0  -0.0069  -0.068679  0  3.927972  0
C  C76  1  0.88312222  0.57533337  0.48520587  1  0.486279  0  0.061812  0.098969  0  3.894976  0
C  C77  1  0.38312065  0.92466849  0.01479623  1  0.486507  0  0.06181  0.099061  0  3.894899  0
C  C78  1  0.11687920  0.42466786  0.51479537  1  0.486348  0  0.061821  0.099087  0  3.894957  0
C  C79  1  0.61687748  0.07533274  0.98520571  1  0.486339  0  0.061766  0.098917  0  3.894996  0
C  C80  1  0.82832855  0.51962068  0.63121630  1  1.600589  0  0.211555  0.59467  0  4.206294  0
C  C81  1  0.32833005  0.98037852  0.86878357  1  1.600586  0  0.211554  0.594636  0  4.206284  0
C  C82  1  0.17167041  0.48037764  0.36878278  1  1.60059  0  0.211537  0.594595  0  4.206423  0
C  C83  1  0.67166973  0.01962053  0.13121640  1  1.600609  0  0.211589  0.594713  0  4.20629  0
C  C84  1  0.82289743  0.77970411  0.38145676  1  1.605641  0  0.213903  0.543684  0  4.219566  0
C  C85  1  0.32289806  0.72029552  0.11854340  1  1.605646  0  0.213889  0.543667  0  4.219573  0
C  C86  1  0.17710235  0.22029639  0.61854359  1  1.605643  0  0.21391  0.54364  0  4.219557  0
C  C87  1  0.67710254  0.27970425  0.88145816  1  1.605641  0  0.213869  0.543604  0  4.219646  0
C  C88  1  0.06555595  0.43609662  0.07288704  1  0.497538  0  0.117687  0.10917  0  3.948596  0
C  C89  1  0.56555591  0.06390221  0.42711168  1  0.497524  0  0.117705  0.109228  0  3.948521  0
C  C90  1  0.93444547  0.56390242  0.92711154  1  0.497506  0  0.117662  0.109133  0  3.948594  0
C  C91  1  0.43444552  0.93609902  0.57288885  1  0.497518  0  0.117681  0.10922  0  3.948582  0
C  C92  1  0.01477411  0.36912592  0.99615783  1  0.010354  0  -0.07703  -0.138638  0  3.944871  0
C  C93  1  0.51477528  0.13087390  0.50384240  1  0.010383  0  -0.077041  -0.13868  0  3.944875  0
C  C94  1  0.98522567  0.63087312  0.00384284  1  0.010369  0  -0.077051  -0.138648  0  3.944868  0
C  C95  1  0.48522614  0.86912733  0.49615814  1  0.010351  0  -0.077039  -0.138674  0  3.94497  0
C  C96  1  0.08046579  0.30437068  0.92950151  1  0.032207  0  -0.053646  -0.022984  0  3.898235  0
C  C97  1  0.58046615  0.19562918  0.57049869  1  0.032202  0  -0.053637  -0.022984  0  3.898216  0
C  C98  1  0.91953481  0.69562910  0.07049935  1  0.032201  0  -0.053586  -0.022877  0  3.898134  0
C  C99  1  0.41953445  0.80437205  0.42950255  1  0.032222  0  -0.053604  -0.022904  0  3.898186  0
C  C100  1  0.19469357  0.30718403  0.94205965  1  0.027242  0  -0.002962  -0.064616  0  3.925971  0
C  C101  1  0.69469394  0.19281589  0.55793981  1  0.027248  0  -0.002964  -0.064565  0  3.925955  0
C  C102  1  0.80530703  0.69281647  0.05794000  1  0.027259  0  -0.003011  -0.064723  0  3.926074  0
C  C103  1  0.30530584  0.80718462  0.44206054  1  0.027265  0  -0.002934  -0.06461  0  3.926027  0
C  C104  1  0.23938843  0.37895872  0.01874214  1  0.479342  0  0.06668  0.098945  0  3.873154  0
C  C105  1  0.73938922  0.12104166  0.48125759  1  0.478868  0  0.066649  0.098856  0  3.873201  0
C  C106  1  0.76061217  0.62104251  0.98125700  1  0.479447  0  0.06669  0.098925  0  3.873245  0
C  C107  1  0.26061138  0.87895957  0.51874365  1  0.478882  0  0.066617  0.098878  0  3.87331  0
C  C108  1  0.26824233  0.23467913  0.87561596  1  1.601205  0  0.22141  0.597815  0  4.187832  0
C  C109  1  0.76824270  0.26532084  0.62438417  1  1.601247  0  0.221346  0.597659  0  4.187857  0
C  C110  1  0.73175745  0.76532138  0.12438439  1  1.601221  0  0.221343  0.597673  0  4.187881  0
C  C111  1  0.23175872  0.73467894  0.37561669  1  1.601268  0  0.221375  0.597769  0  4.187954  0
C  C112  1  0.99883932  0.50428540  0.15111401  1  1.601226  0  0.211111  0.543741  0  4.226114  0
C  C113  1  0.49884085  0.99571506  0.34888487  1  1.60117  0  0.21108  0.543618  0  4.226221  0
C  C114  1  0.00116046  0.49571510  0.84888494  1  1.601224  0  0.211107  0.543768  0  4.22621  0
C  C115  1  0.50116057  0.00428617  0.65111567  1  1.601169  0  0.211116  0.543734  0  4.226167  0
C  C116  1  0.66794197  0.57650436  0.26153945  1  0.230321  0  -0.140838  -0.293035  0  3.89666  0
C  C117  1  0.16794187  0.92349592  0.23846097  1  0.230375  0  -0.140861  -0.293095  0  3.896672  0
C  C118  1  0.33205781  0.42349615  0.73846090  1  0.230378  0  -0.140843  -0.293014  0  3.896654  0
C  C119  1  0.83205791  0.07650385  0.76153989  1  0.230322  0  -0.140852  -0.293055  0  3.896603  0
C  C120  1  0.47804610  0.54533294  0.21370861  1  1.373367  0  0.178991  0.313138  0  4.066699  0
C  C121  1  0.97804652  0.95466824  0.28629047  1  1.373322  0  0.178954  0.313124  0  4.066745  0
C  C122  1  0.52195368  0.45466829  0.78629053  1  1.373316  0  0.178969  0.313125  0  4.066765  0
C  C123  1  0.02195325  0.04533226  0.71370919  1  1.373326  0  0.178969  0.313105  0  4.066792  0
C  C124  1  0.61466313  0.45881380  0.10088394  1  0.24907  0  -0.133952  -0.271254  0  3.873671  0
C  C125  1  0.11466338  0.04118652  0.39911653  1  0.249081  0  -0.133978  -0.271276  0  3.873684  0
C  C126  1  0.38533747  0.54118671  0.89911571  1  0.249077  0  -0.133955  -0.271266  0  3.87375  0
C  C127  1  0.88533558  0.95881398  0.60088381  1  0.249086  0  -0.133932  -0.2712  0  3.873631  0
N  N128  1  0.88543763  0.63884441  0.43083529  1  -1.246125  0  -0.321398  -0.25891  0  3.577661  0
N  N129  1  0.38543596  0.86115673  0.06916662  1  -1.246267  0  -0.321364  -0.258957  0  3.577575  0
N  N130  1  0.11456379  0.36115683  0.56916595  1  -1.246122  0  -0.3214  -0.258989  0  3.57765  0
N  N131  1  0.61456217  0.13884451  0.93083532  1  -1.24626  0  -0.321373  -0.25887  0  3.577578  0
N  N132  1  0.17601953  0.44219707  0.08187482  1  -1.275628  0  -0.311976  -0.236107  0  3.523725  0
N  N133  1  0.67601948  0.05780328  0.41812423  1  -1.275164  0  -0.311977  -0.236087  0  3.523692  0
N  N134  1  0.82398025  0.55780343  0.91812483  1  -1.275607  0  -0.311974  -0.236094  0  3.523728  0
N  N135  1  0.32398029  0.94219795  0.58187631  1  -1.275186  0  -0.311955  -0.236109  0  3.523694  0
N  N136  1  0.58379740  0.52633245  0.19299275  1  -1.19349  0  -0.275251  0.039734  0  3.68451  0
N  N137  1  0.08379730  0.97366851  0.30700789  1  -1.193497  0  -0.275217  0.039764  0  3.684572  0
N  N138  1  0.41620320  0.47366805  0.80700760  1  -1.193503  0  -0.27526  0.039717  0  3.684519  0
N  N139  1  0.91620248  0.02633200  0.69299246  1  -1.193473  0  -0.275253  0.039753  0  3.684568  0
O  O140  1  0.90254884  0.76293015  0.32207586  1  -1.162499  0  -0.30063  -0.520457  0  2.290754  0
O  O141  1  0.40254862  0.73706953  0.17792427  1  -1.162511  0  -0.300625  -0.520435  0  2.290739  0
O  O142  1  0.09745094  0.23707035  0.67792449  1  -1.162511  0  -0.300624  -0.520409  0  2.290723  0
O  O143  1  0.59745116  0.26293097  0.82207678  1  -1.162471  0  -0.300611  -0.520403  0  2.29074  0
O  O144  1  0.74843935  0.84402011  0.38919904  1  -1.159015  0  -0.305104  -0.530998  0  2.293113  0
O  O145  1  0.24843993  0.65597875  0.11080026  1  -1.159015  0  -0.305101  -0.531027  0  2.293149  0
O  O146  1  0.25156042  0.15597966  0.61080112  1  -1.159005  0  -0.305099  -0.530979  0  2.293116  0
O  O147  1  0.75155984  0.34402175  0.88920079  1  -1.159039  0  -0.305099  -0.531003  0  2.293172  0
O  O148  1  0.77147903  0.53910728  0.70809071  1  -1.160658  0  -0.31563  -0.549912  0  2.280295  0
O  O149  1  0.27148140  0.96089116  0.79190830  1  -1.160637  0  -0.315637  -0.549895  0  2.280269  0
O  O150  1  0.22851827  0.46089030  0.29190679  1  -1.160677  0  -0.315621  -0.549854  0  2.280352  0
O  O151  1  0.72852002  0.03910716  0.20809078  1  -1.160648  0  -0.315642  -0.549921  0  2.280266  0
O  O152  1  0.89811225  0.45142495  0.60266794  1  -1.180516  0  -0.319609  -0.574849  0  2.324781  0
O  O153  1  0.39811168  0.04857582  0.89733232  1  -1.180532  0  -0.319618  -0.57486  0  2.324843  0
O  O154  1  0.10188835  0.54857556  0.39733171  1  -1.180502  0  -0.319607  -0.574822  0  2.324786  0
O  O155  1  0.60188810  0.95142395  0.10266784  1  -1.180548  0  -0.319631  -0.574873  0  2.324818  0
O  O156  1  0.05579290  0.57606753  0.20526736  1  -1.169479  0  -0.316119  -0.564669  0  2.494032  0
O  O157  1  0.55579411  0.92393268  0.29473100  1  -1.169529  0  -0.316155  -0.564675  0  2.494076  0
O  O158  1  0.94420605  0.42393297  0.79473159  1  -1.169559  0  -0.316139  -0.564686  0  2.494075  0
O  O159  1  0.44420731  0.07606855  0.70526953  1  -1.169536  0  -0.316155  -0.564722  0  2.494066  0
O  O160  1  0.89951269  0.48838990  0.15999026  1  -1.161922  0  -0.305771  -0.516029  0  2.136217  0
O  O161  1  0.39951296  0.01160984  0.34000711  1  -1.161901  0  -0.305724  -0.515954  0  2.1362  0
O  O162  1  0.10048544  0.51161060  0.84000660  1  -1.161928  0  -0.305738  -0.516023  0  2.136262  0
O  O163  1  0.60048682  0.98839139  0.65999203  1  -1.161917  0  -0.305774  -0.516032  0  2.136217  0
O  O164  1  0.22114600  0.16221598  0.81989940  1  -1.174984  0  -0.301199  -0.541265  0  2.401863  0
O  O165  1  0.72114640  0.33778395  0.68010074  1  -1.175014  0  -0.301202  -0.541236  0  2.401833  0
O  O166  1  0.77885377  0.83778452  0.18010095  1  -1.174994  0  -0.301217  -0.541243  0  2.401812  0
O  O167  1  0.27885420  0.66221509  0.31990132  1  -1.175055  0  -0.301206  -0.541283  0  2.401877  0
O  O168  1  0.37151848  0.25284668  0.88234428  1  -1.173051  0  -0.319687  -0.545735  0  2.314611  0
O  O169  1  0.87151885  0.24715407  0.61765459  1  -1.173057  0  -0.31963  -0.545615  0  2.314604  0
O  O170  1  0.62848129  0.74715382  0.11765467  1  -1.173054  0  -0.31962  -0.54561  0  2.314623  0
O  O171  1  0.12848175  0.75284644  0.38234506  1  -1.173034  0  -0.319671  -0.545696  0  2.314644  0
O  O172  1  0.40055604  0.50661556  0.15844767  1  -1.16542  0  -0.296591  -0.457799  0  2.379867  0
O  O173  1  0.90055563  0.99338558  0.34155144  1  -1.165416  0  -0.296602  -0.457826  0  2.379836  0
O  O174  1  0.59944456  0.49338494  0.84155128  1  -1.165416  0  -0.296568  -0.457764  0  2.379898  0
O  O175  1  0.09944332  0.00661493  0.65844751  1  -1.165436  0  -0.296572  -0.457779  0  2.379861  0
