# generated using pymatgen
data_Er2H8C10S(N2O7)2
_symmetry_space_group_name_H-M   'P 1'
_cell_length_a   6.59133380
_cell_length_b   10.97039088
_cell_length_c   12.99433656
_cell_angle_alpha   105.72971367
_cell_angle_beta   90.00431307
_cell_angle_gamma   107.48020729
_symmetry_Int_Tables_number   1
_chemical_formula_structural   Er2H8C10S(N2O7)2
_chemical_formula_sum   'Er4 H16 C20 S2 N8 O28'
_cell_volume   859.25474490
_cell_formula_units_Z   2
loop_
 _symmetry_equiv_pos_site_id
 _symmetry_equiv_pos_as_xyz
  1  'x, y, z'
loop_
 _atom_site_type_symbol
 _atom_site_label
 _atom_site_symmetry_multiplicity
 _atom_site_fract_x
 _atom_site_fract_y
 _atom_site_fract_z
 _atom_site_occupancy
 _atom_site_hle17_bader_spin_density
 _atom_site_hle17_ddec_charge
 _atom_site_hle17_ddec_spin_density
 _atom_site_hle17_ddec_sum_bond_order
 _atom_site_hle17_magmom
 _atom_site_hse06_10hf_bader_spin_density
 _atom_site_hse06_10hf_ddec_charge
 _atom_site_hse06_10hf_ddec_spin_density
 _atom_site_hse06_10hf_ddec_sum_bond_order
 _atom_site_hse06_10hf_magmom
 _atom_site_hse06_bader_spin_density
 _atom_site_hse06_ddec_charge
 _atom_site_hse06_ddec_spin_density
 _atom_site_hse06_ddec_sum_bond_order
 _atom_site_hse06_magmom
 _atom_site_pbe_bader_spin_density
 _atom_site_pbe_cm5_charge
 _atom_site_pbe_ddec_charge
 _atom_site_pbe_ddec_spin_density
 _atom_site_pbe_ddec_sum_bond_order
 _atom_site_pbe_magmom
Er  Er0  1  0.77965024  0.70592688  0.71391512  1  0  2.245976  0  1.669247  0  0  2.098984  0  2.149372  0  0  2.227852  0  1.952501  0  0  1.542466  2.064031  0  2.17931  0
Er  Er1  1  0.07383530  0.29416006  0.78611452  1  0  2.245186  0  1.670583  0  0  2.097713  0  2.151483  0  0  2.226851  0  1.954092  0  0  1.542506  2.06298  0  2.181319  0
Er  Er2  1  0.22034863  0.29407346  0.28608579  1  0  2.245978  0  1.669283  0  0  2.099045  0  2.149305  0  0  2.227852  0  1.952537  0  0  1.542461  2.064043  0  2.17931  0
Er  Er3  1  0.92617116  0.70584027  0.21388408  1  0  2.245146  0  1.670626  0  0  2.097641  0  2.151568  0  0  2.226815  0  1.954134  0  0  1.542511  2.062922  0  2.181387  0
H  H4  1  0.36818375  0.88707426  0.86301312  1  0  0.112886  0  0.919332  0  0  0.123684  0  0.976311  0  0  0.126689  0  0.972639  0  0  0.145998  0.1216  0  0.978557  0
H  H5  1  0.48106684  0.11282031  0.63696784  1  0  0.112369  0  0.920092  0  0  0.123191  0  0.977016  0  0  0.126161  0  0.973385  0  0  0.145707  0.121166  0  0.979228  0
H  H6  1  0.63182119  0.11292608  0.13698625  1  0  0.112816  0  0.919285  0  0  0.123661  0  0.976216  0  0  0.126661  0  0.972548  0  0  0.145984  0.121575  0  0.978466  0
H  H7  1  0.51892746  0.88718302  0.36303144  1  0  0.112372  0  0.920043  0  0  0.123208  0  0.976947  0  0  0.126178  0  0.973314  0  0  0.1457  0.121176  0  0.97916  0
H  H8  1  0.25001058  0.84892868  0.04326813  1  0  0.336122  0  0.867788  0  0  0.318562  0  0.923694  0  0  0.326662  0  0.917333  0  0  0.33478  0.312834  0  0.928281  0
H  H9  1  0.40103265  0.15091178  0.45669637  1  0  0.336779  0  0.866849  0  0  0.319071  0  0.922985  0  0  0.327142  0  0.916613  0  0  0.334732  0.313416  0  0.927517  0
H  H10  1  0.74999482  0.15107863  0.95673129  1  0  0.336133  0  0.86799  0  0  0.318554  0  0.923915  0  0  0.326656  0  0.917554  0  0  0.334813  0.312825  0  0.928502  0
H  H11  1  0.59896117  0.84908756  0.54330200  1  0  0.336717  0  0.866827  0  0  0.319006  0  0.923002  0  0  0.327072  0  0.916632  0  0  0.334672  0.313351  0  0.927536  0
H  H12  1  0.48379271  0.43519144  0.64596004  1  0  0.448575  0  0.846878  0  0  0.417696  0  0.909619  0  0  0.429917  0  0.89206  0  0  0.30653  0.409172  0  0.922052  0
H  H13  1  0.04872655  0.56487552  0.85403124  1  0  0.449852  0  0.845051  0  0  0.418844  0  0.907977  0  0  0.431081  0  0.89041  0  0  0.306964  0.410237  0  0.920536  0
H  H14  1  0.51620565  0.56481089  0.35404132  1  0  0.448604  0  0.846855  0  0  0.417714  0  0.909618  0  0  0.429935  0  0.892058  0  0  0.306526  0.409189  0  0.922049  0
H  H15  1  0.95129152  0.43512681  0.14597320  1  0  0.449992  0  0.844843  0  0  0.418998  0  0.907749  0  0  0.431226  0  0.890191  0  0  0.307022  0.410395  0  0.920306  0
H  H16  1  0.62730730  0.44013344  0.74079882  1  0  0.441028  0  0.844548  0  0  0.409577  0  0.916453  0  0  0.420772  0  0.900234  0  0  0.311186  0.401634  0  0.928247  0
H  H17  1  0.18736152  0.55983701  0.75921345  1  0  0.441306  0  0.844667  0  0  0.409835  0  0.916269  0  0  0.421018  0  0.900069  0  0  0.311636  0.401965  0  0.927928  0
H  H18  1  0.37267944  0.55986690  0.25920516  1  0  0.441051  0  0.844542  0  0  0.409569  0  0.916485  0  0  0.420759  0  0.90027  0  0  0.311187  0.40162  0  0.928289  0
H  H19  1  0.81265098  0.44016632  0.24078891  1  0  0.441314  0  0.844721  0  0  0.409855  0  0.916247  0  0  0.42104  0  0.900044  0  0  0.311618  0.401988  0  0.927901  0
C  C20  1  0.63587373  0.73894172  0.96537581  1  0  0.002264  0  3.761211  0  0  -0.003961  0  4.021845  0  0  -0.006374  0  4.044351  0  0  0.090754  -0.002871  0  4.009866  0
C  C21  1  0.89684361  0.26100066  0.53466289  1  0  0.001124  0  3.765088  0  0  -0.003837  0  4.024295  0  0  -0.006167  0  4.046764  0  0  0.090874  -0.002759  0  4.01231  0
C  C22  1  0.36412469  0.26105164  0.03462273  1  0  0.002141  0  3.761442  0  0  -0.004006  0  4.022115  0  0  -0.006417  0  4.044619  0  0  0.090709  -0.002923  0  4.010141  0
C  C23  1  0.10315118  0.73900367  0.46533739  1  0  0.001128  0  3.765217  0  0  -0.003837  0  4.024419  0  0  -0.006161  0  4.046884  0  0  0.090838  -0.002756  0  4.012431  0
C  C24  1  0.80250070  0.67318605  0.95589743  1  0  0.709344  0  3.879143  0  0  0.658885  0  4.173592  0  0  0.695383  0  4.164912  0  0  0.240148  0.634429  0  4.182089  0
C  C25  1  0.12919082  0.32671327  0.54411542  1  0  0.707695  0  3.880628  0  0  0.656274  0  4.176091  0  0  0.692734  0  4.167409  0  0  0.238776  0.631816  0  4.184596  0
C  C26  1  0.19749270  0.32680332  0.04410020  1  0  0.709483  0  3.878944  0  0  0.658827  0  4.173675  0  0  0.69533  0  4.16499  0  0  0.240125  0.634379  0  4.182176  0
C  C27  1  0.87080099  0.67328507  0.45588273  1  0  0.707693  0  3.880812  0  0  0.656277  0  4.176235  0  0  0.692738  0  4.167556  0  0  0.238801  0.631825  0  4.184734  0
C  C28  1  0.43948283  0.83897188  0.90917057  1  0  0.288628  0  3.596383  0  0  0.224302  0  3.884361  0  0  0.239963  0  3.893911  0  0  0.170627  0.214481  0  3.878533  0
C  C29  1  0.60044486  0.16095801  0.59083054  1  0  0.290605  0  3.597367  0  0  0.226203  0  3.885082  0  0  0.241884  0  3.894605  0  0  0.172168  0.216278  0  3.879596  0
C  C30  1  0.56051960  0.16102646  0.09082834  1  0  0.288726  0  3.596204  0  0  0.22438  0  3.884184  0  0  0.240038  0  3.893739  0  0  0.170657  0.214557  0  3.878357  0
C  C31  1  0.39954842  0.83904632  0.40917051  1  0  0.290389  0  3.597367  0  0  0.226029  0  3.885052  0  0  0.241713  0  3.894573  0  0  0.172081  0.216114  0  3.879555  0
C  C32  1  0.42925374  0.69807846  0.13210528  1  0  0.72445  0  3.876019  0  0  0.67791  0  4.165752  0  0  0.715485  0  4.154544  0  0  0.247677  0.653328  0  4.174073  0
C  C33  1  0.73115900  0.30176945  0.36785981  1  0  0.724581  0  3.87723  0  0  0.678063  0  4.166846  0  0  0.715679  0  4.155604  0  0  0.246969  0.653409  0  4.175182  0
C  C34  1  0.57074665  0.30192188  0.86789562  1  0  0.724416  0  3.8761  0  0  0.677882  0  4.165854  0  0  0.715456  0  4.154653  0  0  0.247667  0.653296  0  4.174185  0
C  C35  1  0.26883582  0.69823188  0.63213825  1  0  0.72447  0  3.877484  0  0  0.678036  0  4.166953  0  0  0.715652  0  4.155706  0  0  0.246926  0.65338  0  4.175299  0
C  C36  1  0.48861564  0.75434747  0.04081690  1  0  0.023454  0  3.629722  0  0  0.00818  0  3.885067  0  0  0.007686  0  3.900005  0  0  0.104672  0.008663  0  3.874075  0
C  C37  1  0.73422114  0.24553614  0.45917293  1  0  0.023687  0  3.632439  0  0  0.008058  0  3.887069  0  0  0.007435  0  3.90212  0  0  0.104941  0.008702  0  3.875819  0
C  C38  1  0.51138477  0.24564988  0.95918256  1  0  0.023527  0  3.629732  0  0  0.008207  0  3.885126  0  0  0.0077  0  3.900078  0  0  0.104662  0.008694  0  3.874132  0
C  C39  1  0.26577012  0.75446719  0.54082712  1  0  0.023695  0  3.632364  0  0  0.008028  0  3.887042  0  0  0.007405  0  3.902092  0  0  0.104919  0.008672  0  3.875795  0
S  S40  1  0.97608900  0.00006949  0.75002809  1  0  1.546856  0  5.946804  0  0  1.436201  0  6.486848  0  0  1.488127  0  6.472474  0  0  0.520518  1.398022  0  6.511393  0
S  S41  1  0.02392251  0.99993185  0.24997151  1  0  1.547058  0  5.946293  0  0  1.436428  0  6.486329  0  0  1.488352  0  6.471955  0  0  0.520622  1.398254  0  6.510867  0
N  N42  1  0.60083175  0.79003624  0.88331333  1  0  -0.488571  0  3.166114  0  0  -0.447214  0  3.454934  0  0  -0.472691  0  3.470929  0  0  -0.383792  -0.43682  0  3.444868  0
N  N43  1  0.81072448  0.20993242  0.61673140  1  0  -0.489143  0  3.168388  0  0  -0.448061  0  3.456797  0  0  -0.473604  0  3.472788  0  0  -0.384682  -0.43772  0  3.447061  0
N  N44  1  0.39916766  0.20995911  0.11668567  1  0  -0.488538  0  3.166095  0  0  -0.447196  0  3.454915  0  0  -0.47266  0  3.470907  0  0  -0.383798  -0.436798  0  3.44485  0
N  N45  1  0.18926930  0.79007290  0.38326988  1  0  -0.489068  0  3.168387  0  0  -0.447977  0  3.456776  0  0  -0.473527  0  3.472769  0  0  -0.384669  -0.437641  0  3.447037  0
N  N46  1  0.36807617  0.81850134  0.00274092  1  0  -0.277454  0  3.382305  0  0  -0.21614  0  3.619263  0  0  -0.230515  0  3.630184  0  0  -0.354098  -0.206087  0  3.610567  0
N  N47  1  0.54952378  0.18140112  0.49724512  1  0  -0.278316  0  3.384136  0  0  -0.216703  0  3.620674  0  0  -0.231  0  3.63163  0  0  -0.354537  -0.206793  0  3.612003  0
N  N48  1  0.63192474  0.18149700  0.99725722  1  0  -0.277464  0  3.382488  0  0  -0.21613  0  3.619446  0  0  -0.230503  0  3.630373  0  0  -0.35408  -0.206077  0  3.610748  0
N  N49  1  0.45046950  0.81860320  0.50275593  1  0  -0.278043  0  3.383896  0  0  -0.216499  0  3.620506  0  0  -0.230793  0  3.63147  0  0  -0.35436  -0.206588  0  3.611831  0
O  O50  1  0.87958464  0.65378666  0.86408877  1  0  -0.722905  0  2.084512  0  0  -0.659173  0  2.32845  0  0  -0.695599  0  2.313696  0  0  -0.377803  -0.640366  0  2.3359  0
O  O51  1  0.22567732  0.34626764  0.63595202  1  0  -0.721474  0  2.084071  0  0  -0.657413  0  2.328191  0  0  -0.693831  0  2.313514  0  0  -0.377614  -0.638766  0  2.335625  0
O  O52  1  0.12041227  0.34620670  0.13590977  1  0  -0.723046  0  2.084452  0  0  -0.659218  0  2.328433  0  0  -0.695641  0  2.313687  0  0  -0.377791  -0.640381  0  2.335829  0
O  O53  1  0.77432006  0.65372971  0.36404435  1  0  -0.721466  0  2.084136  0  0  -0.657435  0  2.328302  0  0  -0.693854  0  2.313626  0  0  -0.377638  -0.638793  0  2.335731  0
O  O54  1  0.05715964  0.91519135  0.80034453  1  0  -0.763671  0  1.950887  0  0  -0.720766  0  2.207113  0  0  -0.750651  0  2.192141  0  0  -0.394702  -0.705671  0  2.217334  0
O  O55  1  0.14211070  0.08491054  0.69972768  1  0  -0.764132  0  1.952144  0  0  -0.72152  0  2.208782  0  0  -0.751391  0  2.193767  0  0  -0.394901  -0.706404  0  2.21896  0
O  O56  1  0.94284478  0.08481098  0.19965606  1  0  -0.763699  0  1.950793  0  0  -0.720834  0  2.207038  0  0  -0.750704  0  2.192066  0  0  -0.394748  -0.705738  0  2.21726  0
O  O57  1  0.85789933  0.91508481  0.30026978  1  0  -0.764189  0  1.952004  0  0  -0.721554  0  2.208601  0  0  -0.751448  0  2.193625  0  0  -0.394895  -0.706441  0  2.218778  0
O  O58  1  0.79815860  0.90409898  0.66900419  1  0  -0.804265  0  2.016722  0  0  -0.754435  0  2.277421  0  0  -0.785086  0  2.261862  0  0  -0.414041  -0.739195  0  2.288518  0
O  O59  1  0.89420112  0.09609408  0.83103714  1  0  -0.804856  0  2.016824  0  0  -0.754618  0  2.27731  0  0  -0.785322  0  2.261775  0  0  -0.41469  -0.739384  0  2.288335  0
O  O60  1  0.20185137  0.09590534  0.33099994  1  0  -0.804306  0  2.016659  0  0  -0.754485  0  2.277345  0  0  -0.785132  0  2.261789  0  0  -0.414056  -0.739238  0  2.288436  0
O  O61  1  0.10582201  0.90390925  0.16896215  1  0  -0.804901  0  2.016612  0  0  -0.754701  0  2.277134  0  0  -0.7854  0  2.261596  0  0  -0.41473  -0.739473  0  2.288164  0
O  O62  1  0.86629288  0.63930576  0.03176667  1  0  -0.685651  0  2.059649  0  0  -0.639576  0  2.316541  0  0  -0.674144  0  2.299954  0  0  -0.389558  -0.623276  0  2.324298  0
O  O63  1  0.22686310  0.36045664  0.46820607  1  0  -0.684611  0  2.060858  0  0  -0.638338  0  2.318005  0  0  -0.672926  0  2.301554  0  0  -0.388684  -0.6219  0  2.325625  0
O  O64  1  0.13369494  0.36068461  0.96823273  1  0  -0.685686  0  2.059534  0  0  -0.639565  0  2.316532  0  0  -0.674134  0  2.299952  0  0  -0.389547  -0.623269  0  2.324289  0
O  O65  1  0.77312624  0.63953373  0.53178871  1  0  -0.684624  0  2.060872  0  0  -0.638317  0  2.318  0  0  -0.672915  0  2.301554  0  0  -0.388665  -0.62189  0  2.325618  0
O  O66  1  0.24100113  0.68224754  0.15938742  1  0  -0.726648  0  2.09236  0  0  -0.676163  0  2.355772  0  0  -0.712994  0  2.337971  0  0  -0.401688  -0.658474  0  2.363524  0
O  O67  1  0.55876983  0.31761239  0.34051663  1  0  -0.727544  0  2.092861  0  0  -0.677005  0  2.355827  0  0  -0.713788  0  2.337971  0  0  -0.402142  -0.659329  0  2.363573  0
O  O68  1  0.75899928  0.31774981  0.84061434  1  0  -0.72667  0  2.092445  0  0  -0.676187  0  2.355867  0  0  -0.713016  0  2.338073  0  0  -0.401644  -0.658488  0  2.363609  0
O  O69  1  0.44122447  0.68239094  0.65948188  1  0  -0.727517  0  2.092938  0  0  -0.677003  0  2.355881  0  0  -0.713794  0  2.338022  0  0  -0.402103  -0.659334  0  2.36363  0
O  O70  1  0.56444556  0.66310306  0.17759501  1  0  -0.730873  0  2.077597  0  0  -0.675519  0  2.330253  0  0  -0.712863  0  2.314534  0  0  -0.383632  -0.657148  0  2.337301  0
O  O71  1  0.90137237  0.33673498  0.32242441  1  0  -0.73077  0  2.078702  0  0  -0.675598  0  2.331287  0  0  -0.712897  0  2.315526  0  0  -0.382915  -0.657226  0  2.338373  0
O  O72  1  0.43555886  0.33689927  0.82240559  1  0  -0.730842  0  2.077627  0  0  -0.6755  0  2.330268  0  0  -0.712842  0  2.314556  0  0  -0.383632  -0.657136  0  2.337332  0
O  O73  1  0.09862148  0.66326137  0.67757251  1  0  -0.730762  0  2.078795  0  0  -0.675576  0  2.331306  0  0  -0.712906  0  2.315605  0  0  -0.382894  -0.657203  0  2.338395  0
O  O74  1  0.63287515  0.48035278  0.68117551  1  0  -0.905202  0  1.867331  0  0  -0.862019  0  2.079469  0  0  -0.892688  0  2.038949  0  0  -0.655122  -0.848388  0  2.102925  0
O  O75  1  0.15265796  0.51968952  0.81886187  1  0  -0.906675  0  1.866847  0  0  -0.863159  0  2.078713  0  0  -0.893931  0  2.038129  0  0  -0.656071  -0.849559  0  2.102147  0
O  O76  1  0.36711458  0.51965354  0.31883216  1  0  -0.905243  0  1.867238  0  0  -0.862032  0  2.079316  0  0  -0.89271  0  2.038842  0  0  -0.655083  -0.8484  0  2.10277  0
O  O77  1  0.84735960  0.48031481  0.18114148  1  0  -0.90679  0  1.866777  0  0  -0.863306  0  2.078617  0  0  -0.894076  0  2.038042  0  0  -0.656127  -0.849717  0  2.102041  0
