# generated using pymatgen
data_Zn3H12C26(IO6)2
_symmetry_space_group_name_H-M   'P 1'
_cell_length_a   18.51377411
_cell_length_b   18.53424899
_cell_length_c   20.71907560
_cell_angle_alpha   63.40527812
_cell_angle_beta   63.43884115
_cell_angle_gamma   89.97753087
_symmetry_Int_Tables_number   1
_chemical_formula_structural   Zn3H12C26(IO6)2
_chemical_formula_sum   'Zn6 H24 C52 I4 O24'
_cell_volume   5506.07831278
_cell_formula_units_Z   2
loop_
 _symmetry_equiv_pos_site_id
 _symmetry_equiv_pos_as_xyz
  1  'x, y, z'
loop_
 _atom_site_type_symbol
 _atom_site_label
 _atom_site_symmetry_multiplicity
 _atom_site_fract_x
 _atom_site_fract_y
 _atom_site_fract_z
 _atom_site_occupancy
 _atom_site_pbe_bader_charge
 _atom_site_pbe_bader_spin_density
 _atom_site_pbe_cm5_charge
 _atom_site_pbe_ddec_charge
 _atom_site_pbe_ddec_spin_density
 _atom_site_pbe_ddec_sum_bond_order
 _atom_site_pbe_magmom
Zn  Zn0  1  0.42992807  0.50000642  0.99998882  1  1.306298  0  0.744262  0.981013  0  2.05662  0
Zn  Zn1  1  0.54059543  0.04061149  0.91880056  1  1.289681  0  0.749988  0.984068  0  2.054561  0
Zn  Zn2  1  0.45935087  0.95937282  0.08121328  1  1.308918  0  0.75009  0.984262  0  2.054521  0
Zn  Zn3  1  0.57012447  0.49999596  0.00000686  1  1.306032  0  0.743602  0.980633  0  2.057471  0
Zn  Zn4  1  0.99981993  0.07012896  0.99998973  1  1.307946  0  0.745842  0.981447  0  2.055735  0
Zn  Zn5  1  0.99980779  0.92987115  0.99999601  1  1.307918  0  0.745721  0.981612  0  2.056095  0
H  H6  1  0.35271179  0.40888918  0.49249128  1  0.044542  0  0.094578  0.134229  0  0.993196  0
H  H7  1  0.82930448  0.58202358  0.50752357  1  0.039382  0  0.094809  0.134203  0  0.993605  0
H  H8  1  0.81440884  0.58327177  0.59815447  1  0.061464  0  0.098053  0.13815  0  0.984477  0
H  H9  1  0.72876528  0.54022312  0.59789464  1  0.035428  0  0.095462  0.136125  0  0.992541  0
H  H10  1  0.42374093  0.40488946  0.40183374  1  0.071602  0  0.097673  0.137669  0  0.985812  0
H  H11  1  0.34251319  0.45622507  0.40211931  1  0.050831  0  0.095617  0.136625  0  0.991535  0
H  H12  1  0.84687484  0.90033971  0.50746874  1  0.048233  0  0.094475  0.13392  0  0.99386  0
H  H13  1  0.74629135  0.85784443  0.59784826  1  0.058334  0  0.095547  0.136237  0  0.992399  0
H  H14  1  0.82666416  0.80535784  0.59813102  1  0.035157  0  0.097759  0.137618  0  0.985041  0
H  H15  1  0.33860417  0.09041284  0.49251494  1  0.064115  0  0.094384  0.133954  0  0.993241  0
H  H16  1  0.32842059  0.13841802  0.40215142  1  0.069901  0  0.09546  0.136019  0  0.99249  0
H  H17  1  0.41387372  0.18263986  0.40185962  1  0.031349  0  0.098064  0.138102  0  0.984701  0
H  H18  1  0.42981449  0.23735094  0.50891938  1  0.065476  0  0.097806  0.132376  0  0.988165  0
H  H19  1  0.35813916  0.24135017  0.59916067  1  0.037455  0  0.099387  0.137489  0  0.982764  0
H  H20  1  0.35388985  0.14564596  0.59919313  1  0.05417  0  0.099622  0.13761  0  0.983509  0
H  H21  1  0.93860033  0.74428349  0.49106935  1  0.04317  0  0.097671  0.132039  0  0.988874  0
H  H22  1  0.95248855  0.74319452  0.40081192  1  0.058841  0  0.099288  0.137538  0  0.982985  0
H  H23  1  0.95775500  0.83883967  0.40080598  1  0.06374  0  0.099604  0.137556  0  0.982834  0
H  H24  1  0.06951394  0.26226167  0.49183031  1  0.070796  0  0.091953  0.135801  0  0.996623  0
H  H25  1  0.14510084  0.35426185  0.40135581  1  0.069576  0  0.095972  0.140707  0  0.987565  0
H  H26  1  0.14086057  0.25825379  0.40137061  1  0.0416  0  0.095765  0.140617  0  0.986288  0
H  H27  1  0.56139918  0.75609487  0.50818202  1  0.056244  0  0.092034  0.135689  0  0.99639  0
H  H28  1  0.54171389  0.66131753  0.59865631  1  0.063677  0  0.096152  0.141143  0  0.986427  0
H  H29  1  0.54701025  0.75727980  0.59863661  1  0.064597  0  0.095968  0.140577  0  0.986541  0
C  C30  1  0.50000959  0.63971829  0.00002277  1  1.676357  0  0.230609  0.664201  0  4.23997  0
C  C31  1  0.66306980  0.66312971  0.67370806  1  -0.116738  0  -0.018741  0.004439  0  4.066653  0
C  C32  1  0.92543036  0.77228362  0.43941151  1  -0.085613  0  -0.232061  -0.398316  0  3.970326  0
C  C33  1  0.13407635  0.28662338  0.43971293  1  -0.065462  0  -0.240515  -0.4187  0  3.991999  0
C  C34  1  0.57380809  0.72790759  0.56029944  1  -0.069159  0  -0.240854  -0.419034  0  3.991662  0
C  C35  1  0.33678318  0.33679437  0.32628513  1  -0.102716  0  -0.018546  0.004685  0  4.065788  0
C  C36  1  0.16322163  0.16304381  0.67386656  1  -0.106659  0  -0.028294  -0.016234  0  4.099877  0
C  C37  1  0.83709576  0.83695030  0.32611300  1  -0.108161  0  -0.028942  -0.017662  0  4.100073  0
C  C38  1  0.50000551  0.71743966  0.00004018  1  -0.189781  0  -0.008154  -0.091196  0  3.901404  0
C  C39  1  0.50002289  0.28253902  0.99998866  1  -0.188622  0  -0.008322  -0.091578  0  3.901758  0
C  C40  1  0.49997362  0.36027082  0.99999311  1  1.675979  0  0.230642  0.664376  0  4.239636  0
C  C41  1  0.50007096  0.78306863  0.99995810  1  0.027498  0  -0.011434  -0.099631  0  3.907284  0
C  C42  1  0.49996057  0.21692462  0.00004863  1  0.025241  0  -0.011332  -0.099314  0  3.907275  0
C  C43  1  0.86015125  0.99998314  0.00000591  1  1.677455  0  0.231889  0.664253  0  4.23813  0
C  C44  1  0.08057164  0.08028673  0.83920069  1  1.597426  0  0.225154  0.676168  0  4.223342  0
C  C45  1  0.91972879  0.91965161  0.16078368  1  1.589739  0  0.225422  0.676106  0  4.221589  0
C  C46  1  0.13962770  0.00002092  0.00001208  1  1.678137  0  0.230624  0.663997  0  4.241165  0
C  C47  1  0.63904298  0.99993028  0.00009823  1  1.655268  0  0.232997  0.665394  0  4.231082  0
C  C48  1  0.50000108  0.86068823  0.99993162  1  1.657448  0  0.232512  0.666408  0  4.231828  0
C  C49  1  0.49988697  0.13930369  0.00006399  1  1.66099  0  0.232803  0.666247  0  4.232514  0
C  C50  1  0.41970844  0.41945107  0.16091439  1  1.584512  0  0.222976  0.675305  0  4.23232  0
C  C51  1  0.58056773  0.58050463  0.83907503  1  1.594986  0  0.2236  0.677206  0  4.229196  0
C  C52  1  0.36078316  0.00005628  0.99992836  1  1.658663  0  0.2329  0.667214  0  4.23085  0
C  C53  1  0.78235044  0.00000507  0.00001105  1  -0.175385  0  -0.005822  -0.086806  0  3.896133  0
C  C54  1  0.71667725  0.99995537  0.00007421  1  0.019028  0  -0.010468  -0.099625  0  3.906695  0
C  C55  1  0.21743913  0.99998147  0.00002765  1  -0.186556  0  -0.007594  -0.089247  0  3.900993  0
C  C56  1  0.30547185  0.23285767  0.52811044  1  0.025122  0  0.010007  0.086077  0  3.619567  0
C  C57  1  0.28312651  0.00003794  0.99995560  1  0.025732  0  -0.012267  -0.102194  0  3.910497  0
C  C58  1  0.20450382  0.29712258  0.52724836  1  -0.150107  0  -0.031644  -0.022143  0  3.533216  0
C  C59  1  0.73240128  0.82472597  0.47271649  1  -0.169213  0  -0.031641  -0.021227  0  3.530709  0
C  C60  1  0.19925225  0.17869498  0.52730698  1  -0.154784  0  -0.031408  -0.021884  0  3.532212  0
C  C61  1  0.72588922  0.70640055  0.47271660  1  -0.15333  0  -0.031447  -0.021342  0  3.530249  0
C  C62  1  0.83352026  0.76024045  0.47186394  1  0.025946  0  0.01002  0.085319  0  3.620293  0
C  C63  1  0.30181304  0.32274549  0.47179646  1  0.03872  0  0.005317  0.099161  0  3.674151  0
C  C64  1  0.77422336  0.79415282  0.52815780  1  0.04478  0  0.005495  0.099209  0  3.672786  0
C  C65  1  0.29645423  0.20230619  0.47185545  1  0.03389  0  0.005022  0.09921  0  3.673678  0
C  C66  1  0.76758597  0.67381039  0.52816111  1  0.035218  0  0.006164  0.100423  0  3.673473  0
C  C67  1  0.37492516  0.37473944  0.25029014  1  -0.155263  0  -0.048046  -0.203829  0  3.9714  0
C  C68  1  0.62521710  0.62515042  0.74970175  1  -0.154979  0  -0.047965  -0.20426  0  3.971364  0
C  C69  1  0.12553029  0.12505441  0.74977736  1  -0.152781  0  -0.040667  -0.182028  0  3.958373  0
C  C70  1  0.87529293  0.87490813  0.25020067  1  -0.142499  0  -0.040302  -0.181075  0  3.956316  0
C  C71  1  0.19397438  0.26752020  0.47123691  1  0.030648  0  0.000787  0.117775  0  3.695898  0
C  C72  1  0.66520490  0.73950153  0.52876682  1  0.035246  0  0.000396  0.117459  0  3.695826  0
C  C73  1  0.29252282  0.29294957  0.41417583  1  0.071476  0  0.00502  0.018329  0  3.771285  0
C  C74  1  0.70664246  0.70712267  0.58582051  1  0.095472  0  0.004654  0.018035  0  3.772603  0
C  C75  1  0.20654619  0.20695167  0.58619183  1  0.118419  0  -0.000939  0.054206  0  3.835101  0
C  C76  1  0.79273793  0.79318225  0.41378438  1  0.126591  0  -0.00073  0.054481  0  3.835757  0
C  C77  1  0.35832512  0.40238673  0.44034031  1  -0.074765  0  -0.236175  -0.410752  0  3.993929  0
C  C78  1  0.79996764  0.84188383  0.55961081  1  -0.049147  0  -0.23632  -0.410201  0  3.99336  0
C  C79  1  0.34716018  0.15077935  0.44037278  1  -0.07191  0  -0.235678  -0.409839  0  3.992525  0
C  C80  1  0.78607470  0.59042361  0.55966298  1  -0.046067  0  -0.236498  -0.410759  0  3.993903  0
C  C81  1  0.36494459  0.21326288  0.56056991  1  -0.070855  0  -0.232279  -0.398772  0  3.970932  0
I  I82  1  0.13259150  0.37058812  0.57145291  1  0.055673  0  0.028856  -0.075649  0  1.236617  0
I  I83  1  0.70561761  0.94289385  0.42855186  1  0.055458  0  0.028882  -0.075838  0  1.235959  0
I  I84  1  0.11900321  0.06582729  0.57155536  1  0.057391  0  0.02908  -0.075385  0  1.235473  0
I  I85  1  0.68891402  0.63845212  0.42845099  1  0.055777  0  0.029123  -0.075442  0  1.234936  0
O  O86  1  0.43816686  0.60943048  0.99999483  1  -1.127366  0  -0.30379  -0.536012  0  2.221035  0
O  O87  1  0.56180146  0.39059790  0.00001034  1  -1.127908  0  -0.303942  -0.536361  0  2.221765  0
O  O88  1  0.56187176  0.60937692  0.00003659  1  -1.123259  0  -0.303815  -0.535866  0  2.220662  0
O  O89  1  0.37596433  0.43748295  0.12488641  1  -1.123079  0  -0.311303  -0.545368  0  2.224937  0
O  O90  1  0.50077853  0.56250504  0.87508213  1  -1.110297  0  -0.311452  -0.54571  0  2.224643  0
O  O91  1  0.49949282  0.43745416  0.12497617  1  -1.101611  0  -0.311575  -0.546026  0  2.226615  0
O  O92  1  0.62436763  0.56254541  0.87504441  1  -1.125163  0  -0.311943  -0.547175  0  2.22506  0
O  O93  1  0.43809592  0.39058467  0.99997697  1  -1.122574  0  -0.303708  -0.535622  0  2.219531  0
O  O94  1  0.89044904  0.06176490  0.00001573  1  -1.126297  0  -0.302904  -0.53412  0  2.221357  0
O  O95  1  0.89046202  0.93817178  0.99999194  1  -1.121101  0  -0.30243  -0.534091  0  2.222008  0
O  O96  1  0.06257274  0.12404010  0.87509239  1  -1.123245  0  -0.30954  -0.543182  0  2.226673  0
O  O97  1  0.93759939  0.99930820  0.12490017  1  -1.104889  0  -0.309087  -0.54203  0  2.227124  0
O  O98  1  0.06254777  0.00062719  0.87507285  1  -1.10192  0  -0.309279  -0.54236  0  2.226793  0
O  O99  1  0.93757429  0.87588876  0.12489967  1  -1.122861  0  -0.309766  -0.54335  0  2.225429  0
O  O100  1  0.10934551  0.06184600  0.00002268  1  -1.122575  0  -0.303245  -0.535244  0  2.22104  0
O  O101  1  0.10934578  0.93824595  0.99999149  1  -1.128398  0  -0.303702  -0.535854  0  2.222636  0
O  O102  1  0.57278451  0.96424153  0.07146291  1  -1.129572  0  -0.304131  -0.535506  0  2.225038  0
O  O103  1  0.64416401  0.03562069  0.92873591  1  -1.115079  0  -0.304256  -0.535313  0  2.226489  0
O  O104  1  0.46426509  0.85553405  0.07127724  1  -1.118134  0  -0.304583  -0.536985  0  2.223431  0
O  O105  1  0.53563661  0.92689784  0.92856986  1  -1.126589  0  -0.304764  -0.537113  0  2.222147  0
O  O106  1  0.46415327  0.07309522  0.07142402  1  -1.129723  0  -0.30473  -0.536866  0  2.222175  0
O  O107  1  0.53553837  0.14446471  0.92871465  1  -1.117407  0  -0.30494  -0.537154  0  2.224045  0
O  O108  1  0.35565132  0.96435463  0.07129199  1  -1.116659  0  -0.304995  -0.536974  0  2.225997  0
O  O109  1  0.42703153  0.03574938  0.92856120  1  -1.130506  0  -0.304597  -0.536468  0  2.22442  0
