# generated using pymatgen
data_NiH16C15(N3O2)2
_symmetry_space_group_name_H-M   'P 1'
_cell_length_a   7.14104566
_cell_length_b   11.15498227
_cell_length_c   11.15497212
_cell_angle_alpha   65.21062220
_cell_angle_beta   80.34575602
_cell_angle_gamma   80.34571963
_symmetry_Int_Tables_number   1
_chemical_formula_structural   NiH16C15(N3O2)2
_chemical_formula_sum   'Ni2 H32 C30 N12 O8'
_cell_volume   790.55984771
_cell_formula_units_Z   2
loop_
 _symmetry_equiv_pos_site_id
 _symmetry_equiv_pos_as_xyz
  1  'x, y, z'
loop_
 _atom_site_type_symbol
 _atom_site_label
 _atom_site_symmetry_multiplicity
 _atom_site_fract_x
 _atom_site_fract_y
 _atom_site_fract_z
 _atom_site_occupancy
 _atom_site_hle17_ddec_charge
 _atom_site_hle17_ddec_spin_density
 _atom_site_hle17_ddec_sum_bond_order
 _atom_site_hle17_magmom
 _atom_site_hse06_10hf_ddec_charge
 _atom_site_hse06_10hf_ddec_spin_density
 _atom_site_hse06_10hf_ddec_sum_bond_order
 _atom_site_hse06_10hf_magmom
 _atom_site_hse06_ddec_charge
 _atom_site_hse06_ddec_spin_density
 _atom_site_hse06_ddec_sum_bond_order
 _atom_site_hse06_magmom
 _atom_site_pbe_cm5_charge
 _atom_site_pbe_ddec_charge
 _atom_site_pbe_ddec_spin_density
 _atom_site_pbe_ddec_sum_bond_order
 _atom_site_pbe_magmom
Ni  Ni0  1  0.18310212  0.59755104  0.91217633  1  0.69561  -1.736256  2.21492  -1.427  0.71084  -1.790199  2.598175  -1.561  0.79794  -1.862519  2.53121  -1.664  0.671421  0.649975  -1.725355  2.646304  -1.47
Ni  Ni1  1  0.68310452  0.91217649  0.59755176  1  0.695498  -1.73623  2.215069  -1.427  0.710763  -1.790192  2.598318  -1.561  0.797866  -1.862513  2.531352  -1.664  0.671411  0.649938  -1.72543  2.646471  -1.47
H  H2  1  0.43531524  0.65006641  0.05485751  1  0.406846  -0.000644  0.889825  -0.002  0.376826  -0.000881  0.964879  -0.002  0.388693  -0.000686  0.947971  -0.002  0.287384  0.368471  -0.001044  0.976764  -0.002
H  H3  1  0.93531838  0.05485861  0.65006775  1  0.406861  -0.000644  0.889764  -0.002  0.37683  -0.000881  0.964866  -0.002  0.388699  -0.000686  0.947957  -0.002  0.287393  0.36848  -0.001044  0.976745  -0.002
H  H4  1  0.51368500  0.68326840  0.90275816  1  0.389646  0.001324  0.917814  0.001  0.362482  0.000601  0.990681  0.0  0.373202  0.000831  0.975696  0.0  0.289433  0.354766  0.000339  1.001462  0.0
H  H5  1  0.01368880  0.90275716  0.68327021  1  0.389527  0.001324  0.917971  0.001  0.362413  0.000601  0.990751  0.0  0.37313  0.00083  0.975772  0.0  0.289375  0.354701  0.000339  1.001526  0.0
H  H6  1  0.08023400  0.27129058  0.51969837  1  0.3783  -8.3e-05  0.910581  0.0  0.346916  -6.4e-05  0.991554  0.0  0.358522  -4.4e-05  0.979346  0.0  0.294208  0.338772  -8.4e-05  0.999942  0.0
H  H7  1  0.58023472  0.51969926  0.27128815  1  0.37826  -8.4e-05  0.910642  0.0  0.346886  -6.4e-05  0.9916  0.0  0.358492  -4.4e-05  0.979393  0.0  0.294179  0.338744  -8.4e-05  0.999975  0.0
H  H8  1  0.17465688  0.52696871  0.19738610  1  0.093496  -0.000772  0.961452  -0.002  0.101144  -0.000698  1.025598  -0.001  0.103539  -0.000447  1.023735  -0.001  0.118595  0.099315  -0.00094  1.027247  -0.002
H  H9  1  0.67465563  0.19738631  0.52696677  1  0.093513  -0.00077  0.961503  -0.002  0.101166  -0.000698  1.025639  -0.001  0.10356  -0.000446  1.023778  -0.001  0.11863  0.099338  -0.00094  1.027292  -0.002
H  H10  1  0.08942897  0.11409853  0.41269685  1  0.11363  -0.000144  0.974563  0.0  0.123619  2e-06  1.037998  0.0  0.127617  3.3e-05  1.033996  0.0  0.105435  0.120508  -3e-05  1.041282  0.0
H  H11  1  0.58942715  0.41269189  0.11410144  1  0.113585  -0.000144  0.974525  0.0  0.123592  1e-06  1.037954  0.0  0.127594  3.3e-05  1.033947  0.0  0.105432  0.120482  -2.9e-05  1.041229  0.0
H  H12  1  0.10441433  0.10018547  0.19196623  1  0.09993  -0.000482  0.951813  -0.001  0.111359  -0.000465  1.010171  -0.001  0.114083  -0.00033  1.009411  0.0  0.105481  0.109391  -0.000599  1.010817  -0.001
H  H13  1  0.60441627  0.19196047  0.10018532  1  0.099927  -0.000483  0.951685  -0.001  0.111332  -0.000466  1.010073  -0.001  0.114054  -0.00033  1.009312  0.0  0.105492  0.109367  -0.000599  1.010714  -0.001
H  H14  1  0.13762451  0.30841269  0.98246616  1  0.083901  -0.000528  0.958056  -0.001  0.089552  -0.00051  1.026734  -0.001  0.092112  -0.000322  1.024254  -0.001  0.114188  0.087572  -0.00069  1.028886  -0.001
H  H15  1  0.63762622  0.98245904  0.30841543  1  0.08391  -0.000526  0.95785  -0.001  0.089521  -0.000511  1.026595  -0.001  0.09208  -0.000322  1.024119  -0.001  0.114162  0.087542  -0.00069  1.028744  -0.001
H  H16  1  0.88054923  0.24269547  0.76630818  1  0.376543  -0.000113  0.914415  0.0  0.345042  -8.5e-05  0.996257  0.0  0.357039  -4.9e-05  0.983739  0.0  0.287976  0.336646  -0.000131  1.004825  0.0
H  H17  1  0.38055464  0.76631218  0.24269566  1  0.376523  -0.000113  0.914513  0.0  0.345027  -8.5e-05  0.996345  0.0  0.357022  -4.9e-05  0.983829  0.0  0.287971  0.33663  -0.000131  1.004916  0.0
H  H18  1  0.55762009  0.41677433  0.94296646  1  0.093782  -0.000749  0.97191  -0.002  0.101921  -0.000629  1.037657  -0.001  0.104012  -0.000403  1.035852  -0.001  0.113983  0.100433  -0.00085  1.039195  -0.002
H  H19  1  0.05762747  0.94296557  0.41678126  1  0.093878  -0.000748  0.971769  -0.002  0.102032  -0.000628  1.037459  -0.001  0.104124  -0.000403  1.035654  -0.001  0.114019  0.100548  -0.00085  1.039003  -0.002
H  H20  1  0.69129633  0.33162797  0.59365944  1  0.112588  -0.00015  0.964721  0.0  0.121701  2.2e-05  1.027889  0.0  0.125707  4e-05  1.024191  0.0  0.107981  0.118824  2e-06  1.030688  0.0
H  H21  1  0.19130028  0.59366148  0.33162483  1  0.112573  -0.000149  0.964591  0.0  0.121678  2.2e-05  1.027774  0.0  0.125686  4e-05  1.024075  0.0  0.107963  0.118803  2e-06  1.030565  0.0
H  H22  1  0.38773939  0.46783862  0.51486379  1  0.109709  -0.000405  0.964199  -0.001  0.115897  -0.00038  1.02834  -0.001  0.119372  -0.000259  1.026513  0.0  0.105326  0.113492  -0.000497  1.02967  -0.001
H  H23  1  0.88773798  0.51486795  0.46783322  1  0.109657  -0.000405  0.964273  -0.001  0.115879  -0.00038  1.028375  -0.001  0.119356  -0.000259  1.026546  0.0  0.105304  0.113478  -0.000497  1.029703  -0.001
H  H24  1  0.17886935  0.57351467  0.65706898  1  0.075856  -0.001051  0.983745  -0.001  0.079593  -0.000922  1.0566  -0.001  0.081207  -0.000655  1.056505  -0.001  0.108547  0.078337  -0.001186  1.056949  -0.001
H  H25  1  0.67886933  0.65707084  0.57351041  1  0.075888  -0.001051  0.98372  -0.001  0.079626  -0.000922  1.056565  -0.001  0.081242  -0.000655  1.056469  -0.001  0.10855  0.078373  -0.001185  1.056906  -0.001
H  H26  1  0.80878649  0.56124507  0.07249109  1  0.084977  -0.000954  0.965183  -0.002  0.090938  -0.000909  1.035287  -0.001  0.093165  -0.000624  1.033506  -0.001  0.113928  0.089294  -0.001193  1.036917  -0.001
H  H27  1  0.30878911  0.07249414  0.56124352  1  0.084936  -0.000954  0.965378  -0.002  0.090883  -0.000909  1.035488  -0.001  0.09311  -0.000623  1.03371  -0.001  0.113905  0.089236  -0.001193  1.037123  -0.001
H  H28  1  0.61806015  0.90085140  0.16916885  1  0.108923  -0.000122  0.959351  0.0  0.123627  5.1e-05  1.015481  0.0  0.126811  5.8e-05  1.012977  0.0  0.108133  0.121339  4.1e-05  1.017447  0.0
H  H29  1  0.11806090  0.16916778  0.90084848  1  0.108889  -0.000122  0.959529  0.0  0.12361  5.1e-05  1.015618  0.0  0.126787  5.8e-05  1.013131  0.0  0.10813  0.121322  4.1e-05  1.017585  0.0
H  H30  1  0.93297374  0.98621225  0.05756020  1  0.096086  -0.000514  0.950702  -0.001  0.108291  -0.000451  1.007728  -0.001  0.110744  -0.000314  1.007168  0.0  0.103646  0.106632  -0.00059  1.008156  -0.001
H  H31  1  0.43297026  0.05756008  0.98621022  1  0.096163  -0.000515  0.950753  -0.001  0.108373  -0.000451  1.007758  -0.001  0.110825  -0.000314  1.007196  0.0  0.103685  0.106709  -0.00059  1.008185  -0.001
H  H32  1  0.17009186  0.85421940  0.95397350  1  0.076218  -0.000819  0.97476  -0.001  0.07927  -0.000733  1.049538  -0.001  0.081247  -0.000509  1.048666  -0.001  0.106826  0.077754  -0.000957  1.050469  -0.001
H  H33  1  0.67008918  0.95397507  0.85421759  1  0.076239  -0.00082  0.974679  -0.001  0.079267  -0.000733  1.049482  -0.001  0.081237  -0.000509  1.048632  -0.001  0.106824  0.07775  -0.000957  1.050412  -0.001
C  C34  1  0.15810301  0.43081675  0.19995089  1  0.001432  0.014057  3.654993  0.01  -0.034433  0.00506  3.919152  0.003  -0.029125  0.005918  3.935345  0.004  0.02948  -0.038562  0.004796  3.909041  0.003
C  C35  1  0.65810719  0.19994975  0.43081842  1  0.001434  0.014024  3.65499  0.01  -0.034451  0.005061  3.919182  0.003  -0.029145  0.005916  3.935376  0.004  0.029395  -0.038587  0.004796  3.909105  0.003
C  C36  1  0.13092380  0.32238135  0.32229716  1  0.299235  -0.006799  3.846358  -0.009  0.294087  -0.002589  4.105008  -0.004  0.302706  -0.002509  4.120727  -0.003  0.087697  0.287848  -0.002857  4.094727  -0.004
C  C37  1  0.63092592  0.32229475  0.32237849  1  0.299103  -0.006779  3.846363  -0.009  0.29399  -0.002588  4.104986  -0.004  0.302601  -0.002508  4.120719  -0.003  0.087679  0.287754  -0.002856  4.094711  -0.004
C  C38  1  0.11149507  0.20052368  0.31965631  1  -0.162228  0.01456  3.712989  0.009  -0.18655  0.005768  3.962134  0.003  -0.187827  0.005897  3.97993  0.003  -0.092781  -0.185816  0.006309  3.950709  0.003
C  C39  1  0.61149394  0.31964823  0.20052675  1  -0.162124  0.014521  3.713198  0.009  -0.186475  0.005768  3.962298  0.003  -0.187747  0.005895  3.980088  0.003  -0.092769  -0.185736  0.006309  3.950867  0.003
C  C40  1  0.11757052  0.19386558  0.19701844  1  -0.091023  -0.007687  3.779368  -0.009  -0.102178  -0.002837  4.030156  -0.004  -0.106351  -0.002761  4.051585  -0.004  -0.086327  -0.099382  -0.003134  4.015914  -0.004
C  C41  1  0.61757109  0.19701406  0.19387262  1  -0.090989  -0.007661  3.77954  -0.009  -0.102107  -0.002837  4.030306  -0.004  -0.106278  -0.002759  4.051736  -0.004  -0.086329  -0.099317  -0.003134  4.016068  -0.004
C  C42  1  0.13922775  0.30745799  0.08023120  1  0.074887  0.013503  3.714084  0.009  0.041387  0.004689  3.983688  0.003  0.048303  0.005752  4.001624  0.004  0.026508  0.036329  0.004152  3.9721  0.002
C  C43  1  0.63923163  0.08023063  0.30745900  1  0.074861  0.013453  3.713922  0.009  0.041401  0.00469  3.983523  0.003  0.048313  0.005749  4.001459  0.004  0.026553  0.036351  0.004151  3.971941  0.002
C  C44  1  0.52253035  0.42368598  0.84910066  1  -0.012311  0.012108  3.653859  0.008  -0.04649  0.00409  3.913513  0.003  -0.042623  0.005019  3.932548  0.003  0.023046  -0.049546  0.003649  3.901238  0.002
C  C45  1  0.02253751  0.84910236  0.42368757  1  -0.012471  0.012095  3.653552  0.008  -0.046631  0.004089  3.913236  0.003  -0.042765  0.005022  3.932274  0.003  0.022941  -0.049692  0.00365  3.900989  0.002
C  C46  1  0.64485018  0.35737623  0.77829195  1  0.292525  -0.006766  3.864866  -0.009  0.292189  -0.002594  4.119294  -0.004  0.300304  -0.002456  4.136208  -0.003  0.084498  0.286252  -0.00292  4.108184  -0.004
C  C47  1  0.14484806  0.77828820  0.35737923  1  0.292675  -0.006754  3.864745  -0.009  0.292263  -0.002594  4.119248  -0.004  0.300371  -0.002455  4.136166  -0.003  0.084543  0.286327  -0.002919  4.108147  -0.004
C  C48  1  0.59645251  0.37624552  0.65438561  1  -0.157154  0.013932  3.718563  0.009  -0.18307  0.0054  3.969336  0.003  -0.184024  0.005637  3.985927  0.003  -0.09107  -0.182507  0.005733  3.958529  0.003
C  C49  1  0.09644970  0.65439282  0.37624520  1  -0.157018  0.013899  3.718703  0.009  -0.182896  0.0054  3.969488  0.003  -0.183851  0.005637  3.986085  0.003  -0.090975  -0.182337  0.005732  3.958684  0.003
C  C50  1  0.42832844  0.45376745  0.60994673  1  -0.079163  -0.007152  3.754836  -0.009  -0.090338  -0.002555  4.005132  -0.003  -0.093391  -0.002499  4.023278  -0.003  -0.086014  -0.088299  -0.002809  3.993096  -0.004
C  C51  1  0.92833204  0.60994987  0.45376299  1  -0.079177  -0.007137  3.754949  -0.009  -0.090398  -0.002556  4.005244  -0.003  -0.093449  -0.0025  4.023379  -0.003  -0.086032  -0.088365  -0.00281  3.993219  -0.004
C  C52  1  0.31257446  0.51331507  0.68758285  1  0.076752  0.012456  3.720007  0.008  0.047075  0.003819  3.979527  0.002  0.054384  0.004982  3.996973  0.003  0.022293  0.041646  0.003124  3.968383  0.002
C  C53  1  0.81257326  0.68758603  0.51331532  1  0.076778  0.012434  3.719952  0.008  0.047129  0.00382  3.979422  0.002  0.054443  0.004984  3.996866  0.003  0.022333  0.041703  0.003125  3.968284  0.002
C  C54  1  0.83055333  0.65631295  0.07090511  1  -0.030285  0.01227  3.696936  0.008  -0.06339  0.004203  3.961385  0.003  -0.059503  0.005153  3.979703  0.004  0.016492  -0.066569  0.003678  3.949736  0.002
C  C55  1  0.33055701  0.07090408  0.65630862  1  -0.030237  0.012274  3.697041  0.008  -0.063309  0.004203  3.961456  0.003  -0.059425  0.005157  3.979789  0.004  0.016551  -0.066477  0.003679  3.949818  0.002
C  C56  1  0.68465590  0.72409907  0.12857226  1  0.301125  -0.006139  3.89319  -0.008  0.294196  -0.002446  4.145474  -0.003  0.304028  -0.002329  4.162332  -0.003  0.076319  0.287135  -0.002755  4.134292  -0.004
C  C57  1  0.18464972  0.12857333  0.72410010  1  0.301044  -0.006137  3.893339  -0.008  0.294075  -0.002446  4.145643  -0.003  0.303906  -0.00233  4.162505  -0.003  0.07627  0.287004  -0.002756  4.134477  -0.004
C  C58  1  0.72515511  0.84527387  0.12461885  1  -0.153817  0.012964  3.702142  0.008  -0.177058  0.005085  3.949298  0.003  -0.178894  0.005352  3.967446  0.003  -0.091366  -0.175841  0.005343  3.937218  0.003
C  C59  1  0.22514908  0.12462270  0.84527368  1  -0.153779  0.012955  3.701987  0.008  -0.177026  0.005086  3.949148  0.003  -0.178867  0.005353  3.967293  0.003  -0.091367  -0.175807  0.005344  3.937064  0.003
C  C60  1  0.89997592  0.89207433  0.06283548  1  -0.093992  -0.007215  3.784804  -0.009  -0.105068  -0.002844  4.035759  -0.004  -0.1088  -0.002671  4.056436  -0.004  -0.089886  -0.102508  -0.00323  4.021744  -0.004
C  C61  1  0.39998158  0.06283501  0.89207405  1  -0.094107  -0.00721  3.784654  -0.009  -0.105182  -0.002844  4.035634  -0.004  -0.108908  -0.002673  4.056302  -0.004  -0.089948  -0.102613  -0.003231  4.021605  -0.004
C  C62  1  0.03349163  0.81962803  0.00527726  1  0.077414  0.011753  3.708994  0.008  0.045709  0.003617  3.976136  0.002  0.053059  0.004771  3.993206  0.003  0.019505  0.040375  0.00295  3.96508  0.002
C  C63  1  0.53349053  0.00527915  0.81962435  1  0.077331  0.011749  3.70909  0.008  0.045631  0.003615  3.976278  0.002  0.052977  0.004771  3.993349  0.003  0.019484  0.040299  0.002949  3.965228  0.002
N  N64  1  0.94989528  0.56876416  0.83921867  1  -0.371849  -0.072165  2.635252  -0.108  -0.41395  -0.036568  2.951049  -0.057  -0.438049  -0.021357  2.960268  -0.04  -0.218505  -0.395183  -0.05222  2.943645  -0.073
N  N65  1  0.44989705  0.83922173  0.56876142  1  -0.37189  -0.072171  2.635201  -0.108  -0.413985  -0.036569  2.951002  -0.057  -0.438081  -0.021356  2.960221  -0.04  -0.218525  -0.395219  -0.052211  2.943604  -0.073
N  N66  1  0.82748378  0.65747121  0.80569682  1  0.385129  0.037957  4.140736  0.037  0.431038  -0.002859  4.454086  -0.004  0.451916  0.001249  4.487943  -0.001  0.088672  0.415969  -0.006346  4.429167  -0.006
N  N67  1  0.32748611  0.80569771  0.65747141  1  0.385168  0.037956  4.140805  0.037  0.431077  -0.002859  4.454163  -0.004  0.451953  0.001249  4.488019  -0.001  0.088676  0.416001  -0.006347  4.429255  -0.006
N  N68  1  0.70029369  0.74515475  0.77711709  1  -0.446819  -0.096376  2.73011  -0.137  -0.473486  -0.049569  3.04187  -0.071  -0.50477  -0.035902  3.054167  -0.056  -0.248854  -0.450169  -0.064096  3.032648  -0.086
N  N69  1  0.20029861  0.77711827  0.74515473  1  -0.446771  -0.09637  2.730245  -0.137  -0.473471  -0.049568  3.041991  -0.071  -0.504753  -0.035903  3.054288  -0.056  -0.248844  -0.450148  -0.064105  3.032767  -0.086
N  N70  1  0.15968371  0.42418661  0.08272532  1  -0.261737  -0.057155  3.386943  -0.087  -0.216956  -0.039085  3.672894  -0.062  -0.244198  -0.030962  3.698317  -0.052  -0.329462  -0.198247  -0.045698  3.655867  -0.069
N  N71  1  0.65969155  0.08272186  0.42418579  1  -0.261743  -0.057138  3.386821  -0.087  -0.216989  -0.039085  3.672814  -0.062  -0.244219  -0.030961  3.698226  -0.052  -0.329456  -0.198295  -0.045686  3.655826  -0.069
N  N72  1  0.36080550  0.49928583  0.80488249  1  -0.268345  -0.055813  3.368441  -0.085  -0.221312  -0.036894  3.647984  -0.058  -0.248555  -0.029373  3.673692  -0.049  -0.328897  -0.202439  -0.043069  3.630799  -0.065
N  N73  1  0.86080210  0.80488343  0.49928940  1  -0.268347  -0.055806  3.368321  -0.085  -0.221315  -0.036894  3.647844  -0.058  -0.248564  -0.029375  3.673554  -0.049  -0.328838  -0.202456  -0.043058  3.630692  -0.065
N  N74  1  0.99779376  0.70282290  0.01009039  1  -0.274197  -0.055549  3.393585  -0.085  -0.226024  -0.03668  3.669982  -0.058  -0.25287  -0.029166  3.695819  -0.049  -0.33295  -0.207319  -0.042983  3.652565  -0.065
N  N75  1  0.49779239  0.01008920  0.70282415  1  -0.274069  -0.055549  3.393714  -0.085  -0.225896  -0.03668  3.670095  -0.058  -0.252743  -0.029166  3.695936  -0.049  -0.332934  -0.207203  -0.042971  3.652698  -0.065
O  O76  1  0.42654410  0.62760757  0.97829848  1  -0.796908  -0.028113  2.020807  -0.045  -0.764955  -0.024911  2.250739  -0.04  -0.793673  -0.01916  2.21778  -0.033  -0.572461  -0.743917  -0.029822  2.273576  -0.046
O  O77  1  0.92654235  0.97829955  0.62760896  1  -0.79682  -0.028112  2.020899  -0.045  -0.764881  -0.02491  2.250803  -0.04  -0.793582  -0.01916  2.217819  -0.033  -0.572399  -0.743854  -0.029811  2.273643  -0.046
O  O78  1  0.12695821  0.34438805  0.43234035  1  -0.518579  -0.001315  2.15576  -0.002  -0.464734  -0.00067  2.37534  -0.001  -0.485427  -0.000621  2.368581  -0.001  -0.346367  -0.449925  -0.000775  2.37967  -0.001
O  O79  1  0.62695539  0.43234109  0.34438466  1  -0.518484  -0.001313  2.155709  -0.002  -0.464664  -0.00067  2.375286  -0.001  -0.485353  -0.000621  2.36853  -0.001  -0.346315  -0.449853  -0.000775  2.379607  -0.001
O  O80  1  0.80065319  0.27949984  0.83152810  1  -0.5334  -0.001258  2.124061  -0.002  -0.487453  -0.000535  2.34012  -0.001  -0.507771  -0.00044  2.332242  -0.001  -0.362412  -0.472714  -0.000693  2.345047  -0.001
O  O81  1  0.30066066  0.83152919  0.27950172  1  -0.533558  -0.001256  2.123891  -0.002  -0.487585  -0.000535  2.339971  -0.001  -0.507903  -0.00044  2.332095  -0.001  -0.362517  -0.472844  -0.000693  2.344898  -0.001
O  O82  1  0.51842431  0.67350321  0.18193913  1  -0.65271  -0.003566  2.043546  -0.005  -0.577269  -0.001849  2.246799  -0.003  -0.60388  -0.001329  2.242819  -0.002  -0.33965  -0.558153  -0.00255  2.249086  -0.004
O  O83  1  0.01842852  0.18193863  0.67350284  1  -0.652658  -0.003566  2.043802  -0.005  -0.57717  -0.001849  2.247037  -0.003  -0.60378  -0.001329  2.243057  -0.002  -0.339604  -0.558054  -0.00255  2.249332  -0.004
