# generated using pymatgen
data_ZnH10C19SNO6
_symmetry_space_group_name_H-M   'P 1'
_cell_length_a   13.92040410
_cell_length_b   18.96418259
_cell_length_c   23.48182946
_cell_angle_alpha   89.99996552
_cell_angle_beta   89.99994978
_cell_angle_gamma   103.32440611
_symmetry_Int_Tables_number   1
_chemical_formula_structural   ZnH10C19SNO6
_chemical_formula_sum   'Zn8 H80 C152 S8 N8 O48'
_cell_volume   6032.07593215
_cell_formula_units_Z   8
loop_
 _symmetry_equiv_pos_site_id
 _symmetry_equiv_pos_as_xyz
  1  'x, y, z'
loop_
 _atom_site_type_symbol
 _atom_site_label
 _atom_site_symmetry_multiplicity
 _atom_site_fract_x
 _atom_site_fract_y
 _atom_site_fract_z
 _atom_site_occupancy
 _atom_site_pbe_bader_charge
 _atom_site_pbe_bader_spin_density
 _atom_site_pbe_cm5_charge
 _atom_site_pbe_ddec_charge
 _atom_site_pbe_ddec_spin_density
 _atom_site_pbe_ddec_sum_bond_order
 _atom_site_pbe_magmom
Zn  Zn0  1  0.66384905  0.32506230  0.99018878  1  1.30193  0  0.674658  0.83455  0  2.404377  0
Zn  Zn1  1  0.33614837  0.17493579  0.49019081  1  1.301882  0  0.674625  0.834542  0  2.404394  0
Zn  Zn2  1  0.33615156  0.67493688  0.00980946  1  1.301701  0  0.674614  0.834495  0  2.40447  0
Zn  Zn3  1  0.66384953  0.82506393  0.50981169  1  1.301935  0  0.674641  0.834543  0  2.404485  0
Zn  Zn4  1  0.87550873  0.35812838  0.00790537  1  1.301013  0  0.677185  0.836545  0  2.38302  0
Zn  Zn5  1  0.12449083  0.14186968  0.50790584  1  1.301151  0  0.67716  0.836505  0  2.382994  0
Zn  Zn6  1  0.12449039  0.64187297  0.99209543  1  1.301055  0  0.677206  0.836616  0  2.382981  0
Zn  Zn7  1  0.87551083  0.85813059  0.49209580  1  1.301023  0  0.677198  0.836578  0  2.38295  0
H  H8  1  0.90570321  0.49807954  0.16568989  1  0.130908  0  0.114465  0.124648  0  0.998594  0
H  H9  1  0.09429885  0.00192269  0.66569002  1  0.130901  0  0.11448  0.124689  0  0.998573  0
H  H10  1  0.09430132  0.50192073  0.83431006  1  0.130969  0  0.114509  0.124715  0  0.998564  0
H  H11  1  0.90570100  0.99807866  0.33431078  1  0.130913  0  0.114481  0.124692  0  0.998583  0
H  H12  1  0.59575778  0.44533137  0.12483967  1  0.107213  0  0.106125  0.112603  0  1.009299  0
H  H13  1  0.40424313  0.05466928  0.62483919  1  0.107176  0  0.106116  0.112625  0  1.009273  0
H  H14  1  0.40424582  0.55467053  0.87516070  1  0.107153  0  0.106127  0.112632  0  1.00929  0
H  H15  1  0.59575689  0.94533261  0.37516246  1  0.107172  0  0.106124  0.112616  0  1.0093  0
H  H16  1  0.55944350  0.51688220  0.20801163  1  0.11855  0  0.104008  0.114351  0  1.033609  0
H  H17  1  0.44055706  0.98311786  0.70801092  1  0.118546  0  0.103999  0.11435  0  1.033625  0
H  H18  1  0.44056066  0.48311915  0.79198789  1  0.118493  0  0.103998  0.114339  0  1.033568  0
H  H19  1  0.55944244  0.01688240  0.29198903  1  0.118529  0  0.104002  0.114344  0  1.033626  0
H  H20  1  0.55045403  0.58373608  0.29355052  1  0.11092  0  0.112638  0.127002  0  0.991206  0
H  H21  1  0.44954443  0.91626226  0.79355069  1  0.110938  0  0.112637  0.126998  0  0.991239  0
H  H22  1  0.44954585  0.41626310  0.70644900  1  0.110962  0  0.112641  0.126998  0  0.991198  0
H  H23  1  0.55045474  0.08373692  0.20644925  1  0.110923  0  0.112626  0.126979  0  0.991268  0
H  H24  1  0.88688955  0.68873973  0.37336148  1  0.121594  0  0.112485  0.119505  0  0.997953  0
H  H25  1  0.11310838  0.81125962  0.87336188  1  0.121569  0  0.112486  0.119499  0  0.997972  0
H  H26  1  0.11310957  0.31126162  0.62663804  1  0.121585  0  0.112468  0.119473  0  0.997974  0
H  H27  1  0.88689150  0.18873956  0.12663849  1  0.121569  0  0.112488  0.11948  0  0.997993  0
H  H28  1  0.57207988  0.66365519  0.37968816  1  0.096406  0  0.111971  0.116371  0  0.990478  0
H  H29  1  0.42791804  0.83634414  0.87968966  1  0.0964  0  0.11197  0.116333  0  0.990459  0
H  H30  1  0.42791945  0.33634453  0.62031050  1  0.096393  0  0.111971  0.116401  0  0.990492  0
H  H31  1  0.57208113  0.16365504  0.12031028  1  0.096418  0  0.111968  0.11638  0  0.990427  0
H  H32  1  0.62895981  0.18153382  0.83530481  1  0.123705  0  0.11809  0.130042  0  0.978004  0
H  H33  1  0.37104216  0.31846661  0.33530419  1  0.123693  0  0.118078  0.130037  0  0.978006  0
H  H34  1  0.37104168  0.81846591  0.16469556  1  0.123728  0  0.118089  0.130036  0  0.977985  0
H  H35  1  0.62896001  0.68153528  0.66469490  1  0.124132  0  0.118071  0.130006  0  0.978038  0
H  H36  1  0.94080578  0.26442659  0.85989649  1  0.122502  0  0.111606  0.11995  0  0.988177  0
H  H37  1  0.05919508  0.23557273  0.35989565  1  0.122538  0  0.111616  0.119935  0  0.988254  0
H  H38  1  0.05919499  0.73557313  0.14010388  1  0.122548  0  0.111612  0.119966  0  0.98828  0
H  H39  1  0.94080409  0.76442645  0.64010430  1  0.122556  0  0.11163  0.119978  0  0.988263  0
H  H40  1  0.97858874  0.20075105  0.77308299  1  0.085821  0  0.11183  0.117462  0  0.985056  0
H  H41  1  0.02141157  0.29924835  0.27308214  1  0.085819  0  0.111785  0.117341  0  0.985079  0
H  H42  1  0.02141242  0.79924759  0.22691781  1  0.085832  0  0.111793  0.117364  0  0.985061  0
H  H43  1  0.97858794  0.70075191  0.72691781  1  0.085828  0  0.111793  0.11735  0  0.985067  0
H  H44  1  0.98828554  0.12493379  0.69132106  1  0.112147  0  0.112597  0.11786  0  0.981861  0
H  H45  1  0.01171542  0.37506733  0.19132146  1  0.112083  0  0.112602  0.11786  0  0.981891  0
H  H46  1  0.01171469  0.87506648  0.30867931  1  0.112163  0  0.1126  0.117838  0  0.981903  0
H  H47  1  0.98828315  0.62493455  0.80867934  1  0.112302  0  0.112561  0.117847  0  0.981884  0
H  H48  1  0.65208219  0.99368775  0.62596785  1  0.100301  0  0.112089  0.120975  0  0.994556  0
H  H49  1  0.34791886  0.50631348  0.12596995  1  0.100404  0  0.112079  0.120909  0  0.994602  0
H  H50  1  0.34791837  0.00631359  0.37403209  1  0.100311  0  0.112058  0.120892  0  0.994623  0
H  H51  1  0.65208048  0.49368624  0.87403127  1  0.100362  0  0.112087  0.120952  0  0.994535  0
H  H52  1  0.96845908  0.03862797  0.61015450  1  0.125999  0  0.106903  0.113782  0  1.034727  0
H  H53  1  0.03154164  0.46137432  0.11015612  1  0.125992  0  0.106897  0.11373  0  1.034701  0
H  H54  1  0.03154131  0.96137284  0.38984630  1  0.125936  0  0.106897  0.113768  0  1.034736  0
H  H55  1  0.96845909  0.53862757  0.88984425  1  0.126033  0  0.106906  0.113768  0  1.034667  0
H  H56  1  0.51120938  0.30297140  0.07927598  1  0.138432  0  0.131587  0.109731  0  0.969221  0
H  H57  1  0.48879039  0.19702766  0.57927667  1  0.138417  0  0.131592  0.109738  0  0.9692  0
H  H58  1  0.48878784  0.69702615  0.92072268  1  0.138387  0  0.131588  0.109764  0  0.969216  0
H  H59  1  0.51121183  0.80297206  0.42072371  1  0.138414  0  0.131627  0.109807  0  0.969116  0
H  H60  1  0.51358164  0.35403905  0.90779915  1  0.120321  0  0.130005  0.103978  0  0.96475  0
H  H61  1  0.48641880  0.14595914  0.40780026  1  0.120358  0  0.130003  0.103914  0  0.96479  0
H  H62  1  0.48641842  0.64596068  0.09219994  1  0.12035  0  0.130009  0.103932  0  0.964758  0
H  H63  1  0.51358396  0.85404005  0.59220096  1  0.120297  0  0.13  0.103939  0  0.964721  0
H  H64  1  0.33857001  0.31607599  0.09119460  1  0.117789  0  0.113333  0.125165  0  1.006977  0
H  H65  1  0.66142901  0.18392307  0.59119478  1  0.117768  0  0.113327  0.125165  0  1.007016  0
H  H66  1  0.66142827  0.68392265  0.90880406  1  0.117761  0  0.113303  0.125165  0  1.006978  0
H  H67  1  0.33857214  0.81607558  0.40880560  1  0.117817  0  0.113296  0.125148  0  1.007045  0
H  H68  1  0.33943486  0.36819172  0.91128359  1  0.077373  0  0.113628  0.121627  0  1.001152  0
H  H69  1  0.66056397  0.13180591  0.41128504  1  0.077286  0  0.113604  0.121599  0  1.00125  0
H  H70  1  0.66056482  0.63180908  0.08871508  1  0.077436  0  0.113588  0.121592  0  1.001187  0
H  H71  1  0.33943651  0.86819056  0.58871661  1  0.077408  0  0.113575  0.121609  0  1.001126  0
H  H72  1  0.17407491  0.26295399  0.06798863  1  0.110116  0  0.118574  0.127607  0  0.979506  0
H  H73  1  0.82592471  0.23704454  0.56798869  1  0.110167  0  0.118585  0.127615  0  0.979512  0
H  H74  1  0.82592603  0.73704627  0.93201046  1  0.110146  0  0.118568  0.127611  0  0.979525  0
H  H75  1  0.17407213  0.76295409  0.43201211  1  0.110125  0  0.118576  0.127625  0  0.979532  0
H  H76  1  0.23551235  0.43713586  0.94465493  1  0.118788  0  0.108594  0.113859  0  1.030855  0
H  H77  1  0.76448748  0.06286283  0.44465424  1  0.118836  0  0.108592  0.113919  0  1.030799  0
H  H78  1  0.76448838  0.56286603  0.05534501  1  0.118785  0  0.108569  0.113856  0  1.030918  0
H  H79  1  0.23551064  0.93713527  0.55534528  1  0.118796  0  0.108557  0.113837  0  1.030911  0
H  H80  1  0.99879705  0.27515243  0.06857440  1  0.143398  0  0.123893  0.098514  0  1.00484  0
H  H81  1  0.00120202  0.22484665  0.56857447  1  0.143409  0  0.123895  0.09851  0  1.00488  0
H  H82  1  0.00120317  0.72484783  0.93142512  1  0.143393  0  0.123897  0.098538  0  1.004852  0
H  H83  1  0.99879571  0.77515253  0.43142633  1  0.143399  0  0.123902  0.098542  0  1.00486  0
H  H84  1  0.05843475  0.44228254  0.95112296  1  0.156897  0  0.126207  0.105702  0  0.998195  0
H  H85  1  0.94156595  0.05771668  0.45112217  1  0.156558  0  0.126194  0.105667  0  0.998256  0
H  H86  1  0.94156543  0.55771989  0.04887869  1  0.156925  0  0.126225  0.105733  0  0.998191  0
H  H87  1  0.05843427  0.94228358  0.54887735  1  0.156878  0  0.126189  0.105655  0  0.99828  0
C  C88  1  0.76937813  0.42273637  0.09023543  1  1.578992  0  0.209616  0.578503  0  4.2028  0
C  C89  1  0.23062643  0.07726432  0.59023502  1  1.57913  0  0.209649  0.578496  0  4.202788  0
C  C90  1  0.23062763  0.57726553  0.90976409  1  1.579617  0  0.209639  0.578516  0  4.202799  0
C  C91  1  0.76937746  0.92274082  0.40976748  1  1.57981  0  0.209631  0.578541  0  4.202566  0
C  C92  1  0.75186588  0.46733507  0.14028689  1  0.000924  0  -0.017184  -0.040235  0  3.965936  0
C  C93  1  0.24813517  0.03266610  0.64028777  1  0.001214  0  -0.017134  -0.040074  0  3.965801  0
C  C94  1  0.24813700  0.53266682  0.85971263  1  0.001274  0  -0.017056  -0.039946  0  3.965676  0
C  C95  1  0.75186662  0.96733687  0.35971430  1  0.001622  0  -0.017083  -0.040042  0  3.965818  0
C  C96  1  0.83063563  0.50257163  0.17488595  1  -0.02919  0  -0.070511  -0.088558  0  3.945704  0
C  C97  1  0.16936621  0.99743009  0.67488665  1  -0.027607  0  -0.070613  -0.088767  0  3.945688  0
C  C98  1  0.16936797  0.49743026  0.82511400  1  -0.027739  0  -0.070642  -0.088789  0  3.945745  0
C  C99  1  0.83063435  0.00257126  0.32511500  1  -0.029822  0  -0.070616  -0.088754  0  3.945779  0
C  C100  1  0.65525857  0.47362684  0.15229194  1  -0.040184  0  -0.076182  -0.07944  0  3.955479  0
C  C101  1  0.34474246  0.02637432  0.65229193  1  -0.040233  0  -0.076193  -0.0795  0  3.955355  0
C  C102  1  0.34474343  0.52637451  0.84770801  1  -0.040227  0  -0.076211  -0.079572  0  3.955536  0
C  C103  1  0.65525772  0.97362811  0.34770972  1  -0.04015  0  -0.076197  -0.079468  0  3.955322  0
C  C104  1  0.80913753  0.54228249  0.22063366  1  -0.209607  0  -0.017212  -0.116236  0  3.960517  0
C  C105  1  0.19086462  0.95771811  0.72063394  1  -0.211391  0  -0.017237  -0.116323  0  3.96033  0
C  C106  1  0.19086481  0.45771995  0.77936629  1  -0.211432  0  -0.017208  -0.116219  0  3.960555  0
C  C107  1  0.80913616  0.04228162  0.27936600  1  -0.209432  0  -0.017275  -0.11634  0  3.960426  0
C  C108  1  0.63500745  0.51389879  0.19847317  1  0.047355  0  -0.082386  -0.113064  0  3.949992  0
C  C109  1  0.36499241  0.98610128  0.69847378  1  0.047401  0  -0.082412  -0.113169  0  3.950018  0
C  C110  1  0.36499455  0.48610256  0.80152677  1  0.047391  0  -0.08238  -0.113039  0  3.949952  0
C  C111  1  0.63500760  0.01390061  0.30152702  1  0.047357  0  -0.082397  -0.113127  0  3.950003  0
C  C112  1  0.71272990  0.54832005  0.23365141  1  -0.086892  0  0.00071  0.056553  0  4.020579  0
C  C113  1  0.28727222  0.95168053  0.73365165  1  -0.086963  0  0.000826  0.056838  0  4.020526  0
C  C114  1  0.28727226  0.45168185  0.76634769  1  -0.086892  0  0.000693  0.056524  0  4.020585  0
C  C115  1  0.71272818  0.04832028  0.26634873  1  -0.086944  0  0.000808  0.056784  0  4.02054  0
C  C116  1  0.70763572  0.59200932  0.28468703  1  0.013033  0  0.001062  0.056027  0  4.02183  0
C  C117  1  0.29236504  0.90799174  0.78468643  1  0.013631  0  0.001079  0.056024  0  4.021992  0
C  C118  1  0.29236556  0.40799203  0.71531249  1  0.01329  0  0.001059  0.056067  0  4.021865  0
C  C119  1  0.70763446  0.09200852  0.21531351  1  0.013158  0  0.001028  0.055978  0  4.022024  0
C  C120  1  0.80086851  0.62083895  0.30875199  1  -0.21756  0  -0.017862  -0.117503  0  3.969339  0
C  C121  1  0.19913491  0.87916155  0.80875146  1  -0.217775  0  -0.017859  -0.117579  0  3.969351  0
C  C122  1  0.19913488  0.37916457  0.69124796  1  -0.217129  0  -0.017873  -0.117705  0  3.969412  0
C  C123  1  0.80086536  0.12083655  0.19124764  1  -0.217095  0  -0.01787  -0.117569  0  3.969368  0
C  C124  1  0.62391805  0.60689598  0.31054193  1  -0.041608  0  -0.075729  -0.108877  0  3.931822  0
C  C125  1  0.37608161  0.89310397  0.81054258  1  -0.042058  0  -0.075744  -0.108854  0  3.931954  0
C  C126  1  0.37608361  0.39310429  0.68945631  1  -0.041934  0  -0.07574  -0.108832  0  3.931774  0
C  C127  1  0.62391828  0.10689521  0.18945737  1  -0.041791  0  -0.075722  -0.108819  0  3.931931  0
C  C128  1  0.81403741  0.66569246  0.35583732  1  0.001086  0  -0.070716  -0.086281  0  3.954512  0
C  C129  1  0.18596162  0.83430798  0.85583724  1  0.001093  0  -0.070697  -0.086218  0  3.954435  0
C  C130  1  0.18596205  0.33430997  0.64416178  1  0.000678  0  -0.070654  -0.086058  0  3.954283  0
C  C131  1  0.81403882  0.16569066  0.14416228  1  0.000627  0  -0.070672  -0.086139  0  3.954315  0
C  C132  1  0.63592019  0.65121073  0.35866509  1  0.061355  0  -0.069417  -0.072579  0  3.942707  0
C  C133  1  0.36408061  0.84879080  0.85866448  1  0.06134  0  -0.069355  -0.072515  0  3.942748  0
C  C134  1  0.36408054  0.34879116  0.64133358  1  0.061313  0  -0.069422  -0.072643  0  3.942861  0
C  C135  1  0.63592089  0.15120893  0.14133376  1  0.061352  0  -0.069366  -0.072574  0  3.942753  0
C  C136  1  0.72998208  0.68159567  0.38091801  1  -0.060839  0  -0.008245  -0.022226  0  3.942713  0
C  C137  1  0.27001741  0.81840638  0.88091747  1  -0.060782  0  -0.008291  -0.022264  0  3.942769  0
C  C138  1  0.27001827  0.31840731  0.61908024  1  -0.060772  0  -0.008286  -0.022376  0  3.942832  0
C  C139  1  0.72998320  0.18159280  0.11908163  1  -0.060814  0  -0.008269  -0.022276  0  3.942725  0
C  C140  1  0.74172743  0.73368198  0.42985498  1  1.584097  0  0.215557  0.590756  0  4.181825  0
C  C141  1  0.25827070  0.76632056  0.92985532  1  1.584243  0  0.21556  0.590724  0  4.181801  0
C  C142  1  0.25827060  0.26632045  0.57014241  1  1.584247  0  0.215576  0.590832  0  4.181665  0
C  C143  1  0.74172830  0.23367808  0.07014420  1  1.584196  0  0.215554  0.590717  0  4.181693  0
C  C144  1  0.76622699  0.26508500  0.90638653  1  1.594401  0  0.214766  0.592585  0  4.175504  0
C  C145  1  0.23377307  0.23491427  0.40638815  1  1.594406  0  0.214752  0.592554  0  4.175548  0
C  C146  1  0.23377179  0.73491526  0.09361342  1  1.594405  0  0.214718  0.592493  0  4.175675  0
C  C147  1  0.76622686  0.76508275  0.59361307  1  1.594488  0  0.214713  0.592495  0  4.175615  0
C  C148  1  0.78387964  0.22617121  0.85305977  1  -0.043938  0  -0.006789  -0.023195  0  3.928159  0
C  C149  1  0.21612234  0.27382704  0.35306095  1  -0.043916  0  -0.006766  -0.023185  0  3.928161  0
C  C150  1  0.21612169  0.77382798  0.14694061  1  -0.043938  0  -0.006839  -0.023305  0  3.928328  0
C  C151  1  0.78387920  0.72617052  0.64694112  1  -0.04397  0  -0.006811  -0.023283  0  3.928332  0
C  C152  1  0.70467229  0.18518801  0.82148304  1  0.024672  0  -0.065316  -0.082316  0  3.932071  0
C  C153  1  0.29532670  0.31480972  0.32148289  1  0.024683  0  -0.065337  -0.082355  0  3.932164  0
C  C154  1  0.29532671  0.81481063  0.17851776  1  0.024607  0  -0.065259  -0.082239  0  3.932139  0
C  C155  1  0.70467158  0.68518892  0.67851706  1  0.024222  0  -0.065281  -0.082224  0  3.932132  0
C  C156  1  0.88134641  0.23122968  0.83501174  1  0.010471  0  -0.064879  -0.05457  0  3.917611  0
C  C157  1  0.11865526  0.26876749  0.33501128  1  0.009833  0  -0.06496  -0.054617  0  3.917649  0
C  C158  1  0.11865369  0.76876787  0.16498948  1  0.009837  0  -0.064909  -0.054632  0  3.91761  0
C  C159  1  0.88134678  0.73123169  0.66498909  1  0.009841  0  -0.064906  -0.054606  0  3.917549  0
C  C160  1  0.72708084  0.14965775  0.77346421  1  -0.201553  0  -0.01751  -0.119697  0  3.959342  0
C  C161  1  0.27291786  0.35034111  0.27346406  1  -0.201466  0  -0.017507  -0.119711  0  3.959228  0
C  C162  1  0.27291584  0.85034034  0.22653701  1  -0.201418  0  -0.017524  -0.119677  0  3.959256  0
C  C163  1  0.72707810  0.64965698  0.72653844  1  -0.201483  0  -0.017559  -0.119812  0  3.959316  0
C  C164  1  0.90235750  0.19532437  0.78650871  1  -0.002212  0  -0.072732  -0.093047  0  3.938383  0
C  C165  1  0.09764460  0.30467394  0.28650824  1  -0.001572  0  -0.072642  -0.092827  0  3.938199  0
C  C166  1  0.09764404  0.80467319  0.21349251  1  -0.001652  0  -0.072637  -0.092826  0  3.938183  0
C  C167  1  0.90235473  0.69532578  0.71349298  1  -0.00159  0  -0.072629  -0.092792  0  3.938089  0
C  C168  1  0.82457731  0.15315972  0.75539873  1  -0.012491  0  -0.000274  0.04799  0  4.028791  0
C  C169  1  0.17542230  0.34683971  0.25539820  1  -0.012525  0  -0.000259  0.047975  0  4.028745  0
C  C170  1  0.17542063  0.84683784  0.24460250  1  -0.012569  0  -0.000302  0.047961  0  4.028769  0
C  C171  1  0.82457555  0.65316218  0.74460217  1  -0.012527  0  -0.000286  0.047962  0  4.028753  0
C  C172  1  0.83059220  0.10845762  0.70503341  1  0.011465  0  0.001849  0.056521  0  4.028097  0
C  C173  1  0.16940586  0.39154348  0.20503457  1  -0.011485  0  0.001858  0.056579  0  4.028259  0
C  C174  1  0.16940642  0.89154210  0.29496611  1  0.011437  0  0.001863  0.056525  0  4.028127  0
C  C175  1  0.83058857  0.60845894  0.79496666  1  0.011401  0  0.001843  0.056599  0  4.02805  0
C  C176  1  0.73735311  0.07147468  0.68513380  1  -0.233435  0  -0.020437  -0.125808  0  3.984719  0
C  C177  1  0.26264548  0.42852806  0.18513489  1  -0.233365  0  -0.02047  -0.125907  0  3.984764  0
C  C178  1  0.26264728  0.92852612  0.31486572  1  -0.233415  0  -0.020484  -0.125918  0  3.9848  0
C  C179  1  0.73735199  0.57147491  0.81486548  1  -0.2336  0  -0.020475  -0.126041  0  3.984886  0
C  C180  1  0.91462958  0.09702532  0.67726852  1  -0.046652  0  -0.077268  -0.111149  0  3.944092  0
C  C181  1  0.08537085  0.40297635  0.17727057  1  -0.023697  0  -0.07731  -0.111259  0  3.944218  0
C  C182  1  0.08537208  0.90297495  0.32273100  1  -0.046681  0  -0.077273  -0.111152  0  3.9442  0
C  C183  1  0.91462895  0.59702716  0.82273108  1  -0.046762  0  -0.077218  -0.111189  0  3.943901  0
C  C184  1  0.72471913  0.02308056  0.64028297  1  0.000777  0  -0.072715  -0.08763  0  3.958202  0
C  C185  1  0.27527955  0.47692223  0.14028530  1  0.000304  0  -0.072644  -0.087458  0  3.958216  0
C  C186  1  0.27527983  0.97692024  0.35971485  1  0.000745  0  -0.072641  -0.087452  0  3.958291  0
C  C187  1  0.72471741  0.52307911  0.85971592  1  0.000342  0  -0.072688  -0.087494  0  3.958085  0
C  C188  1  0.90352213  0.04825690  0.63191091  1  -0.005651  0  -0.073826  -0.079174  0  3.942634  0
C  C189  1  0.09647728  0.45174591  0.13191420  1  -0.005618  0  -0.073789  -0.078956  0  3.942262  0
C  C190  1  0.09647682  0.95174391  0.36808776  1  -0.005569  0  -0.073804  -0.079078  0  3.942478  0
C  C191  1  0.90352057  0.54825598  0.86808787  1  -0.005838  0  -0.073848  -0.079137  0  3.942485  0
C  C192  1  0.80960103  0.01066076  0.61369430  1  -0.019031  0  -0.013132  -0.028765  0  3.945753  0
C  C193  1  0.19040125  0.48934423  0.11369753  1  -0.018682  0  -0.013155  -0.028909  0  3.945678  0
C  C194  1  0.19040131  0.98934167  0.38630394  1  -0.018984  0  -0.013122  -0.028856  0  3.945781  0
C  C195  1  0.80959860  0.51065712  0.88630327  1  -0.018459  0  -0.013083  -0.02873  0  3.945751  0
C  C196  1  0.79848106  0.95416043  0.56801280  1  1.597589  0  0.21245  0.58409  0  4.193644  0
C  C197  1  0.20151933  0.54584302  0.06801538  1  1.597526  0  0.212462  0.584124  0  4.193532  0
C  C198  1  0.20151950  0.04584092  0.43198630  1  1.597837  0  0.21253  0.584259  0  4.193582  0
C  C199  1  0.79848039  0.45415562  0.93198286  1  1.59779  0  0.212373  0.583977  0  4.193883  0
C  C200  1  0.46959791  0.31665960  0.04325623  1  0.476281  0  0.063162  0.113141  0  3.902357  0
C  C201  1  0.53040041  0.18333463  0.54325817  1  0.47614  0  0.063123  0.113033  0  3.902462  0
C  C202  1  0.53039936  0.68333579  0.95674159  1  0.476111  0  0.063152  0.113071  0  3.902394  0
C  C203  1  0.46959936  0.81666184  0.45674305  1  0.476147  0  0.063115  0.113042  0  3.902271  0
C  C204  1  0.47109097  0.34579617  0.94724158  1  0.498499  0  0.060391  0.104056  0  3.931141  0
C  C205  1  0.52890644  0.15419709  0.44724351  1  0.498491  0  0.060536  0.104349  0  3.931062  0
C  C206  1  0.52890807  0.65420030  0.05275709  1  0.49851  0  0.06052  0.104241  0  3.931056  0
C  C207  1  0.47109315  0.84579884  0.55275771  1  0.498474  0  0.060496  0.104236  0  3.931043  0
C  C208  1  0.37289383  0.32355509  0.04924173  1  0.01131  0  -0.072429  -0.165848  0  3.917155  0
C  C209  1  0.62710338  0.17644021  0.54924363  1  0.011435  0  -0.072446  -0.165871  0  3.917277  0
C  C210  1  0.62710361  0.67644084  0.95075651  1  0.011475  0  -0.072476  -0.165964  0  3.917218  0
C  C211  1  0.37289567  0.82355626  0.45075887  1  0.01139  0  -0.072409  -0.165851  0  3.917336  0
C  C212  1  0.37457497  0.35400592  0.94974566  1  -0.022412  0  -0.075695  -0.170389  0  3.933517  0
C  C213  1  0.62542100  0.14598734  0.44974670  1  -0.022245  0  -0.075822  -0.170622  0  3.93364  0
C  C214  1  0.62542297  0.64599163  0.05025343  1  -0.022501  0  -0.075747  -0.17046  0  3.933656  0
C  C215  1  0.37457665  0.85400697  0.55025410  1  -0.022404  0  -0.075709  -0.170447  0  3.933473  0
C  C216  1  0.32320077  0.34237989  0.00164493  1  -0.048278  0  0.019527  0.11171  0  3.972535  0
C  C217  1  0.67679547  0.15761438  0.50164682  1  -0.048514  0  0.019606  0.111825  0  3.972377  0
C  C218  1  0.67679718  0.65761766  0.99835373  1  -0.048411  0  0.019598  0.111798  0  3.97251  0
C  C219  1  0.32320092  0.84238046  0.49835441  1  -0.048369  0  0.019584  0.111756  0  3.972512  0
C  C220  1  0.21984061  0.34892531  0.00545727  1  -0.021014  0  0.017787  0.107722  0  3.981882  0
C  C221  1  0.78015718  0.15107166  0.50545867  1  -0.020703  0  0.017941  0.107921  0  3.981885  0
C  C222  1  0.78015945  0.65107441  0.99454225  1  -0.020684  0  0.017827  0.10776  0  3.981858  0
C  C223  1  0.21984114  0.84892481  0.49454340  1  -0.021047  0  0.017781  0.107762  0  3.981959  0
C  C224  1  0.15209397  0.30375266  0.04153328  1  -0.039239  0  -0.074076  -0.171005  0  3.938202  0
C  C225  1  0.84790337  0.19624535  0.54153420  1  -0.039583  0  -0.074118  -0.170986  0  3.938048  0
C  C226  1  0.84790393  0.69624705  0.95846624  1  -0.039596  0  -0.074023  -0.170925  0  3.938135  0
C  C227  1  0.15209546  0.80375274  0.45846788  1  -0.039214  0  -0.074091  -0.171043  0  3.938291  0
C  C228  1  0.18565399  0.39958596  0.97236787  1  0.025197  0  -0.075394  -0.16168  0  3.914846  0
C  C229  1  0.81434523  0.10041324  0.47236884  1  0.025117  0  -0.07547  -0.161924  0  3.914931  0
C  C230  1  0.81434585  0.60041539  0.02763335  1  0.025199  0  -0.075371  -0.161717  0  3.914893  0
C  C231  1  0.18565449  0.89958540  0.52763239  1  0.025145  0  -0.075343  -0.161673  0  3.914812  0
C  C232  1  0.05467265  0.30982693  0.04212354  1  0.465208  0  0.058632  0.106244  0  3.926099  0
C  C233  1  0.94532900  0.19017110  0.54212357  1  0.465272  0  0.058544  0.106062  0  3.926173  0
C  C234  1  0.94532935  0.69017443  0.95787725  1  0.465051  0  0.058614  0.106165  0  3.926087  0
C  C235  1  0.05467110  0.80982646  0.45787723  1  0.465075  0  0.058633  0.106218  0  3.92612  0
C  C236  1  0.08717634  0.40290271  0.97565171  1  0.434266  0  0.063407  0.11799  0  3.891738  0
C  C237  1  0.91282631  0.09709595  0.47565178  1  0.434657  0  0.06343  0.118051  0  3.891572  0
C  C238  1  0.91282545  0.59710027  0.02435036  1  0.434243  0  0.063376  0.117971  0  3.891879  0
C  C239  1  0.08717502  0.90290323  0.52434902  1  0.434308  0  0.063429  0.118054  0  3.891742  0
S  S240  1  0.89558427  0.59215783  0.27031843  1  2.501571  0  0.468226  0.979674  0  5.775083  0
S  S241  1  0.10441490  0.90784270  0.77031920  1  2.501639  0  0.468231  0.979669  0  5.774686  0
S  S242  1  0.10441878  0.40784460  0.72968152  1  2.501543  0  0.468215  0.979707  0  5.77499  0
S  S243  1  0.89558498  0.09215648  0.22967946  1  2.501678  0  0.468038  0.979303  0  5.77516  0
S  S244  1  0.64152366  0.09278915  0.72714716  1  2.486897  0  0.474601  0.984269  0  5.746853  0
S  S245  1  0.35847990  0.40721356  0.22714736  1  2.486867  0  0.474668  0.984302  0  5.746322  0
S  S246  1  0.35847729  0.90721112  0.27285279  1  2.486866  0  0.474635  0.984301  0  5.746606  0
S  S247  1  0.64151889  0.59278670  0.77285344  1  2.487136  0  0.474756  0.984483  0  5.746363  0
N  N248  1  0.51770628  0.32727094  0.99311874  1  -1.239956  0  -0.320451  -0.205335  0  3.527122  0
N  N249  1  0.48229215  0.17272119  0.49312027  1  -1.239809  0  -0.320477  -0.205307  0  3.526957  0
N  N250  1  0.48229298  0.67272390  0.00687992  1  -1.239673  0  -0.320499  -0.205308  0  3.527003  0
N  N251  1  0.51770799  0.82727420  0.50688095  1  -1.239822  0  -0.320541  -0.205433  0  3.527044  0
N  N252  1  0.02250970  0.35820009  0.00959541  1  -1.247152  0  -0.320713  -0.209443  0  3.518675  0
N  N253  1  0.97749163  0.14179905  0.50959672  1  -1.247236  0  -0.320683  -0.209299  0  3.518573  0
N  N254  1  0.97749031  0.64180180  0.99040666  1  -1.247  0  -0.320748  -0.209478  0  3.518891  0
N  N255  1  0.02250986  0.85820068  0.49040493  1  -1.24699  0  -0.320715  -0.209461  0  3.518738  0
O  O256  1  0.69297542  0.38969253  0.06351692  1  -1.182555  0  -0.313599  -0.560815  0  2.378489  0
O  O257  1  0.30702644  0.11031089  0.56352030  1  -1.182569  0  -0.313688  -0.560901  0  2.378663  0
O  O258  1  0.30702962  0.61030937  0.93648132  1  -1.182459  0  -0.313645  -0.560874  0  2.378658  0
O  O259  1  0.69297365  0.88969587  0.43648433  1  -1.182539  0  -0.313682  -0.560962  0  2.378365  0
O  O260  1  0.85840719  0.42180684  0.07800297  1  -1.164174  0  -0.312425  -0.54035  0  2.303224  0
O  O261  1  0.14159301  0.07818898  0.57799963  1  -1.164232  0  -0.312378  -0.540283  0  2.303134  0
O  O262  1  0.14159853  0.57819723  0.92199783  1  -1.16478  0  -0.312403  -0.540352  0  2.303172  0
O  O263  1  0.85840594  0.92181182  0.42200074  1  -1.165228  0  -0.312414  -0.540311  0  2.303166  0
O  O264  1  0.82951364  0.76873654  0.44068715  1  -1.176344  0  -0.315482  -0.556274  0  2.35723  0
O  O265  1  0.17048430  0.73126544  0.94068543  1  -1.17637  0  -0.315487  -0.556262  0  2.357182  0
O  O266  1  0.17048510  0.23126589  0.55931322  1  -1.176332  0  -0.315469  -0.556248  0  2.357139  0
O  O267  1  0.82951411  0.26873591  0.05931494  1  -1.176305  0  -0.315476  -0.556248  0  2.357164  0
O  O268  1  0.66388562  0.74014772  0.45558340  1  -1.16353  0  -0.313549  -0.538586  0  2.316463  0
O  O269  1  0.33611296  0.75985642  0.95558413  1  -1.163635  0  -0.313548  -0.538551  0  2.316382  0
O  O270  1  0.33611629  0.25985797  0.54441399  1  -1.163695  0  -0.313536  -0.538585  0  2.316312  0
O  O271  1  0.66388692  0.24014277  0.04441369  1  -1.163638  0  -0.313564  -0.538557  0  2.316369  0
O  O272  1  0.67742408  0.26660094  0.91863048  1  -1.157702  0  -0.320472  -0.53893  0  2.270501  0
O  O273  1  0.32257532  0.23340319  0.41863419  1  -1.157722  0  -0.320414  -0.538873  0  2.270653  0
O  O274  1  0.32257411  0.73340203  0.08136563  1  -1.157639  0  -0.320446  -0.538893  0  2.270595  0
O  O275  1  0.67742229  0.76659328  0.58136575  1  -1.157748  0  -0.320479  -0.538904  0  2.270498  0
O  O276  1  0.84237846  0.29383186  0.93532377  1  -1.187092  0  -0.316915  -0.561316  0  2.345372  0
O  O277  1  0.15761707  0.20616683  0.43532374  1  -1.187365  0  -0.316948  -0.561343  0  2.345195  0
O  O278  1  0.15761927  0.70616732  0.06467746  1  -1.187135  0  -0.316939  -0.561299  0  2.345363  0
O  O279  1  0.84237669  0.79383343  0.56467791  1  -1.187136  0  -0.316868  -0.56125  0  2.34537  0
O  O280  1  0.87714354  0.94523724  0.54431190  1  -1.166302  0  -0.310809  -0.537419  0  2.336802  0
O  O281  1  0.12285689  0.55476624  0.04431495  1  -1.166337  0  -0.310864  -0.537486  0  2.336819  0
O  O282  1  0.12285796  0.05476248  0.45568932  1  -1.166493  0  -0.310831  -0.537508  0  2.33684  0
O  O283  1  0.87714017  0.44523077  0.95568372  1  -1.166535  0  -0.310875  -0.53745  0  2.336942  0
O  O284  1  0.71096604  0.91891299  0.55733990  1  -1.177377  0  -0.317688  -0.558141  0  2.346131  0
O  O285  1  0.28903623  0.58108723  0.05734029  1  -1.177314  0  -0.317673  -0.558124  0  2.346017  0
O  O286  1  0.28903524  0.08108836  0.44265835  1  -1.1774  0  -0.317748  -0.558199  0  2.346059  0
O  O287  1  0.71096210  0.41890924  0.94265497  1  -1.177329  0  -0.317608  -0.558062  0  2.346151  0
O  O288  1  0.96039988  0.65336766  0.24236359  1  -1.28178  0  -0.31793  -0.522536  0  2.134219  0
O  O289  1  0.03959973  0.84663182  0.74236486  1  -1.281749  0  -0.317939  -0.522578  0  2.134232  0
O  O290  1  0.03960538  0.34663261  0.75763551  1  -1.281639  0  -0.31792  -0.522533  0  2.134302  0
O  O291  1  0.96039960  0.15336790  0.25763254  1  -1.281676  0  -0.317826  -0.522401  0  2.13433  0
O  O292  1  0.93936839  0.54424465  0.30459727  1  -1.269256  0  -0.326832  -0.508302  0  2.05593  0
O  O293  1  0.06063698  0.95575749  0.80460060  1  -1.269323  0  -0.32681  -0.508209  0  2.055706  0
O  O294  1  0.06063416  0.45575616  0.69540097  1  -1.269271  0  -0.326819  -0.508258  0  2.055711  0
O  O295  1  0.93936451  0.04424224  0.19539849  1  -1.269396  0  -0.326718  -0.508073  0  2.05592  0
O  O296  1  0.58692192  0.02873524  0.75688380  1  -1.28587  0  -0.316099  -0.519244  0  2.118234  0
O  O297  1  0.41307727  0.47126743  0.25688692  1  -1.285902  0  -0.316145  -0.519303  0  2.11811  0
O  O298  1  0.41307742  0.97126448  0.24311317  1  -1.285842  0  -0.316124  -0.51927  0  2.118099  0
O  O299  1  0.58691666  0.52873337  0.74311814  1  -1.285985  0  -0.316164  -0.519331  0  2.118153  0
O  O300  1  0.58540333  0.13404463  0.69377072  1  -1.286691  0  -0.323319  -0.52371  0  2.091232  0
O  O301  1  0.41459990  0.36595920  0.19376920  1  -1.286665  0  -0.323313  -0.52365  0  2.091062  0
O  O302  1  0.41459728  0.86595455  0.30622880  1  -1.286697  0  -0.323328  -0.523717  0  2.091187  0
O  O303  1  0.58539639  0.63403998  0.80623117  1  -1.286746  0  -0.323361  -0.523696  0  2.090974  0
