# generated using pymatgen
data_Co2H17C28N3O8
_symmetry_space_group_name_H-M   'P 1'
_cell_length_a   9.54322301
_cell_length_b   13.61441248
_cell_length_c   15.32052309
_cell_angle_alpha   90.21020884
_cell_angle_beta   104.65563124
_cell_angle_gamma   104.80425500
_symmetry_Int_Tables_number   1
_chemical_formula_structural   Co2H17C28N3O8
_chemical_formula_sum   'Co4 H34 C56 N6 O16'
_cell_volume   1856.86134865
_cell_formula_units_Z   2
loop_
 _symmetry_equiv_pos_site_id
 _symmetry_equiv_pos_as_xyz
  1  'x, y, z'
loop_
 _atom_site_type_symbol
 _atom_site_label
 _atom_site_symmetry_multiplicity
 _atom_site_fract_x
 _atom_site_fract_y
 _atom_site_fract_z
 _atom_site_occupancy
 _atom_site_pbe_bader_charge
 _atom_site_pbe_bader_spin_density
 _atom_site_pbe_cm5_charge
 _atom_site_pbe_ddec_charge
 _atom_site_pbe_ddec_spin_density
 _atom_site_pbe_ddec_sum_bond_order
 _atom_site_pbe_magmom
Co  Co0  1  0.81263562  0.50593036  0.91718941  1  1.297801  2.609204  0.706035  0.906197  2.842557  2.548369  2.574
Co  Co1  1  0.18734570  0.49405956  0.08280163  1  1.298135  2.609163  0.706039  0.906228  2.842554  2.54858  2.574
Co  Co2  1  0.68545756  0.56226487  0.61722587  1  1.320994  2.612881  0.683638  0.975109  2.849725  2.434934  2.591
Co  Co3  1  0.31457336  0.43773040  0.38278211  1  1.320719  2.612937  0.683578  0.974966  2.849748  2.434823  2.591
H  H4  1  0.68794552  0.81434193  0.04490495  1  0.085166  0.00099  0.107304  0.113495  0.000496  0.992625  0.0
H  H5  1  0.31203879  0.18565635  0.95507809  1  0.085562  0.000991  0.107265  0.113471  0.000496  0.992562  0.0
H  H6  1  0.70851211  0.31540724  0.00681401  1  0.105759  0.001235  0.118601  0.091676  0.000106  0.99691  0.001
H  H7  1  0.29149185  0.68459139  0.99318778  1  0.106148  0.001234  0.1186  0.09164  0.000105  0.996961  0.001
H  H8  1  0.65568093  0.05375376  0.56232741  1  0.058453  -0.000126  0.10213  0.099538  -4.9e-05  1.005083  0.0
H  H9  1  0.34431214  0.94622654  0.43768503  1  0.058396  -0.000126  0.102088  0.099523  -4.9e-05  1.00511  0.0
H  H10  1  0.84411072  0.77441144  0.66660503  1  0.121791  0.001513  0.119689  0.096973  0.000224  1.004279  0.001
H  H11  1  0.15589517  0.22558346  0.33341337  1  0.121811  0.001514  0.119642  0.096867  0.000224  1.004401  0.001
H  H12  1  0.92246649  0.69497045  0.82928210  1  0.161199  0.001408  0.121322  0.103867  0.000228  1.015867  0.001
H  H13  1  0.07751400  0.30502928  0.17069773  1  0.161774  0.001408  0.121371  0.10392  0.000229  1.015825  0.001
H  H14  1  0.80897334  0.94756807  0.63375346  1  0.046294  0.001048  0.101943  0.104784  0.000579  1.005143  0.0
H  H15  1  0.19101648  0.05242128  0.36626502  1  0.046236  0.001048  0.101943  0.104885  0.000579  1.004988  0.0
H  H16  1  0.41360374  0.63492623  0.51122273  1  0.148731  0.001229  0.122688  0.09798  4.5e-05  1.029643  0.001
H  H17  1  0.58640403  0.36505279  0.48878942  1  0.148572  0.001229  0.122689  0.097951  4.5e-05  1.029822  0.001
H  H18  1  0.89766609  0.36454609  0.79011424  1  0.156721  0.001796  0.117292  0.095906  0.000465  1.037151  0.001
H  H19  1  0.10233704  0.63545327  0.20988154  1  0.156637  0.001795  0.117305  0.095918  0.000465  1.037176  0.001
H  H20  1  0.91971773  0.18736005  0.78401098  1  0.067454  0.001105  0.107877  0.111848  0.000572  0.991192  0.0
H  H21  1  0.08027560  0.81263613  0.21598848  1  0.067429  0.001105  0.107863  0.111857  0.000571  0.991181  0.0
H  H22  1  0.70824666  0.63630109  0.03470707  1  0.105865  0.001565  0.120188  0.096715  0.000381  1.003036  0.001
H  H23  1  0.29174529  0.36369732  0.96528239  1  0.105265  0.001565  0.12018  0.096694  0.00038  1.003045  0.001
H  H24  1  0.91712642  0.87565132  0.83240535  1  0.064401  0.000802  0.104341  0.105955  0.000353  1.010287  0.0
H  H25  1  0.08282928  0.12434272  0.16757057  1  0.064324  0.000802  0.104305  0.105953  0.000353  1.010245  0.0
H  H26  1  0.35905299  0.79752274  0.47377655  1  0.074909  0.000804  0.112348  0.120376  0.000433  0.990912  0.0
H  H27  1  0.64095151  0.20245622  0.52622985  1  0.074673  0.000805  0.112427  0.120424  0.000433  0.990553  0.0
H  H28  1  0.71455783  0.13558625  0.00751212  1  0.021003  0.000825  0.105907  0.110319  0.000419  1.002306  0.0
H  H29  1  0.28543494  0.86441142  0.99247877  1  0.020968  0.000825  0.105871  0.110337  0.000419  1.002273  0.0
H  H30  1  0.88440200  0.02275133  0.83896633  1  0.041307  -1.5e-05  0.100973  0.093994  4.5e-05  1.012826  0.0
H  H31  1  0.11558722  0.97724552  0.16102073  1  0.041295  -1.5e-05  0.101039  0.094076  4.4e-05  1.012834  0.0
H  H32  1  0.73811492  0.98364337  0.99781736  1  0.068394  -6.1e-05  0.100623  0.095189  -4.6e-05  1.006441  0.0
H  H33  1  0.26184569  0.01634924  0.00216259  1  0.068296  -6.1e-05  0.100614  0.095231  -4.6e-05  1.006471  0.0
H  H34  1  0.09692822  0.49974298  0.57188498  1  0.104134  0.000763  0.113031  0.128138  0.000274  0.997693  0.0
H  H35  1  0.90308801  0.50026871  0.42812006  1  0.104227  0.000763  0.112976  0.128165  0.000274  0.997524  0.0
H  H36  1  0.39267375  0.51757834  0.88870933  1  0.113885  0.000864  0.107773  0.11802  0.000296  1.015353  0.0
H  H37  1  0.60732670  0.48244069  0.11130173  1  0.113666  0.000865  0.107818  0.118081  0.000296  1.015329  0.0
C  C38  1  0.74230401  0.79168660  0.99639535  1  -0.055913  0.001253  -0.088971  -0.18984  -0.000414  3.953991  0.002
C  C39  1  0.25767977  0.20830714  0.00359216  1  -0.055889  0.001257  -0.088822  -0.189653  -0.00041  3.953724  0.002
C  C40  1  0.75600130  0.28412049  0.95905563  1  0.484826  -0.008183  0.042094  0.0967  -0.008785  3.96523  -0.005
C  C41  1  0.24400320  0.71587361  0.04094688  1  0.484681  -0.008182  0.042225  0.097079  -0.008785  3.964752  -0.005
C  C42  1  0.56095667  0.99003372  0.52859294  1  -0.022445  -0.017988  -0.086137  -0.129237  -0.019357  3.985964  -0.009
C  C43  1  0.43904703  0.00994599  0.47142313  1  -0.105055  -0.017971  -0.08593  -0.128988  -0.019359  3.985768  -0.009
C  C44  1  0.35925276  0.46932423  0.57894089  1  1.563791  0.009904  0.217435  0.57525  0.007353  4.179478  0.007
C  C45  1  0.64076564  0.53068144  0.42106449  1  1.56394  0.009894  0.217464  0.575365  0.007348  4.179677  0.007
C  C46  1  0.93801707  0.53034882  0.68394796  1  1.585125  0.000988  0.199579  0.575543  5.5e-05  4.215814  -0.002
C  C47  1  0.06201765  0.46967526  0.31604305  1  1.584412  0.000988  0.19933  0.57538  5.6e-05  4.215025  -0.002
C  C48  1  0.58026656  0.88977956  0.55008310  1  0.031583  -0.019735  -0.000288  0.139087  -0.021013  4.055507  -0.011
C  C49  1  0.41973414  0.11020995  0.44992990  1  0.032055  -0.019743  -0.000259  0.139032  -0.021023  4.055509  -0.011
C  C50  1  0.73813487  0.78421674  0.62508214  1  0.421774  -0.013864  0.042481  0.089422  -0.014557  3.967726  -0.008
C  C51  1  0.26186966  0.21578344  0.37493541  1  0.421796  -0.01387  0.04246  0.089462  -0.014564  3.967824  -0.008
C  C52  1  0.87398533  0.72551084  0.87700272  1  0.471874  -0.004824  0.048066  0.105842  -0.005228  3.931338  -0.002
C  C53  1  0.12599844  0.27449198  0.12297959  1  0.471141  -0.004827  0.048313  0.106237  -0.005232  3.931112  -0.002
C  C54  1  0.71737015  0.87987120  0.60608339  1  -0.014439  0.000858  -0.0926  -0.192543  -0.000936  3.971008  0.002
C  C55  1  0.28261886  0.12012192  0.39393497  1  -0.014828  0.000861  -0.092589  -0.192635  -0.000933  3.970829  0.002
C  C56  1  0.49812139  0.70546628  0.53894881  1  0.427006  -0.009652  0.048084  0.108812  -0.010253  3.932051  -0.005
C  C57  1  0.50188450  0.29452559  0.46106698  1  0.426306  -0.009653  0.047911  0.108616  -0.010258  3.93248  -0.005
C  C58  1  0.86398380  0.31260032  0.83954637  1  0.450562  -0.011326  0.045264  0.102394  -0.011937  3.925632  -0.007
C  C59  1  0.13601932  0.68739298  0.16045137  1  0.451144  -0.011325  0.045304  0.102411  -0.011936  3.925227  -0.006
C  C60  1  0.87278340  0.21256615  0.83532598  1  -0.021654  0.002389  -0.08312  -0.175346  0.000415  3.936592  0.003
C  C61  1  0.12721592  0.78743164  0.16467312  1  -0.022452  0.002387  -0.083192  -0.175405  0.000413  3.936258  0.003
C  C62  1  0.75264454  0.69212935  0.99103502  1  0.468775  -0.009076  0.045243  0.096532  -0.009707  3.954673  -0.005
C  C63  1  0.24735040  0.30787138  0.00895425  1  0.469275  -0.009084  0.04521  0.096503  -0.009716  3.954589  -0.005
C  C64  1  0.80111638  0.86262670  0.93949353  1  0.01394  -0.011959  0.000885  0.14309  -0.012676  4.051467  -0.006
C  C65  1  0.19886086  0.13736391  0.06049360  1  0.01351  -0.011968  0.000806  0.143091  -0.012685  4.051552  -0.007
C  C66  1  0.86877593  0.82607967  0.87890746  1  -0.058422  -0.001559  -0.084978  -0.175349  -0.002364  3.935569  0.0
C  C67  1  0.13119722  0.17391769  0.12107839  1  -0.058202  -0.001559  -0.085088  -0.17567  -0.002364  3.935772  0.0
C  C68  1  0.46899488  0.79809277  0.51723214  1  0.004834  0.001114  -0.079365  -0.164129  -0.000375  3.909965  0.002
C  C69  1  0.53100909  0.20189679  0.48277877  1  0.004988  0.00112  -0.079373  -0.164071  -0.000371  3.909826  0.002
C  C70  1  0.75952240  0.18317617  0.95867711  1  0.005326  0.002063  -0.087242  -0.181428  0.000617  3.951944  0.003
C  C71  1  0.24047174  0.81682229  0.04131921  1  0.005116  0.002063  -0.087212  -0.181639  0.000617  3.951809  0.003
C  C72  1  0.82178938  0.14422730  0.89635026  1  -0.042603  -0.015714  0.000976  0.139485  -0.016624  4.051697  -0.009
C  C73  1  0.17819714  0.85577406  0.10364422  1  -0.042358  -0.015715  0.000888  0.139367  -0.016623  4.051652  -0.009
C  C74  1  0.83397502  0.04050681  0.89166555  1  -0.011384  -0.010367  -0.085401  -0.123267  -0.011346  3.986331  -0.005
C  C75  1  0.16600904  0.95949375  0.10832658  1  -0.011106  -0.010372  -0.085435  -0.123268  -0.011353  3.98626  -0.005
C  C76  1  0.78906086  0.96634441  0.94518821  1  -0.066561  -0.015459  -0.085307  -0.126094  -0.016688  3.986702  -0.008
C  C77  1  0.21090710  0.03364452  0.05479223  1  -0.066579  -0.015454  -0.085235  -0.126079  -0.016683  3.986671  -0.008
C  C78  1  0.11464963  0.52498625  0.87953109  1  1.531291  -0.002694  0.220374  0.572531  -0.004216  4.198329  0.0
C  C79  1  0.88535487  0.47502601  0.12046690  1  1.531108  -0.002691  0.220253  0.572384  -0.004214  4.198535  0.0
C  C80  1  0.55948964  0.50731609  0.78321317  1  1.567982  0.000429  0.216282  0.590978  -0.000131  4.155031  0.0
C  C81  1  0.44051597  0.49268713  0.21679803  1  1.567873  0.000415  0.216433  0.591358  -0.000143  4.154792  0.0
C  C82  1  0.39611982  0.50410104  0.74987643  1  -0.00542  0.014199  -0.00623  -0.034283  0.007182  3.916138  0.01
C  C83  1  0.60389096  0.49591662  0.25012646  1  -0.005092  0.014199  -0.006309  -0.03464  0.007183  3.916282  0.01
C  C84  1  0.30871200  0.49574054  0.65916614  1  -0.057315  0.003004  -0.006388  -0.043423  0.000509  3.922994  0.002
C  C85  1  0.69130094  0.50426805  0.34083055  1  -0.057201  0.003004  -0.006361  -0.043223  0.000508  3.922719  0.002
C  C86  1  0.16202796  0.50615870  0.64215413  1  0.004037  0.007662  -0.074322  -0.112864  0.003704  3.912367  0.005
C  C87  1  0.83798907  0.49385528  0.35784713  1  0.003577  0.007662  -0.074335  -0.112984  0.003704  3.911999  0.005
C  C88  1  0.09687890  0.52170303  0.71126242  1  0.02577  -7e-06  0.002584  -0.004734  -0.001388  3.912123  -0.001
C  C89  1  0.90313976  0.47831247  0.28873257  1  0.025604  -1e-05  0.002783  -0.004629  -0.001391  3.911592  -0.001
C  C90  1  0.18056967  0.52289646  0.80148154  1  -0.106471  0.018848  -0.01764  -0.070243  0.009661  3.979563  0.014
C  C91  1  0.81943646  0.47712036  0.19851345  1  -0.106071  0.018842  -0.01767  -0.070176  0.009658  3.979345  0.014
C  C92  1  0.32821560  0.51522516  0.81876626  1  0.039331  -0.000163  -0.082685  -0.114977  -0.000939  3.957736  0.0
C  C93  1  0.67179954  0.48479863  0.18123929  1  0.039309  -0.000165  -0.082676  -0.114902  -0.000942  3.957514  0.0
N  N94  1  0.81018699  0.34994515  0.90214107  1  -1.197431  0.050913  -0.31928  -0.251633  0.025538  3.549508  0.05
N  N95  1  0.18981395  0.65004206  0.09785827  1  -1.197542  0.050899  -0.319366  -0.251798  0.025531  3.549299  0.05
N  N96  1  0.81738534  0.65836426  0.93243533  1  -1.204867  0.052472  -0.330338  -0.250378  0.028342  3.565289  0.045
N  N97  1  0.18261098  0.34164028  0.06755482  1  -1.204709  0.052475  -0.330499  -0.250684  0.028343  3.565305  0.045
N  N98  1  0.63090235  0.69704003  0.59212558  1  -1.207659  0.050605  -0.331302  -0.269377  0.026795  3.599252  0.046
N  N99  1  0.36910654  0.30295417  0.40789590  1  -1.206795  0.050611  -0.331179  -0.269211  0.0268  3.599243  0.046
O  O100  1  0.98534962  0.54104633  0.86516867  1  -1.152038  0.091384  -0.295766  -0.542315  0.047749  2.52267  0.073
O  O101  1  0.01464399  0.45895062  0.13483540  1  -1.151832  0.09139  -0.295673  -0.542144  0.047749  2.522429  0.073
O  O102  1  0.83181044  0.45002388  0.66186272  1  -1.135569  0.048357  -0.308819  -0.532289  0.024482  2.122341  0.041
O  O103  1  0.16822702  0.55000479  0.33813265  1  -1.135398  0.048352  -0.308686  -0.532129  0.024478  2.121412  0.041
O  O104  1  0.91545897  0.61941062  0.67776441  1  -1.127224  0.086213  -0.322533  -0.554345  0.044701  2.207952  0.07
O  O105  1  0.08457631  0.38061197  0.32223713  1  -1.126965  0.086223  -0.322524  -0.554377  0.044714  2.207912  0.07
O  O106  1  0.19216001  0.50864270  0.95630511  1  -1.159696  0.105987  -0.304596  -0.558088  0.055387  2.511841  0.089
O  O107  1  0.80782269  0.49135104  0.04369202  1  -1.159814  0.105964  -0.304548  -0.558069  0.055375  2.511776  0.089
O  O108  1  0.49041718  0.45661815  0.58948652  1  -1.153158  0.075674  -0.315358  -0.569016  0.038312  2.422455  0.058
O  O109  1  0.50961948  0.54338707  0.41052630  1  -1.152792  0.075658  -0.315387  -0.569082  0.038312  2.422813  0.058
O  O110  1  0.26448476  0.45891333  0.50205075  1  -1.132957  0.101448  -0.29826  -0.531633  0.053314  2.358766  0.086
O  O111  1  0.73552738  0.54109603  0.49795692  1  -1.133223  0.101458  -0.298298  -0.531733  0.053319  2.359031  0.086
O  O112  1  0.59388361  0.46185181  0.85611773  1  -1.1236  0.123627  -0.31529  -0.534856  0.063494  2.297444  0.103
O  O113  1  0.40610182  0.53813138  0.14388634  1  -1.123795  0.123647  -0.315227  -0.534917  0.063498  2.297516  0.103
O  O114  1  0.65945817  0.55999586  0.74948796  1  -1.163923  0.065356  -0.300915  -0.570137  0.034237  2.417417  0.055
O  O115  1  0.34055780  0.44001510  0.25053075  1  -1.16361  0.065364  -0.301039  -0.570286  0.034244  2.417392  0.055
