# generated using pymatgen
data_H16PbC27(NO)4
_symmetry_space_group_name_H-M   'P 1'
_cell_length_a   9.22316145
_cell_length_b   9.17929681
_cell_length_c   15.53296457
_cell_angle_alpha   101.52884064
_cell_angle_beta   91.52138068
_cell_angle_gamma   111.88588067
_symmetry_Int_Tables_number   1
_chemical_formula_structural   H16PbC27(NO)4
_chemical_formula_sum   'H32 Pb2 C54 N8 O8'
_cell_volume   1188.24807888
_cell_formula_units_Z   2
loop_
 _symmetry_equiv_pos_site_id
 _symmetry_equiv_pos_as_xyz
  1  'x, y, z'
loop_
 _atom_site_type_symbol
 _atom_site_label
 _atom_site_symmetry_multiplicity
 _atom_site_fract_x
 _atom_site_fract_y
 _atom_site_fract_z
 _atom_site_occupancy
 _atom_site_hle17_bader_spin_density
 _atom_site_hle17_ddec_charge
 _atom_site_hle17_ddec_spin_density
 _atom_site_hle17_ddec_sum_bond_order
 _atom_site_hle17_magmom
 _atom_site_hse06_10hf_bader_spin_density
 _atom_site_hse06_10hf_ddec_charge
 _atom_site_hse06_10hf_ddec_spin_density
 _atom_site_hse06_10hf_ddec_sum_bond_order
 _atom_site_hse06_10hf_magmom
 _atom_site_hse06_bader_spin_density
 _atom_site_hse06_ddec_charge
 _atom_site_hse06_ddec_spin_density
 _atom_site_hse06_ddec_sum_bond_order
 _atom_site_hse06_magmom
 _atom_site_pbe_bader_spin_density
 _atom_site_pbe_cm5_charge
 _atom_site_pbe_ddec_charge
 _atom_site_pbe_ddec_spin_density
 _atom_site_pbe_ddec_sum_bond_order
 _atom_site_pbe_magmom
H  H0  1  0.38682136  0.69338130  0.93230039  1  0  0.097244  0  0.959436  0  0  0.10486  0  1.023986  0  0  0.107961  0  1.022652  0  0  0.102291  0.10263  0  1.024963  0
H  H1  1  0.61318424  0.30661688  0.06770638  1  0  0.097329  0  0.959378  0  0  0.104924  0  1.023939  0  0  0.108027  0  1.0226  0  0  0.102296  0.102688  0  1.024926  0
H  H2  1  0.55077233  0.90515776  0.85699584  1  0  0.084446  0  0.969179  0  0  0.094287  0  1.029215  0  0  0.097006  0  1.029483  0  0  0.096988  0.092386  0  1.02909  0
H  H3  1  0.44924072  0.09482926  0.14300456  1  0  0.084477  0  0.969238  0  0  0.094366  0  1.029228  0  0  0.097083  0  1.029507  0  0  0.097035  0.092463  0  1.029113  0
H  H4  1  0.80643011  0.11647572  0.93678932  1  0  0.099048  0  0.951805  0  0  0.108249  0  1.014804  0  0  0.11211  0  1.011427  0  0  0.103981  0.105452  0  1.01724  0
H  H5  1  0.19358865  0.88350385  0.06320769  1  0  0.099059  0  0.95182  0  0  0.108324  0  1.014743  0  0  0.112195  0  1.011348  0  0  0.104017  0.105496  0  1.01721  0
H  H6  1  0.72701691  0.90592488  0.16241377  1  0  0.105947  0  0.948702  0  0  0.111739  0  1.016603  0  0  0.116486  0  1.011889  0  0  0.103615  0.108293  0  1.020032  0
H  H7  1  0.27299026  0.09408294  0.83759093  1  0  0.105993  0  0.948677  0  0  0.11173  0  1.016628  0  0  0.116478  0  1.011911  0  0  0.103589  0.108284  0  1.020054  0
H  H8  1  0.46939333  0.49453364  0.36910369  1  0  0.073108  0  0.930203  0  0  0.084888  0  0.990306  0  0  0.087474  0  0.987839  0  0  0.117932  0.082917  0  0.992243  0
H  H9  1  0.53059437  0.50545513  0.63089602  1  0  0.073174  0  0.930194  0  0  0.084898  0  0.990349  0  0  0.08752  0  0.987841  0  0  0.117977  0.082927  0  0.992285  0
H  H10  1  0.47039689  0.60880936  0.53042401  1  0  0.095685  0  0.981357  0  0  0.107225  0  1.041462  0  0  0.109383  0  1.04171  0  0  0.106487  0.105693  0  1.041349  0
H  H11  1  0.52958627  0.39116496  0.46957719  1  0  0.095687  0  0.981221  0  0  0.107234  0  1.041317  0  0  0.109374  0  1.041595  0  0  0.106495  0.105702  0  1.041198  0
H  H12  1  0.25615626  0.69799307  0.57854490  1  0  0.098655  0  0.921853  0  0  0.115261  0  0.972017  0  0  0.11812  0  0.970284  0  0  0.112843  0.113136  0  0.973414  0
H  H13  1  0.74382981  0.30198852  0.42146039  1  0  0.098694  0  0.921813  0  0  0.115262  0  0.972032  0  0  0.118123  0  0.970298  0  0  0.112885  0.113139  0  0.973423  0
H  H14  1  0.01549662  0.50719101  0.06670411  1  0  0.089463  0  0.948781  0  0  0.097218  0  1.014001  0  0  0.100139  0  1.010777  0  0  0.123409  0.095027  0  1.016459  0
H  H15  1  0.98451850  0.49281783  0.93329821  1  0  0.08942  0  0.94876  0  0  0.097145  0  1.014057  0  0  0.100069  0  1.010828  0  0  0.123389  0.094952  0  1.016517  0
H  H16  1  0.80040254  0.60994188  0.08921829  1  0  0.130295  0  0.947731  0  0  0.138091  0  1.007615  0  0  0.141812  0  1.006135  0  0  0.115726  0.135375  0  1.00888  0
H  H17  1  0.19960920  0.39005848  0.91077979  1  0  0.130332  0  0.947612  0  0  0.138091  0  1.007532  0  0  0.141815  0  1.006046  0  0  0.115708  0.135371  0  1.008804  0
H  H18  1  0.74137760  0.69360197  0.24459478  1  0  0.120979  0  0.941637  0  0  0.12933  0  1.00323  0  0  0.133457  0  0.99922  0  0  0.112539  0.126255  0  1.00624  0
H  H19  1  0.25862429  0.30640102  0.75540222  1  0  0.121068  0  0.941612  0  0  0.12941  0  1.003204  0  0  0.133521  0  0.999213  0  0  0.112578  0.126338  0  1.006212  0
H  H20  1  0.93611476  0.89545434  0.69958739  1  0  0.10423  0  0.977251  0  0  0.112726  0  1.042709  0  0  0.116839  0  1.039018  0  0  0.102227  0.10973  0  1.045456  0
H  H21  1  0.06388721  0.10456810  0.30041252  1  0  0.104155  0  0.977425  0  0  0.112701  0  1.042798  0  0  0.116811  0  1.039111  0  0  0.102198  0.109704  0  1.045551  0
H  H22  1  0.82373816  0.04057805  0.80582300  1  0  0.089505  0  0.972083  0  0  0.101396  0  1.031398  0  0  0.103193  0  1.031981  0  0  0.103044  0.100075  0  1.031112  0
H  H23  1  0.17624093  0.95942779  0.19416960  1  0  0.089451  0  0.972084  0  0  0.101339  0  1.0314  0  0  0.103136  0  1.031984  0  0  0.103025  0.10002  0  1.031108  0
H  H24  1  0.60774395  0.12274107  0.75774877  1  0  0.106396  0  0.954837  0  0  0.115649  0  1.015305  0  0  0.118679  0  1.013698  0  0  0.103504  0.113408  0  1.016572  0
H  H25  1  0.39223153  0.87725273  0.24224497  1  0  0.106375  0  0.954733  0  0  0.115675  0  1.015183  0  0  0.118705  0  1.013572  0  0  0.103464  0.113434  0  1.016449  0
H  H26  1  0.51138380  0.05428047  0.59925831  1  0  0.086093  0  0.963069  0  0  0.100608  0  1.017567  0  0  0.10307  0  1.016849  0  0  0.099043  0.098831  0  1.018205  0
H  H27  1  0.48858900  0.94570119  0.40073012  1  0  0.086018  0  0.963224  0  0  0.100526  0  1.017727  0  0  0.102981  0  1.017008  0  0  0.098988  0.098747  0  1.018367  0
H  H28  1  0.63083262  0.90782195  0.48745155  1  0  0.089231  0  0.978237  0  0  0.096575  0  1.04701  0  0  0.10012  0  1.043964  0  0  0.098061  0.094021  0  1.049272  0
H  H29  1  0.36916136  0.09217753  0.51254302  1  0  0.089284  0  0.978119  0  0  0.096622  0  1.046904  0  0  0.100164  0  1.04386  0  0  0.098085  0.094067  0  1.049165  0
H  H30  1  0.03555558  0.78958635  0.60036024  1  0  0.315245  0  0.852566  0  0  0.309284  0  0.893874  0  0  0.315641  0  0.889461  0  0  0.34118  0.304724  0  0.89718  0
H  H31  1  0.96443415  0.21041576  0.39964298  1  0  0.315215  0  0.852584  0  0  0.309238  0  0.893909  0  0  0.315594  0  0.889497  0  0  0.341148  0.304679  0  0.897214  0
Pb  Pb32  1  0.25532522  0.38351315  0.16232691  1  0  1.113003  0  1.595331  0  0  0.914702  0  2.001303  0  0  0.971919  0  1.96472  0  0  0.580635  0.87403  0  2.026546  0
Pb  Pb33  1  0.74467828  0.61647164  0.83767313  1  0  1.112956  0  1.595464  0  0  0.914681  0  2.001424  0  0  0.971879  0  1.964874  0  0  0.5806  0.873991  0  2.026682  0
C  C34  1  0.44705529  0.66259813  0.09809725  1  0  0.621078  0  3.929559  0  0  0.57511  0  4.214521  0  0  0.609266  0  4.209422  0  0  0.201275  0.552013  0  4.217002  0
C  C35  1  0.55295969  0.33739624  0.90191110  1  0  0.620713  0  3.930053  0  0  0.574802  0  4.214936  0  0  0.608961  0  4.209846  0  0  0.201134  0.551709  0  4.217408  0
C  C36  1  0.54719843  0.78587467  0.05152400  1  0  -0.066723  0  3.767252  0  0  -0.04254  0  4.00045  0  0  -0.052184  0  4.024478  0  0  -0.018768  -0.036466  0  3.984308  0
C  C37  1  0.45280556  0.21410289  0.94848035  1  0  -0.067041  0  3.767234  0  0  -0.042911  0  4.000477  0  0  -0.052557  0  4.024507  0  0  -0.018873  -0.036838  0  3.984329  0
C  C38  1  0.49842231  0.78555856  0.96517555  1  0  -0.072542  0  3.760784  0  0  -0.094505  0  4.002965  0  0  -0.093325  0  4.024464  0  0  -0.080383  -0.094885  0  3.988249  0
C  C39  1  0.50158328  0.21443961  0.03483058  1  0  -0.07256  0  3.760557  0  0  -0.094504  0  4.002723  0  0  -0.093325  0  4.024224  0  0  -0.080401  -0.09488  0  3.988019  0
C  C40  1  0.59085776  0.90364158  0.92333305  1  0  -0.121892  0  3.852329  0  0  -0.125185  0  4.099194  0  0  -0.132571  0  4.125674  0  0  -0.096751  -0.120359  0  4.081198  0
C  C41  1  0.40915640  0.09634543  0.07666864  1  0  -0.121866  0  3.852284  0  0  -0.125218  0  4.099148  0  0  -0.132609  0  4.125627  0  0  -0.096729  -0.120392  0  4.081142  0
C  C42  1  0.73257563  0.02144957  0.96718838  1  0  -0.053797  0  3.721388  0  0  -0.082765  0  3.971864  0  0  -0.080307  0  3.990539  0  0  -0.077164  -0.084001  0  3.959071  0
C  C43  1  0.26743995  0.97854105  0.03281375  1  0  -0.05382  0  3.721541  0  0  -0.082869  0  3.972029  0  0  -0.080417  0  3.990701  0  0  -0.077281  -0.084052  0  3.95927  0
C  C44  1  0.78284829  0.02177672  0.05312993  1  0  -0.055245  0  3.747318  0  0  -0.030331  0  3.979261  0  0  -0.039032  0  4.001554  0  0  -0.016707  -0.024923  0  3.964325  0
C  C45  1  0.21715335  0.97821423  0.94687403  1  0  -0.055354  0  3.747551  0  0  -0.030389  0  3.979421  0  0  -0.039082  0  4.001703  0  0  -0.016671  -0.025058  0  3.964577  0
C  C46  1  0.93632343  0.14751692  0.09929620  1  0  0.627024  0  3.925221  0  0  0.58174  0  4.208409  0  0  0.615821  0  4.203468  0  0  0.199986  0.558693  0  4.210807  0
C  C47  1  0.06368495  0.85247749  0.90070566  1  0  0.627113  0  3.925237  0  0  0.581783  0  4.208458  0  0  0.615859  0  4.203514  0  0  0.199936  0.558758  0  4.210859  0
C  C48  1  0.68906405  0.90466484  0.09519638  1  0  -0.061018  0  3.686084  0  0  -0.09667  0  3.93309  0  0  -0.093373  0  3.950456  0  0  -0.073757  -0.098478  0  3.921281  0
C  C49  1  0.31093221  0.09532623  0.90480754  1  0  -0.060825  0  3.686082  0  0  -0.096407  0  3.933  0  0  -0.093112  0  3.950362  0  0  -0.073701  -0.098198  0  3.92123  0
C  C50  1  0.37712170  0.53527579  0.39242342  1  0  0.127308  0  3.728908  0  0  0.092443  0  3.990339  0  0  0.099939  0  4.00661  0  0  0.053632  0.087563  0  3.979269  0
C  C51  1  0.62286959  0.46471655  0.60757738  1  0  0.127111  0  3.729022  0  0  0.092308  0  3.990426  0  0  0.099776  0  4.00669  0  0  0.053587  0.087428  0  3.979355  0
C  C52  1  0.37681322  0.59781987  0.48259135  1  0  -0.109433  0  3.750693  0  0  -0.124166  0  4.009873  0  0  -0.128943  0  4.029997  0  0  -0.08377  -0.121089  0  3.996269  0
C  C53  1  0.62317312  0.40216532  0.51741114  1  0  -0.109284  0  3.75041  0  0  -0.124  0  4.00956  0  0  -0.128772  0  4.029676  0  0  -0.083689  -0.12092  0  3.99596  0
C  C54  1  0.25819434  0.64865222  0.50882092  1  0  -0.042294  0  3.704182  0  0  -0.072081  0  3.962446  0  0  -0.069237  0  3.97827  0  0  -0.069141  -0.07377  0  3.951607  0
C  C55  1  0.74179032  0.35133422  0.49118106  1  0  -0.042351  0  3.704106  0  0  -0.072179  0  3.962391  0  0  -0.069333  0  3.978208  0  0  -0.069298  -0.073868  0  3.951556  0
C  C56  1  0.14359421  0.64081756  0.44435676  1  0  -0.038424  0  3.827043  0  0  -0.02816  0  4.072319  0  0  -0.030285  0  4.094625  0  0  -0.005361  -0.026895  0  4.057355  0
C  C57  1  0.85639745  0.35917844  0.55564576  1  0  -0.038464  0  3.827068  0  0  -0.02806  0  4.072161  0  0  -0.030185  0  4.094468  0  0  -0.005235  -0.026796  0  4.0572  0
C  C58  1  0.15478906  0.57921117  0.35391603  1  0  0.138781  0  3.750042  0  0  0.127397  0  3.999246  0  0  0.132298  0  4.019875  0  0  0.121426  0.124036  0  3.985358  0
C  C59  1  0.84521437  0.42080394  0.64608304  1  0  0.138878  0  3.749956  0  0  0.127546  0  3.999075  0  0  0.132448  0  4.019701  0  0  0.121469  0.124184  0  3.985188  0
C  C60  1  0.04911413  0.58188282  0.28341740  1  0  0.125016  0  3.744744  0  0  0.11297  0  3.991298  0  0  0.11753  0  4.01338  0  0  0.119196  0.10994  0  3.976396  0
C  C61  1  0.95088396  0.41813243  0.71658356  1  0  0.125105  0  3.744469  0  0  0.112964  0  3.991183  0  0  0.117525  0  4.013267  0  0  0.119216  0.109934  0  3.976275  0
C  C62  1  0.98808330  0.54658899  0.13284216  1  0  0.150725  0  3.66259  0  0  0.113329  0  3.919602  0  0  0.121937  0  3.935418  0  0  0.065425  0.107669  0  3.908913  0
C  C63  1  0.01192806  0.45341868  0.86715741  1  0  0.150785  0  3.66261  0  0  0.113374  0  3.91969  0  0  0.121986  0  3.935504  0  0  0.065489  0.107714  0  3.908996  0
C  C64  1  0.86714893  0.60407753  0.14643193  1  0  -0.103442  0  3.691901  0  0  -0.115722  0  3.946142  0  0  -0.12201  0  3.965703  0  0  -0.072288  -0.111769  0  3.933128  0
C  C65  1  0.13286037  0.39592772  0.85356541  1  0  -0.103362  0  3.692015  0  0  -0.115576  0  3.946192  0  0  -0.121866  0  3.965753  0  0  -0.072256  -0.111618  0  3.933171  0
C  C66  1  0.83560527  0.64990534  0.23199748  1  0  -0.035782  0  3.660314  0  0  -0.059371  0  3.903811  0  0  -0.057345  0  3.921136  0  0  -0.059167  -0.060378  0  3.892003  0
C  C67  1  0.16439768  0.35009760  0.76799824  1  0  -0.0361  0  3.660657  0  0  -0.059681  0  3.904127  0  0  -0.057637  0  3.921459  0  0  -0.059325  -0.060689  0  3.892312  0
C  C68  1  0.92854940  0.64142579  0.30296107  1  0  -0.025527  0  3.777805  0  0  -0.013052  0  4.009106  0  0  -0.016205  0  4.033248  0  0  0.001604  -0.011116  0  3.992839  0
C  C69  1  0.07145924  0.35859161  0.69703639  1  0  -0.025563  0  3.777682  0  0  -0.013061  0  4.008994  0  0  -0.016218  0  4.033135  0  0  0.001631  -0.01112  0  3.992714  0
C  C70  1  0.91548663  0.69750005  0.39440890  1  0  0.103013  0  3.842512  0  0  0.097698  0  4.100846  0  0  0.099568  0  4.124884  0  0  0.08824  0.096434  0  4.084611  0
C  C71  1  0.08452505  0.30251968  0.60558629  1  0  0.102948  0  3.842608  0  0  0.0977  0  4.100881  0  0  0.099571  0  4.124921  0  0  0.088173  0.096436  0  4.084643  0
C  C72  1  0.02058493  0.69651426  0.46097870  1  0  0.098993  0  3.824502  0  0  0.080723  0  4.085029  0  0  0.082504  0  4.108772  0  0  0.088689  0.079528  0  4.068993  0
C  C73  1  0.97941259  0.30349128  0.53902112  1  0  0.098992  0  3.824471  0  0  0.080583  0  4.085051  0  0  0.082362  0  4.108797  0  0  0.088632  0.079389  0  4.069013  0
C  C74  1  0.85812962  0.80855734  0.51777134  1  0  0.342259  0  3.767295  0  0  0.310803  0  4.045543  0  0  0.325262  0  4.060073  0  0  0.219597  0.301356  0  4.035314  0
C  C75  1  0.14187228  0.19145660  0.48222822  1  0  0.342399  0  3.767422  0  0  0.310903  0  4.045669  0  0  0.325362  0  4.060198  0  0  0.219636  0.301455  0  4.035443  0
C  C76  1  0.78972849  0.89068607  0.58440327  1  0  -0.022789  0  3.830689  0  0  -0.00355  0  4.066624  0  0  -0.00677  0  4.09003  0  0  -0.015995  -0.001545  0  4.050647  0
C  C77  1  0.21026067  0.10932323  0.41559176  1  0  -0.023029  0  3.83124  0  0  -0.003739  0  4.067137  0  0  -0.006959  0  4.090543  0  0  -0.015956  -0.001734  0  4.05116  0
C  C78  1  0.84310218  0.92787439  0.67478607  1  0  -0.109505  0  3.736692  0  0  -0.133807  0  3.987068  0  0  -0.135814  0  4.008747  0  0  -0.090871  -0.132163  0  3.97229  0
C  C79  1  0.15689158  0.07214094  0.32521358  1  0  -0.109365  0  3.736946  0  0  -0.133699  0  3.987262  0  0  -0.135705  0  4.008939  0  0  -0.090921  -0.132058  0  3.972492  0
C  C80  1  0.77768022  0.01027178  0.73654145  1  0  -0.077976  0  3.791303  0  0  -0.088658  0  4.040868  0  0  -0.092727  0  4.066028  0  0  -0.091028  -0.085951  0  4.02377  0
C  C81  1  0.22230358  0.98973764  0.26345483  1  0  -0.077779  0  3.791065  0  0  -0.088444  0  4.040672  0  0  -0.092516  0  4.065841  0  0  -0.090893  -0.085736  0  4.023573  0
C  C82  1  0.65771710  0.05552019  0.70996391  1  0  -0.060246  0  3.730248  0  0  -0.076159  0  3.97931  0  0  -0.076606  0  3.999411  0  0  -0.08852  -0.0756  0  3.965514  0
C  C83  1  0.34226246  0.94447841  0.29003236  1  0  -0.060468  0  3.729958  0  0  -0.076478  0  3.979121  0  0  -0.076927  0  3.999219  0  0  -0.088579  -0.075921  0  3.96533  0
C  C84  1  0.60383496  0.01767798  0.62013013  1  0  -0.076  0  3.780791  0  0  -0.087768  0  4.030026  0  0  -0.091041  0  4.052652  0  0  -0.09525  -0.085545  0  4.01448  0
C  C85  1  0.39615081  0.98232535  0.37986739  1  0  -0.075677  0  3.780713  0  0  -0.087399  0  4.029935  0  0  -0.090661  0  4.052553  0  0  -0.095083  -0.085177  0  4.014388  0
C  C86  1  0.66971325  0.93700099  0.55775065  1  0  -0.095005  0  3.752588  0  0  -0.118715  0  4.003955  0  0  -0.11972  0  4.024652  0  0  -0.090875  -0.117754  0  3.989745  0
C  C87  1  0.33026913  0.06300482  0.44224520  1  0  -0.095152  0  3.752845  0  0  -0.118898  0  4.004226  0  0  -0.119901  0  4.024918  0  0  -0.090958  -0.117932  0  3.990013  0
N  N88  1  0.26893326  0.52524740  0.33085348  1  0  -0.338934  0  3.236316  0  0  -0.273102  0  3.490271  0  0  -0.290436  0  3.511036  0  0  -0.292049  -0.261217  0  3.47606  0
N  N89  1  0.73106472  0.47475934  0.66914585  1  0  -0.338922  0  3.236295  0  0  -0.273116  0  3.490213  0  0  -0.290453  0  3.510992  0  0  -0.292117  -0.261231  0  3.476003  0
N  N90  1  0.07472387  0.53402727  0.19884107  1  0  -0.321632  0  3.221349  0  0  -0.247686  0  3.469728  0  0  -0.266724  0  3.491554  0  0  -0.285574  -0.234752  0  3.454764  0
N  N91  1  0.92527691  0.46598918  0.80116328  1  0  -0.321622  0  3.221481  0  0  -0.247702  0  3.469973  0  0  -0.26674  0  3.491796  0  0  -0.285582  -0.234769  0  3.455007  0
N  N92  1  0.98189154  0.76735686  0.53859854  1  0  -0.367649  0  3.37862  0  0  -0.314469  0  3.614577  0  0  -0.330969  0  3.628178  0  0  -0.376043  -0.303311  0  3.605228  0
N  N93  1  0.01811200  0.23265581  0.46139960  1  0  -0.367623  0  3.37851  0  0  -0.314374  0  3.614465  0  0  -0.330869  0  3.628063  0  0  -0.375959  -0.303215  0  3.605118  0
N  N94  1  0.81531554  0.76656935  0.43057362  1  0  -0.433947  0  2.914345  0  0  -0.410648  0  3.184811  0  0  -0.424437  0  3.197951  0  0  -0.338826  -0.40118  0  3.175635  0
N  N95  1  0.18469038  0.23344685  0.56941981  1  0  -0.433851  0  2.914474  0  0  -0.410569  0  3.184933  0  0  -0.424359  0  3.198077  0  0  -0.338783  -0.401101  0  3.175757  0
O  O96  1  0.32005396  0.55175361  0.05456965  1  0  -0.622672  0  1.950582  0  0  -0.553889  0  2.180135  0  0  -0.583308  0  2.174308  0  0  -0.304808  -0.533209  0  2.183317  0
O  O97  1  0.67996057  0.44824801  0.94543633  1  0  -0.622451  0  1.95072  0  0  -0.553692  0  2.180268  0  0  -0.583097  0  2.174416  0  0  -0.30468  -0.532977  0  2.183362  0
O  O98  1  0.48954784  0.67147621  0.17813394  1  0  -0.640976  0  1.922202  0  0  -0.583228  0  2.143584  0  0  -0.609948  0  2.135812  0  0  -0.318562  -0.564364  0  2.14823  0
O  O99  1  0.51048773  0.32851280  0.82186948  1  0  -0.640794  0  1.922566  0  0  -0.583058  0  2.143901  0  0  -0.609776  0  2.136135  0  0  -0.318498  -0.564195  0  2.148536  0
O  O100  1  0.97049452  0.16326033  0.18141931  1  0  -0.654754  0  1.910697  0  0  -0.600072  0  2.130844  0  0  -0.626227  0  2.122666  0  0  -0.333928  -0.581565  0  2.13578  0
O  O101  1  0.02950198  0.83675622  0.81858566  1  0  -0.654854  0  1.910513  0  0  -0.600164  0  2.130687  0  0  -0.626318  0  2.122514  0  0  -0.333916  -0.581655  0  2.135613  0
O  O102  1  0.02736031  0.23487283  0.05204285  1  0  -0.624573  0  1.952781  0  0  -0.557996  0  2.181664  0  0  -0.587974  0  2.17703  0  0  -0.307018  -0.536927  0  2.184002  0
O  O103  1  0.97265407  0.76512026  0.94795955  1  0  -0.624551  0  1.952931  0  0  -0.557948  0  2.181792  0  0  -0.587949  0  2.177211  0  0  -0.306969  -0.536879  0  2.184117  0
