# generated using pymatgen
data_AgH8C14(NO)3
_symmetry_space_group_name_H-M   'P 1'
_cell_length_a   8.38152309
_cell_length_b   8.46518292
_cell_length_c   10.41415346
_cell_angle_alpha   110.35430090
_cell_angle_beta   97.12149608
_cell_angle_gamma   101.04066138
_symmetry_Int_Tables_number   1
_chemical_formula_structural   AgH8C14(NO)3
_chemical_formula_sum   'Ag2 H16 C28 N6 O6'
_cell_volume   665.19449751
_cell_formula_units_Z   2
loop_
 _symmetry_equiv_pos_site_id
 _symmetry_equiv_pos_as_xyz
  1  'x, y, z'
loop_
 _atom_site_type_symbol
 _atom_site_label
 _atom_site_symmetry_multiplicity
 _atom_site_fract_x
 _atom_site_fract_y
 _atom_site_fract_z
 _atom_site_occupancy
 _atom_site_hle17_bader_spin_density
 _atom_site_hle17_ddec_charge
 _atom_site_hle17_ddec_spin_density
 _atom_site_hle17_ddec_sum_bond_order
 _atom_site_hle17_magmom
 _atom_site_hse06_10hf_bader_spin_density
 _atom_site_hse06_10hf_ddec_charge
 _atom_site_hse06_10hf_ddec_spin_density
 _atom_site_hse06_10hf_ddec_sum_bond_order
 _atom_site_hse06_10hf_magmom
 _atom_site_hse06_bader_spin_density
 _atom_site_hse06_ddec_charge
 _atom_site_hse06_ddec_spin_density
 _atom_site_hse06_ddec_sum_bond_order
 _atom_site_hse06_magmom
 _atom_site_pbe_bader_spin_density
 _atom_site_pbe_cm5_charge
 _atom_site_pbe_ddec_charge
 _atom_site_pbe_ddec_spin_density
 _atom_site_pbe_ddec_sum_bond_order
 _atom_site_pbe_magmom
Ag  Ag0  1  0.80984655  0.42719246  0.31983085  1  0  0.529001  0  1.399491  0  0  0.37921  0  1.835381  0  0  0.40734  0  1.79261  0  0  0.467135  0.360256  0  1.865279  0
Ag  Ag1  1  0.19014951  0.57284198  0.68017373  1  0  0.529058  0  1.399492  0  0  0.379251  0  1.835413  0  0  0.407377  0  1.792644  0  0  0.467188  0.360295  0  1.865312  0
H  H2  1  0.08402032  0.25350791  0.22662354  1  0  0.087971  0  0.966409  0  0  0.091622  0  1.038052  0  0  0.095391  0  1.03394  0  0  0.113257  0.088563  0  1.04152  0
H  H3  1  0.91597992  0.74650058  0.77340082  1  0  0.087831  0  0.966542  0  0  0.091462  0  1.038208  0  0  0.09524  0  1.034079  0  0  0.113214  0.088447  0  1.041645  0
H  H4  1  0.20392611  0.14152718  0.01237206  1  0  0.102937  0  0.952516  0  0  0.114889  0  1.008017  0  0  0.117249  0  1.008849  0  0  0.107209  0.113295  0  1.00734  0
H  H5  1  0.79606272  0.85847564  0.98764568  1  0  0.103058  0  0.952583  0  0  0.115063  0  1.00799  0  0  0.117379  0  1.008866  0  0  0.107313  0.113484  0  1.007301  0
H  H6  1  0.07257141  0.16216144  0.78866580  1  0  0.121482  0  0.957019  0  0  0.13081  0  1.016329  0  0  0.134191  0  1.013067  0  0  0.113377  0.128068  0  1.019209  0
H  H7  1  0.92744612  0.83785980  0.21133720  1  0  0.121417  0  0.957374  0  0  0.130792  0  1.016639  0  0  0.134174  0  1.013377  0  0  0.113379  0.128045  0  1.019523  0
H  H8  1  0.83351451  0.29750568  0.79128269  1  0  0.120892  0  0.949519  0  0  0.130816  0  1.010337  0  0  0.133884  0  1.009285  0  0  0.11161  0.128139  0  1.01208  0
H  H9  1  0.16649565  0.70251038  0.20872282  1  0  0.120967  0  0.949452  0  0  0.130874  0  1.010307  0  0  0.133957  0  1.009236  0  0  0.111584  0.128206  0  1.012015  0
H  H10  1  0.27355482  0.98572386  0.32717173  1  0  0.110652  0  0.975241  0  0  0.119762  0  1.038454  0  0  0.122313  0  1.038514  0  0  0.106923  0.117321  0  1.040392  0
H  H11  1  0.72643906  0.01429856  0.67283261  1  0  0.110659  0  0.975222  0  0  0.119777  0  1.038443  0  0  0.122328  0  1.038504  0  0  0.106952  0.117342  0  1.040387  0
H  H12  1  0.28545017  0.10932850  0.58265757  1  0  0.111551  0  0.957164  0  0  0.11915  0  1.018446  0  0  0.12303  0  1.014892  0  0  0.109426  0.116517  0  1.020449  0
H  H13  1  0.71455347  0.89068073  0.41735384  1  0  0.111659  0  0.957074  0  0  0.119243  0  1.018368  0  0  0.123124  0  1.014809  0  0  0.109465  0.116606  0  1.020364  0
H  H14  1  0.51646206  0.37716232  0.73337923  1  0  0.092654  0  0.979822  0  0  0.103182  0  1.04215  0  0  0.105499  0  1.042354  0  0  0.100825  0.101562  0  1.042048  0
H  H15  1  0.48356099  0.62283555  0.26662527  1  0  0.092649  0  0.979883  0  0  0.103212  0  1.042159  0  0  0.105532  0  1.042356  0  0  0.100842  0.101591  0  1.042061  0
H  H16  1  0.72030537  0.50471496  0.61687994  1  0  0.083104  0  0.947465  0  0  0.093605  0  1.011205  0  0  0.095535  0  1.00953  0  0  0.116396  0.092335  0  1.012327  0
H  H17  1  0.27969159  0.49530656  0.38311570  1  0  0.083119  0  0.947563  0  0  0.093637  0  1.011258  0  0  0.095566  0  1.009578  0  0  0.116451  0.092363  0  1.012381  0
C  C18  1  0.03389851  0.26115629  0.12763565  1  0  0.12  0  3.690096  0  0  0.088537  0  3.940961  0  0  0.095006  0  3.958222  0  0  0.044627  0.084162  0  3.929658  0
C  C19  1  0.96609294  0.73885944  0.87238844  1  0  0.120193  0  3.690094  0  0  0.088721  0  3.94092  0  0  0.095184  0  3.95819  0  0  0.044682  0.084307  0  3.929607  0
C  C20  1  0.09823591  0.19824849  0.00793898  1  0  -0.103328  0  3.717651  0  0  -0.113666  0  3.962814  0  0  -0.119687  0  3.984574  0  0  -0.07767  -0.109518  0  3.947962  0
C  C21  1  0.90175444  0.80177406  0.99206607  1  0  -0.103363  0  3.717473  0  0  -0.113715  0  3.96263  0  0  -0.119696  0  3.984406  0  0  -0.077725  -0.10958  0  3.947784  0
C  C22  1  0.02645557  0.21039692  0.88457739  1  0  -0.00085  0  3.692626  0  0  -0.021113  0  3.942298  0  0  -0.017357  0  3.958328  0  0  -0.064066  -0.023589  0  3.931595  0
C  C23  1  0.97354630  0.78963057  0.11544463  1  0  -0.000696  0  3.69224  0  0  -0.021084  0  3.942025  0  0  -0.017322  0  3.958035  0  0  -0.064066  -0.02356  0  3.931317  0
C  C24  1  0.89113292  0.28326428  0.88487219  1  0  -0.134313  0  3.664327  0  0  -0.152963  0  3.908721  0  0  -0.158997  0  3.928078  0  0  -0.072781  -0.148822  0  3.895979  0
C  C25  1  0.10886268  0.71675109  0.11513480  1  0  -0.13445  0  3.663664  0  0  -0.153073  0  3.908125  0  0  -0.159125  0  3.927474  0  0  -0.072784  -0.148921  0  3.895375  0
C  C26  1  0.83070571  0.34123959  0.00844263  1  0  0.238566  0  3.902661  0  0  0.234622  0  4.136068  0  0  0.242955  0  4.156243  0  0  0.114095  0.228917  0  4.122335  0
C  C27  1  0.16928231  0.65874639  0.99154649  1  0  0.23879  0  3.902217  0  0  0.234756  0  4.135663  0  0  0.243112  0  4.155798  0  0  0.114081  0.229042  0  4.121935  0
C  C28  1  0.69047947  0.41087924  0.01067370  1  0  -0.089261  0  3.788106  0  0  -0.091723  0  4.042291  0  0  -0.094613  0  4.069338  0  0  -0.006451  -0.090021  0  4.024861  0
C  C29  1  0.30949641  0.58907654  0.98931229  1  0  -0.089506  0  3.787074  0  0  -0.091945  0  4.041313  0  0  -0.094843  0  4.068367  0  0  -0.006514  -0.090241  0  4.023869  0
C  C30  1  0.56712721  0.46799981  0.00346707  1  0  -0.023366  0  4.032237  0  0  -0.017172  0  4.270452  0  0  -0.017565  0  4.296516  0  0  -0.024665  -0.017172  0  4.253972  0
C  C31  1  0.43289879  0.53196147  0.99649882  1  0  -0.023131  0  4.031015  0  0  -0.016898  0  4.269214  0  0  -0.017291  0  4.295289  0  0  -0.024428  -0.016898  0  4.252725  0
C  C32  1  0.49725037  0.03600862  0.06822945  1  0  -0.015416  0  4.020403  0  0  -0.01344  0  4.268131  0  0  -0.014207  0  4.295733  0  0  -0.025244  -0.012934  0  4.250059  0
C  C33  1  0.50272265  0.96397949  0.93176010  1  0  -0.015579  0  4.021188  0  0  -0.013647  0  4.268947  0  0  -0.014413  0  4.296545  0  0  -0.025368  -0.013142  0  4.250884  0
C  C34  1  0.49479158  0.10350820  0.19299975  1  0  -0.091281  0  3.749781  0  0  -0.091013  0  3.998736  0  0  -0.093529  0  4.024488  0  0  -0.008754  -0.090139  0  3.981558  0
C  C35  1  0.50521559  0.89650458  0.80701600  1  0  -0.091243  0  3.749763  0  0  -0.090947  0  3.998704  0  0  -0.093463  0  4.024451  0  0  -0.008734  -0.090074  0  3.981537  0
C  C36  1  0.49273750  0.17620062  0.33743819  1  0  0.24928  0  3.871347  0  0  0.248229  0  4.101032  0  0  0.256642  0  4.120433  0  0  0.118727  0.243059  0  4.087235  0
C  C37  1  0.50726546  0.82379090  0.66255683  1  0  0.24934  0  3.870377  0  0  0.248278  0  4.100083  0  0  0.256688  0  4.119488  0  0  0.118729  0.243109  0  4.086287  0
C  C38  1  0.37139840  0.09977138  0.39445796  1  0  -0.121431  0  3.646762  0  0  -0.139126  0  3.885249  0  0  -0.145601  0  3.906002  0  0  -0.07045  -0.137278  0  3.873262  0
C  C39  1  0.62859969  0.90022854  0.60553651  1  0  -0.121473  0  3.646557  0  0  -0.139206  0  3.885094  0  0  -0.145681  0  3.905852  0  0  -0.070472  -0.13737  0  3.873114  0
C  C40  1  0.37808473  0.17073133  0.53793505  1  0  0.013736  0  3.693755  0  0  -0.005272  0  3.943007  0  0  -0.001942  0  3.960147  0  0  -0.062629  -0.006789  0  3.930415  0
C  C41  1  0.62190962  0.82925171  0.46205266  1  0  0.013633  0  3.693764  0  0  -0.00537  0  3.943033  0  0  -0.00204  0  3.960173  0  0  -0.062685  -0.006872  0  3.930434  0
C  C42  1  0.50539358  0.31734862  0.62059625  1  0  -0.122153  0  3.726877  0  0  -0.13382  0  3.978838  0  0  -0.139822  0  3.99905  0  0  -0.081529  -0.12834  0  3.964153  0
C  C43  1  0.49461757  0.68264665  0.37939681  1  0  -0.122108  0  3.727031  0  0  -0.133797  0  3.978958  0  0  -0.139802  0  3.999165  0  0  -0.081482  -0.128324  0  3.964281  0
C  C44  1  0.62017196  0.38875290  0.55676552  1  0  0.140316  0  3.694943  0  0  0.10654  0  3.947369  0  0  0.113474  0  3.966393  0  0  0.048326  0.101972  0  3.93368  0
C  C45  1  0.37983284  0.61124545  0.44322707  1  0  0.140332  0  3.694858  0  0  0.10655  0  3.947302  0  0  0.113491  0  3.966319  0  0  0.048243  0.101982  0  3.933612  0
N  N46  1  0.90360811  0.33258144  0.12940331  1  0  -0.326023  0  3.289366  0  0  -0.244922  0  3.566469  0  0  -0.262696  0  3.579717  0  0  -0.334785  -0.232861  0  3.557438  0
N  N47  1  0.09638510  0.66740872  0.87059912  1  0  -0.326287  0  3.289155  0  0  -0.245069  0  3.566176  0  0  -0.262838  0  3.579404  0  0  -0.334858  -0.23301  0  3.557164  0
N  N48  1  0.61523257  0.32192281  0.41882225  1  0  -0.3352  0  3.250092  0  0  -0.257406  0  3.520715  0  0  -0.276133  0  3.536038  0  0  -0.330515  -0.243199  0  3.508824  0
N  N49  1  0.38476689  0.67806133  0.58116528  1  0  -0.335302  0  3.249729  0  0  -0.257486  0  3.520343  0  0  -0.276213  0  3.535658  0  0  -0.330521  -0.243271  0  3.508444  0
N  N50  1  0.03351804  0.79359939  0.53131202  1  0  0.688356  0  4.15815  0  0  0.734145  0  4.431049  0  0  0.763475  0  4.436296  0  0  0.088867  0.714105  0  4.426859  0
N  N51  1  0.96648898  0.20639241  0.46869496  1  0  0.68816  0  4.158461  0  0  0.733964  0  4.431445  0  0  0.763297  0  4.436689  0  0  0.088853  0.713926  0  4.427253  0
O  O52  1  0.92269639  0.67084340  0.54095920  1  0  -0.522848  0  1.859681  0  0  -0.494533  0  2.113808  0  0  -0.514945  0  2.102646  0  0  -0.222446  -0.479846  0  2.121694  0
O  O53  1  0.07732183  0.32913349  0.45903999  1  0  -0.522751  0  1.85958  0  0  -0.494605  0  2.11386  0  0  -0.515011  0  2.102691  0  0  -0.222472  -0.479913  0  2.121726  0
O  O54  1  0.05495850  0.78684928  0.41230379  1  0  -0.467435  0  1.765529  0  0  -0.465332  0  1.98798  0  0  -0.480397  0  1.981428  0  0  -0.192364  -0.454981  0  1.993027  0
O  O55  1  0.94502284  0.21312714  0.58767300  1  0  -0.467206  0  1.766273  0  0  -0.465097  0  1.988747  0  0  -0.480153  0  1.982195  0  0  -0.192276  -0.454755  0  1.993799  0
O  O56  1  0.11825492  0.91454660  0.64222700  1  0  -0.457637  0  1.760798  0  0  -0.45361  0  1.968869  0  0  -0.468499  0  1.962713  0  0  -0.186485  -0.442784  0  1.972904  0
O  O57  1  0.88173811  0.08543732  0.35774935  1  0  -0.457724  0  1.760167  0  0  -0.453646  0  1.968191  0  0  -0.468548  0  1.962046  0  0  -0.186556  -0.442812  0  1.972213  0
