# generated using pymatgen
data_BiH16C15S2I2N3O
_symmetry_space_group_name_H-M   'P 1'
_cell_length_a   8.76935335
_cell_length_b   9.46640719
_cell_length_c   12.51898738
_cell_angle_alpha   84.33829708
_cell_angle_beta   87.95949924
_cell_angle_gamma   84.37963095
_symmetry_Int_Tables_number   1
_chemical_formula_structural   BiH16C15S2I2N3O
_chemical_formula_sum   'Bi2 H32 C30 S4 I4 N6 O2'
_cell_volume   1028.85991088
_cell_formula_units_Z   2
loop_
 _symmetry_equiv_pos_site_id
 _symmetry_equiv_pos_as_xyz
  1  'x, y, z'
loop_
 _atom_site_type_symbol
 _atom_site_label
 _atom_site_symmetry_multiplicity
 _atom_site_fract_x
 _atom_site_fract_y
 _atom_site_fract_z
 _atom_site_occupancy
 _atom_site_hle17_bader_spin_density
 _atom_site_hle17_ddec_charge
 _atom_site_hle17_ddec_spin_density
 _atom_site_hle17_ddec_sum_bond_order
 _atom_site_hle17_magmom
 _atom_site_hse06_10hf_bader_spin_density
 _atom_site_hse06_10hf_ddec_charge
 _atom_site_hse06_10hf_ddec_spin_density
 _atom_site_hse06_10hf_ddec_sum_bond_order
 _atom_site_hse06_10hf_magmom
 _atom_site_hse06_bader_spin_density
 _atom_site_hse06_ddec_charge
 _atom_site_hse06_ddec_spin_density
 _atom_site_hse06_ddec_sum_bond_order
 _atom_site_hse06_magmom
 _atom_site_pbe_bader_spin_density
 _atom_site_pbe_cm5_charge
 _atom_site_pbe_ddec_charge
 _atom_site_pbe_ddec_spin_density
 _atom_site_pbe_ddec_sum_bond_order
 _atom_site_pbe_magmom
Bi  Bi0  1  0.52388300  0.53696004  0.81060912  1  0  0.985073  0  2.568324  0  0  0.836533  0  3.041965  0  0  0.898213  0  3.009895  0  0  0.493567  0.79478  0  3.06393  0
Bi  Bi1  1  0.47611769  0.46303802  0.18939029  1  0  0.985112  0  2.568305  0  0  0.836583  0  3.041931  0  0  0.898262  0  3.009862  0  0  0.493599  0.794828  0  3.063906  0
H  H2  1  0.80928483  0.01004207  0.56290373  1  0  0.084727  0  0.942543  0  0  0.098825  0  1.007473  0  0  0.100194  0  1.006733  0  0  0.108848  0.097855  0  1.007973  0
H  H3  1  0.19071586  0.98995600  0.43709568  1  0  0.08474  0  0.942476  0  0  0.098833  0  1.007433  0  0  0.100204  0  1.006692  0  0  0.10885  0.097865  0  1.007933  0
H  H4  1  0.62969445  0.95383105  0.52929264  1  0  0.086119  0  0.955897  0  0  0.103363  0  1.016894  0  0  0.104583  0  1.015822  0  0  0.103592  0.102463  0  1.017789  0
H  H5  1  0.37030499  0.04616808  0.47070672  1  0  0.086107  0  0.955904  0  0  0.103371  0  1.016893  0  0  0.104591  0  1.015822  0  0  0.103603  0.102469  0  1.017786  0
H  H6  1  0.72998441  0.89762037  0.35108073  1  0  0.049112  0  0.945943  0  0  0.059916  0  1.018197  0  0  0.060843  0  1.016957  0  0  0.086379  0.058499  0  1.02041  0
H  H7  1  0.27001514  0.10237769  0.64891871  1  0  0.049109  0  0.945963  0  0  0.059923  0  1.018213  0  0  0.060852  0  1.016971  0  0  0.086382  0.058504  0  1.020427  0
H  H8  1  0.77096612  0.07458140  0.37105127  1  0  0.067227  0  0.933061  0  0  0.081973  0  0.996343  0  0  0.081902  0  0.996907  0  0  0.099989  0.081647  0  0.996666  0
H  H9  1  0.22903355  0.92541560  0.62894905  1  0  0.067199  0  0.933161  0  0  0.081953  0  0.996442  0  0  0.081883  0  0.997006  0  0  0.09999  0.081624  0  0.996766  0
H  H10  1  0.11966541  0.75546452  0.39316359  1  0  0.071966  0  0.91725  0  0  0.088582  0  0.976145  0  0  0.088714  0  0.976432  0  0  0.104053  0.08836  0  0.976091  0
H  H11  1  0.88033415  0.24453355  0.60683825  1  0  0.072022  0  0.917188  0  0  0.088671  0  0.976054  0  0  0.088802  0  0.976343  0  0  0.104079  0.088448  0  0.976  0
H  H12  1  0.93301106  0.71304096  0.36184306  1  0  0.050726  0  0.961171  0  0  0.060744  0  1.037144  0  0  0.061851  0  1.035783  0  0  0.082599  0.059929  0  1.037979  0
H  H13  1  0.06698964  0.28695711  0.63815875  1  0  0.050719  0  0.961145  0  0  0.060775  0  1.037091  0  0  0.061881  0  1.035731  0  0  0.08261  0.059959  0  1.037924  0
H  H14  1  0.98150600  0.62505750  0.54935685  1  0  0.089666  0  0.952971  0  0  0.105417  0  1.016595  0  0  0.106695  0  1.01558  0  0  0.103424  0.104519  0  1.017214  0
H  H15  1  0.01849470  0.37494056  0.45064416  1  0  0.089679  0  0.953024  0  0  0.105435  0  1.016647  0  0  0.106714  0  1.015631  0  0  0.10342  0.104542  0  1.017262  0
H  H16  1  0.04147561  0.79119184  0.57782740  1  0  0.078711  0  0.927672  0  0  0.094914  0  0.990696  0  0  0.095488  0  0.990831  0  0  0.107229  0.094285  0  0.991167  0
H  H17  1  0.95852395  0.20880623  0.42217364  1  0  0.078726  0  0.927672  0  0  0.094945  0  0.990685  0  0  0.09552  0  0.99082  0  0  0.107225  0.094314  0  0.991157  0
H  H18  1  0.42467283  0.85454940  0.90276164  1  0  0.067684  0  0.967299  0  0  0.074342  0  1.036584  0  0  0.077109  0  1.034049  0  0  0.097528  0.072356  0  1.038322  0
H  H19  1  0.57532742  0.14545293  0.09723825  1  0  0.067687  0  0.967284  0  0  0.074341  0  1.036576  0  0  0.077108  0  1.034041  0  0  0.09753  0.072355  0  1.038313  0
H  H20  1  0.22690381  0.05796439  0.90700680  1  0  0.101709  0  0.976155  0  0  0.110938  0  1.040398  0  0  0.114432  0  1.038964  0  0  0.096847  0.107356  0  1.043354  0
H  H21  1  0.77309540  0.94203687  0.09299241  1  0  0.101679  0  0.976185  0  0  0.110904  0  1.040438  0  0  0.114386  0  1.039015  0  0  0.096828  0.10732  0  1.043392  0
H  H22  1  0.90406909  0.78350839  0.80228144  1  0  0.103535  0  0.982303  0  0  0.109066  0  1.052939  0  0  0.111982  0  1.052045  0  0  0.095492  0.106803  0  1.053959  0
H  H23  1  0.09593126  0.21649287  0.19771614  1  0  0.103562  0  0.982257  0  0  0.109068  0  1.052933  0  0  0.111984  0  1.052039  0  0  0.095513  0.106809  0  1.053952  0
H  H24  1  0.11867655  0.59495916  0.79714285  1  0  0.072378  0  0.961723  0  0  0.074785  0  1.037885  0  0  0.077751  0  1.035033  0  0  0.100317  0.07248  0  1.040024  0
H  H25  1  0.88132506  0.40504104  0.20285637  1  0  0.072384  0  0.961708  0  0  0.074776  0  1.037879  0  0  0.077751  0  1.035019  0  0  0.10032  0.072472  0  1.040019  0
H  H26  1  0.86174304  0.40903210  0.90520759  1  0  0.069708  0  0.964529  0  0  0.075426  0  1.034861  0  0  0.078289  0  1.032096  0  0  0.097982  0.072888  0  1.037791  0
H  H27  1  0.13825616  0.59096916  0.09478923  1  0  0.069684  0  0.964536  0  0  0.075429  0  1.034849  0  0  0.078295  0  1.032076  0  0  0.097991  0.072891  0  1.037779  0
H  H28  1  0.06728044  0.21364170  0.90872442  1  0  0.101125  0  0.99807  0  0  0.109986  0  1.063862  0  0  0.113718  0  1.062087  0  0  0.090579  0.107273  0  1.065484  0
H  H29  1  0.93271991  0.78635956  0.09127316  1  0  0.101179  0  0.998053  0  0  0.110039  0  1.063828  0  0  0.113773  0  1.062049  0  0  0.090597  0.107326  0  1.065448  0
H  H30  1  0.73806372  0.94936714  0.79795899  1  0  0.099775  0  0.988207  0  0  0.104304  0  1.061552  0  0  0.107443  0  1.060693  0  0  0.094406  0.101546  0  1.063356  0
H  H31  1  0.26193573  0.05063199  0.20204197  1  0  0.099771  0  0.988221  0  0  0.104289  0  1.061573  0  0  0.107428  0  1.060714  0  0  0.094401  0.101531  0  1.063379  0
H  H32  1  0.54860344  0.16135223  0.79375536  1  0  0.073095  0  0.951659  0  0  0.07791  0  1.022574  0  0  0.080973  0  1.01955  0  0  0.102785  0.075112  0  1.025647  0
H  H33  1  0.45139590  0.83864797  0.20624632  1  0  0.073086  0  0.951657  0  0  0.077905  0  1.022576  0  0  0.080967  0  1.019553  0  0  0.102781  0.075106  0  1.025652  0
C  C34  1  0.72350575  0.71658418  0.63435172  1  0  0.235301  0  3.792968  0  0  0.206614  0  4.099068  0  0  0.231363  0  4.108256  0  0  0.125965  0.190178  0  4.091693  0
C  C35  1  0.27649348  0.28341709  0.36564988  1  0  0.235331  0  3.793104  0  0  0.206662  0  4.099136  0  0  0.231412  0  4.10832  0  0  0.125979  0.190224  0  4.091762  0
C  C36  1  0.75425962  0.93652099  0.51714686  1  0  -0.041283  0  3.629447  0  0  -0.104765  0  3.884963  0  0  -0.10109  0  3.894155  0  0  -0.068491  -0.107309  0  3.878691  0
C  C37  1  0.24573982  0.06347814  0.48285331  1  0  -0.041208  0  3.629384  0  0  -0.104741  0  3.884946  0  0  -0.10107  0  3.894144  0  0  -0.068502  -0.107282  0  3.878667  0
C  C38  1  0.79673610  0.96120368  0.39839155  1  0  0.062703  0  3.655217  0  0  0.005151  0  3.927281  0  0  0.011835  0  3.933036  0  0  -0.076471  0.000864  0  3.923273  0
C  C39  1  0.20326356  0.03879331  0.60160877  1  0  0.062713  0  3.655223  0  0  0.005161  0  3.927312  0  0  0.011846  0  3.933068  0  0  -0.076456  0.000869  0  3.923302  0
C  C40  1  0.99645712  0.77792758  0.41020764  1  0  0.060328  0  3.645563  0  0  0.001428  0  3.917411  0  0  0.007854  0  3.922976  0  0  -0.077225  -0.002861  0  3.912958  0
C  C41  1  0.00354233  0.22207155  0.58979252  1  0  0.060303  0  3.645448  0  0  0.001363  0  3.917331  0  0  0.007793  0  3.922902  0  0  -0.077208  -0.002933  0  3.912879  0
C  C42  1  0.96366994  0.74079428  0.52931527  1  0  -0.036453  0  3.622022  0  0  -0.098058  0  3.875673  0  0  -0.094271  0  3.885544  0  0  -0.066415  -0.100679  0  3.86914  0
C  C43  1  0.03633065  0.25920485  0.47068566  1  0  -0.036502  0  3.622122  0  0  -0.098154  0  3.875801  0  0  -0.09437  0  3.885675  0  0  -0.066425  -0.100774  0  3.869268  0
C  C44  1  0.30757488  0.84457074  0.87964285  1  0  0.125518  0  3.72758  0  0  0.097228  0  3.977555  0  0  0.104077  0  3.996452  0  0  0.03666  0.092759  0  3.964394  0
C  C45  1  0.69242537  0.15543159  0.12035705  1  0  0.125509  0  3.72771  0  0  0.097217  0  3.977682  0  0  0.104065  0  3.996577  0  0  0.036668  0.092748  0  3.964516  0
C  C46  1  0.19502382  0.95791311  0.88223350  1  0  -0.147492  0  3.687537  0  0  -0.163414  0  3.930076  0  0  -0.1708  0  3.950977  0  0  -0.080594  -0.157803  0  3.915914  0
C  C47  1  0.80497539  0.04208815  0.11776491  1  0  -0.147497  0  3.687648  0  0  -0.163407  0  3.930178  0  0  -0.170783  0  3.951084  0  0  -0.080619  -0.157794  0  3.916014  0
C  C48  1  0.04499158  0.94124660  0.85317451  1  0  0.103498  0  3.733978  0  0  0.113707  0  3.964216  0  0  0.118386  0  3.983478  0  0  0.016076  0.110991  0  3.950412  0
C  C49  1  0.95500752  0.05875572  0.14682382  1  0  0.103408  0  3.734023  0  0  0.113616  0  3.964275  0  0  0.118293  0  3.983532  0  0  0.016045  0.110898  0  3.950475  0
C  C50  1  0.01732225  0.80681466  0.82399215  1  0  -0.140498  0  3.674607  0  0  -0.160473  0  3.926168  0  0  -0.166624  0  3.945459  0  0  -0.08195  -0.156726  0  3.913187  0
C  C51  1  0.98267821  0.19318553  0.17600550  1  0  -0.140422  0  3.674511  0  0  -0.16039  0  3.926097  0  0  -0.166539  0  3.945392  0  0  -0.08193  -0.156641  0  3.913112  0
C  C52  1  0.13700581  0.69914196  0.82213241  1  0  0.122322  0  3.722734  0  0  0.091899  0  3.979529  0  0  0.09899  0  3.997594  0  0  0.041516  0.08727  0  3.967918  0
C  C53  1  0.86299580  0.30085824  0.17786682  1  0  0.122304  0  3.722712  0  0  0.091905  0  3.979502  0  0  0.098985  0  3.997567  0  0  0.041514  0.087274  0  3.967894  0
C  C54  1  0.83979718  0.30541495  0.88082509  1  0  0.130627  0  3.719447  0  0  0.103549  0  3.968131  0  0  0.110552  0  3.986751  0  0  0.03783  0.098611  0  3.956662  0
C  C55  1  0.16020420  0.69458737  0.11917238  1  0  0.130702  0  3.719403  0  0  0.103591  0  3.968098  0  0  0.110596  0  3.986719  0  0  0.037826  0.098656  0  3.956628  0
C  C56  1  0.95463150  0.19374829  0.88312191  1  0  -0.14304  0  3.685616  0  0  -0.160456  0  3.92761  0  0  -0.167899  0  3.948202  0  0  -0.081951  -0.155775  0  3.914022  0
C  C57  1  0.04536771  0.80625297  0.11687650  1  0  -0.143136  0  3.685599  0  0  -0.160544  0  3.927617  0  0  -0.167988  0  3.948206  0  0  -0.081975  -0.155862  0  3.914027  0
C  C58  1  0.92340866  0.06094042  0.85291246  1  0  0.101891  0  3.734073  0  0  0.11264  0  3.96425  0  0  0.117299  0  3.983734  0  0  0.015516  0.109423  0  3.951322  0
C  C59  1  0.07659045  0.93906191  0.14708747  1  0  0.101926  0  3.734081  0  0  0.11267  0  3.964278  0  0  0.117329  0  3.983763  0  0  0.015532  0.109453  0  3.951351  0
C  C60  1  0.77308127  0.04855510  0.82213137  1  0  -0.142364  0  3.675617  0  0  -0.160956  0  3.923306  0  0  -0.167685  0  3.94324  0  0  -0.082159  -0.15707  0  3.911412  0
C  C61  1  0.22691795  0.95144616  0.17787023  1  0  -0.142382  0  3.675634  0  0  -0.160964  0  3.923338  0  0  -0.167693  0  3.943273  0  0  -0.082178  -0.157079  0  3.911447  0
C  C62  1  0.66510867  0.16661016  0.82019396  1  0  0.121674  0  3.726506  0  0  0.092837  0  3.977731  0  0  0.099767  0  3.996185  0  0  0.042105  0.088537  0  3.965049  0
C  C63  1  0.33489169  0.83339110  0.17980681  1  0  0.121775  0  3.72642  0  0  0.092931  0  3.977646  0  0  0.099861  0  3.9961  0  0  0.042158  0.088634  0  3.964966  0
S  S64  1  0.79275109  0.54914987  0.68724408  1  0  -0.351893  0  2.111152  0  0  -0.328676  0  2.442397  0  0  -0.346451  0  2.441716  0  0  -0.136299  -0.316163  0  2.442173  0
S  S65  1  0.20724928  0.45085140  0.31275909  1  0  -0.351889  0  2.111182  0  0  -0.328693  0  2.442424  0  0  -0.346467  0  2.44174  0  0  -0.136304  -0.31618  0  2.442203  0
S  S66  1  0.54875137  0.78959664  0.68012743  1  0  -0.365818  0  2.097219  0  0  -0.341353  0  2.421186  0  0  -0.358478  0  2.419419  0  0  -0.144261  -0.329117  0  2.423127  0
S  S67  1  0.45124693  0.21040249  0.31987356  1  0  -0.365823  0  2.097284  0  0  -0.34138  0  2.421245  0  0  -0.358497  0  2.419466  0  0  -0.144264  -0.329139  0  2.423186  0
I  I68  1  0.68336072  0.65848715  0.00650208  1  0  -0.485308  0  1.014981  0  0  -0.446606  0  1.31285  0  0  -0.470503  0  1.296488  0  0  -0.187179  -0.428482  0  1.326634  0
I  I69  1  0.31663954  0.34151518  0.99349941  1  0  -0.485312  0  1.015005  0  0  -0.446628  0  1.312913  0  0  -0.470526  0  1.296551  0  0  -0.18718  -0.428503  0  1.326699  0
I  I70  1  0.36408681  0.42008916  0.64122598  1  0  -0.410845  0  0.98595  0  0  -0.38536  0  1.26702  0  0  -0.40014  0  1.250711  0  0  -0.188413  -0.373372  0  1.279926  0
I  I71  1  0.63590807  0.57990996  0.35877510  1  0  -0.410882  0  0.985965  0  0  -0.385379  0  1.267003  0  0  -0.40016  0  1.250696  0  0  -0.188438  -0.373389  0  1.279914  0
N  N72  1  0.80546312  0.79021347  0.55936650  1  0  -0.106621  0  3.397755  0  0  -0.011901  0  3.624292  0  0  -0.029261  0  3.646383  0  0  -0.26128  -0.000122  0  3.608839  0
N  N73  1  0.19453747  0.20978566  0.44063443  1  0  -0.106706  0  3.397838  0  0  -0.01193  0  3.624332  0  0  -0.029289  0  3.646424  0  0  -0.261288  -0.000149  0  3.60888  0
N  N74  1  0.28028494  0.71736311  0.84898534  1  0  -0.317336  0  3.251385  0  0  -0.244276  0  3.496528  0  0  -0.264505  0  3.521289  0  0  -0.308614  -0.231034  0  3.481397  0
N  N75  1  0.71971553  0.28263708  0.15101392  1  0  -0.31731  0  3.251454  0  0  -0.244243  0  3.496569  0  0  -0.264473  0  3.521334  0  0  -0.308589  -0.231  0  3.481436  0
N  N76  1  0.69740762  0.29340811  0.84869360  1  0  -0.317027  0  3.26112  0  0  -0.243728  0  3.506043  0  0  -0.263956  0  3.530837  0  0  -0.308996  -0.230422  0  3.489282  0
N  N77  1  0.30259148  0.70659422  0.15130473  1  0  -0.317157  0  3.261179  0  0  -0.243855  0  3.506127  0  0  -0.264083  0  3.530918  0  0  -0.309035  -0.23054  0  3.48934  0
O  O78  1  0.95697226  0.92617994  0.37883975  1  0  -0.310193  0  2.242463  0  0  -0.242021  0  2.493258  0  0  -0.258611  0  2.497274  0  0  -0.230985  -0.229831  0  2.489328  0
O  O79  1  0.04302740  0.07381705  0.62116057  1  0  -0.310215  0  2.242353  0  0  -0.242081  0  2.49321  0  0  -0.258676  0  2.497228  0  0  -0.231054  -0.229876  0  2.489272  0
