# generated using pymatgen
data_PrH12C15N2O7
_symmetry_space_group_name_H-M   'P 1'
_cell_length_a   10.74729308
_cell_length_b   11.81326553
_cell_length_c   16.51302496
_cell_angle_alpha   109.04875628
_cell_angle_beta   89.99902902
_cell_angle_gamma   117.05777135
_symmetry_Int_Tables_number   1
_chemical_formula_structural   PrH12C15N2O7
_chemical_formula_sum   'Pr4 H48 C60 N8 O28'
_cell_volume   1737.14331882
_cell_formula_units_Z   4
loop_
 _symmetry_equiv_pos_site_id
 _symmetry_equiv_pos_as_xyz
  1  'x, y, z'
loop_
 _atom_site_type_symbol
 _atom_site_label
 _atom_site_symmetry_multiplicity
 _atom_site_fract_x
 _atom_site_fract_y
 _atom_site_fract_z
 _atom_site_occupancy
 _atom_site_hle17_bader_spin_density
 _atom_site_hle17_ddec_charge
 _atom_site_hle17_ddec_spin_density
 _atom_site_hle17_ddec_sum_bond_order
 _atom_site_hle17_magmom
 _atom_site_hse06_10hf_bader_spin_density
 _atom_site_hse06_10hf_ddec_charge
 _atom_site_hse06_10hf_ddec_spin_density
 _atom_site_hse06_10hf_ddec_sum_bond_order
 _atom_site_hse06_10hf_magmom
 _atom_site_hse06_bader_spin_density
 _atom_site_hse06_ddec_charge
 _atom_site_hse06_ddec_spin_density
 _atom_site_hse06_ddec_sum_bond_order
 _atom_site_hse06_magmom
 _atom_site_pbe_bader_spin_density
 _atom_site_pbe_cm5_charge
 _atom_site_pbe_ddec_charge
 _atom_site_pbe_ddec_spin_density
 _atom_site_pbe_ddec_sum_bond_order
 _atom_site_pbe_magmom
Pr  Pr0  1  0.97469454  0.99568461  0.12679563  1  0  2.339714  0  1.646665  0  0  2.223227  0  2.029812  0  0  2.263569  0  1.983622  0  0  1.501807  2.148807  0  2.144813  0
Pr  Pr1  1  0.97899539  0.00418563  0.37310388  1  0  2.339717  0  1.64724  0  0  2.223176  0  2.030388  0  0  2.263531  0  1.984201  0  0  1.501914  2.148825  0  2.145316  0
Pr  Pr2  1  0.02530575  0.00431545  0.87320475  1  0  2.339706  0  1.646698  0  0  2.22322  0  2.029853  0  0  2.263562  0  1.983661  0  0  1.501789  2.148773  0  2.1449  0
Pr  Pr3  1  0.02100583  0.99581443  0.62689650  1  0  2.339726  0  1.64722  0  0  2.223187  0  2.030366  0  0  2.263535  0  1.984181  0  0  1.501929  2.148843  0  2.145273  0
H  H4  1  0.69434934  0.53956567  0.01332965  1  0  0.099554  0  0.947098  0  0  0.109655  0  1.006448  0  0  0.113311  0  1.004416  0  0  0.106503  0.106833  0  1.008336  0
H  H5  1  0.15489502  0.46041618  0.48673051  1  0  0.099728  0  0.947066  0  0  0.109613  0  1.006606  0  0  0.113284  0  1.004558  0  0  0.10637  0.106786  0  1.008501  0
H  H6  1  0.30565096  0.46043439  0.98667012  1  0  0.099546  0  0.947108  0  0  0.109648  0  1.006456  0  0  0.113303  0  1.004424  0  0  0.106496  0.106826  0  1.008343  0
H  H7  1  0.84510578  0.53958490  0.51327011  1  0  0.099782  0  0.947044  0  0  0.109685  0  1.006558  0  0  0.113356  0  1.004509  0  0  0.106417  0.106858  0  1.008452  0
H  H8  1  0.47260895  0.31373572  0.95191321  1  0  0.105681  0  0.944292  0  0  0.115139  0  1.003232  0  0  0.118469  0  1.001923  0  0  0.107845  0.112493  0  1.004658  0
H  H9  1  0.15901094  0.68623968  0.54806018  1  0  0.105498  0  0.944819  0  0  0.115167  0  1.003621  0  0  0.118525  0  1.002298  0  0  0.107853  0.112509  0  1.00504  0
H  H10  1  0.52738999  0.68626536  0.04808681  1  0  0.105676  0  0.944287  0  0  0.115123  0  1.00324  0  0  0.118454  0  1.001932  0  0  0.107843  0.112478  0  1.004665  0
H  H11  1  0.84098894  0.31376140  0.45193983  1  0  0.105519  0  0.944811  0  0  0.115188  0  1.003613  0  0  0.118547  0  1.00229  0  0  0.107859  0.112531  0  1.005032  0
H  H12  1  0.46680812  0.35539624  0.70374644  1  0  0.108007  0  0.936678  0  0  0.118501  0  0.992824  0  0  0.122659  0  0.990046  0  0  0.107831  0.115402  0  0.995038  0
H  H13  1  0.11122640  0.64466521  0.79624559  1  0  0.108555  0  0.937074  0  0  0.119328  0  0.992823  0  0  0.123512  0  0.990023  0  0  0.107972  0.11621  0  0.995046  0
H  H14  1  0.53319217  0.64460382  0.29625333  1  0  0.108005  0  0.936683  0  0  0.118499  0  0.992831  0  0  0.122656  0  0.990053  0  0  0.107837  0.115399  0  0.995046  0
H  H15  1  0.88877296  0.35533485  0.20375479  1  0  0.108548  0  0.937103  0  0  0.119318  0  0.992854  0  0  0.123508  0  0.990048  0  0  0.107968  0.116199  0  0.995077  0
H  H16  1  0.69168214  0.58117731  0.76449086  1  0  0.105614  0  0.957585  0  0  0.112723  0  1.02132  0  0  0.116391  0  1.018997  0  0  0.105343  0.109738  0  1.023654  0
H  H17  1  0.11031740  0.41887998  0.73556073  1  0  0.105368  0  0.95866  0  0  0.112765  0  1.021965  0  0  0.116369  0  1.019727  0  0  0.105207  0.109825  0  1.024226  0
H  H18  1  0.30831815  0.41882275  0.23550952  1  0  0.105635  0  0.95758  0  0  0.112743  0  1.02131  0  0  0.11641  0  1.018988  0  0  0.105347  0.109757  0  1.023644  0
H  H19  1  0.88968289  0.58112008  0.26443904  1  0  0.105372  0  0.958654  0  0  0.11277  0  1.021959  0  0  0.116372  0  1.019722  0  0  0.105209  0.10983  0  1.024221  0
H  H20  1  0.35297035  0.02941371  0.89989343  1  0  0.118068  0  0.967855  0  0  0.122313  0  1.035985  0  0  0.126514  0  1.033211  0  0  0.113249  0.119377  0  1.03775  0
H  H21  1  0.32358960  0.97048986  0.60011678  1  0  0.117962  0  0.969137  0  0  0.122546  0  1.036683  0  0  0.126835  0  1.033837  0  0  0.113411  0.119572  0  1.038478  0
H  H22  1  0.64702902  0.97058635  0.10010695  1  0  0.118033  0  0.967895  0  0  0.12226  0  1.036049  0  0  0.126461  0  1.033275  0  0  0.11323  0.119337  0  1.037799  0
H  H23  1  0.67641162  0.02951020  0.39988179  1  0  0.117965  0  0.969104  0  0  0.122552  0  1.036648  0  0  0.12684  0  1.033801  0  0  0.113406  0.119578  0  1.038443  0
H  H24  1  0.58635140  0.04451127  0.86819601  1  0  0.100526  0  0.945239  0  0  0.112031  0  1.001574  0  0  0.115743  0  0.999429  0  0  0.104993  0.109236  0  1.003444  0
H  H25  1  0.54182654  0.95523430  0.63169352  1  0  0.100397  0  0.945659  0  0  0.11201  0  1.001929  0  0  0.115747  0  0.999735  0  0  0.104825  0.109203  0  1.003831  0
H  H26  1  0.41364797  0.95548879  0.13180437  1  0  0.100554  0  0.945172  0  0  0.112035  0  1.001535  0  0  0.115744  0  0.999396  0  0  0.105006  0.109241  0  1.003404  0
H  H27  1  0.45817426  0.04476678  0.36830649  1  0  0.10041  0  0.945689  0  0  0.112026  0  1.001962  0  0  0.115763  0  0.999767  0  0  0.104827  0.109219  0  1.003864  0
H  H28  1  0.17017171  0.65848424  0.05819403  1  0  0.059255  0  0.912255  0  0  0.075325  0  0.971702  0  0  0.075879  0  0.972051  0  0  0.10247  0.074869  0  0.971542  0
H  H29  1  0.51151534  0.34141061  0.44178187  1  0  0.059123  0  0.912941  0  0  0.075059  0  0.97258  0  0  0.075536  0  0.973003  0  0  0.102551  0.074612  0  0.972415  0
H  H30  1  0.82982858  0.34151582  0.94180575  1  0  0.059238  0  0.91228  0  0  0.075309  0  0.971732  0  0  0.075862  0  0.972081  0  0  0.102448  0.074852  0  0.971571  0
H  H31  1  0.48848538  0.65858843  0.55821827  1  0  0.059164  0  0.912909  0  0  0.075088  0  0.972556  0  0  0.075569  0  0.972978  0  0  0.102561  0.07464  0  0.972392  0
H  H32  1  0.05466652  0.50838439  0.07900934  1  0  0.066561  0  0.923132  0  0  0.085041  0  0.979538  0  0  0.085129  0  0.980424  0  0  0.106008  0.084853  0  0.97904  0
H  H33  1  0.54612198  0.49149547  0.42096047  1  0  0.066851  0  0.92292  0  0  0.084874  0  0.979951  0  0  0.084931  0  0.980844  0  0  0.105986  0.084745  0  0.979387  0
H  H34  1  0.94533234  0.49161464  0.92099080  1  0  0.066575  0  0.923136  0  0  0.085056  0  0.979538  0  0  0.085137  0  0.980435  0  0  0.106017  0.084869  0  0.97904  0
H  H35  1  0.45387873  0.50850356  0.57904027  1  0  0.066884  0  0.92293  0  0  0.084907  0  0.979951  0  0  0.084965  0  0.980846  0  0  0.105978  0.084778  0  0.979385  0
H  H36  1  0.15611181  0.61144203  0.23036112  1  0  0.059638  0  0.920857  0  0  0.074389  0  0.982433  0  0  0.074411  0  0.983526  0  0  0.100899  0.074312  0  0.981686  0
H  H37  1  0.54457376  0.38852216  0.26965152  1  0  0.059055  0  0.920966  0  0  0.074022  0  0.98223  0  0  0.074039  0  0.983336  0  0  0.100702  0.073944  0  0.981478  0
H  H38  1  0.84388755  0.38855803  0.76963865  1  0  0.059631  0  0.920864  0  0  0.074381  0  0.982439  0  0  0.074403  0  0.983532  0  0  0.100895  0.074304  0  0.981692  0
H  H39  1  0.45542561  0.61147790  0.73034826  1  0  0.059104  0  0.920972  0  0  0.074072  0  0.982233  0  0  0.07409  0  0.983335  0  0  0.100728  0.073994  0  0.98148  0
H  H40  1  0.30649206  0.71859967  0.19494383  1  0  0.066948  0  0.948046  0  0  0.081566  0  1.010947  0  0  0.081045  0  1.013284  0  0  0.104227  0.08176  0  1.009507  0
H  H41  1  0.58776858  0.28134741  0.30504374  1  0  0.066085  0  0.948051  0  0  0.080442  0  1.01141  0  0  0.079992  0  1.013669  0  0  0.103789  0.080568  0  1.010034  0
H  H42  1  0.69350730  0.28140039  0.80505655  1  0  0.066947  0  0.948034  0  0  0.081568  0  1.010931  0  0  0.081046  0  1.013269  0  0  0.104224  0.081762  0  1.009489  0
H  H43  1  0.41223265  0.71865265  0.69495603  1  0  0.066095  0  0.948054  0  0  0.08048  0  1.011384  0  0  0.080018  0  1.013657  0  0  0.103805  0.080606  0  1.010008  0
H  H44  1  0.94364492  0.66950355  0.06905091  1  0  0.308995  0  0.91937  0  0  0.291577  0  0.98502  0  0  0.299725  0  0.977957  0  0  0.307807  0.285764  0  0.990018  0
H  H45  1  0.27397417  0.33036872  0.43087314  1  0  0.308783  0  0.920048  0  0  0.291412  0  0.985487  0  0  0.299538  0  0.978543  0  0  0.307848  0.285585  0  0.990466  0
H  H46  1  0.05635486  0.33049549  0.93094923  1  0  0.309022  0  0.919382  0  0  0.291587  0  0.985038  0  0  0.299734  0  0.977978  0  0  0.307812  0.285774  0  0.990036  0
H  H47  1  0.72602612  0.66963134  0.56912724  1  0  0.308825  0  0.920051  0  0  0.291464  0  0.985463  0  0  0.299589  0  0.97852  0  0  0.307874  0.285637  0  0.990442  0
H  H48  1  0.21148984  0.87362759  0.29741369  1  0  0.318075  0  0.92701  0  0  0.298979  0  0.989413  0  0  0.306992  0  0.983041  0  0  0.315175  0.293349  0  0.993774  0
H  H49  1  0.33783554  0.12628218  0.20253738  1  0  0.319108  0  0.925519  0  0  0.299701  0  0.988462  0  0  0.307684  0  0.982161  0  0  0.315693  0.294076  0  0.992827  0
H  H50  1  0.78851046  0.12637246  0.70258669  1  0  0.31808  0  0.927014  0  0  0.298989  0  0.989413  0  0  0.307002  0  0.983041  0  0  0.315179  0.293358  0  0.993773  0
H  H51  1  0.66216476  0.87371788  0.79746300  1  0  0.319126  0  0.925475  0  0  0.299734  0  0.988406  0  0  0.307716  0  0.982102  0  0  0.315694  0.294108  0  0.992769  0
C  C52  1  0.70596152  0.57412681  0.89257873  1  0  -0.069024  0  3.735588  0  0  -0.045104  0  3.962542  0  0  -0.051843  0  3.985068  0  0  -0.015837  -0.041222  0  3.948239  0
C  C53  1  0.13170057  0.42584040  0.60746609  1  0  -0.067159  0  3.736932  0  0  -0.04434  0  3.964206  0  0  -0.051065  0  3.986745  0  0  -0.015718  -0.04042  0  3.949829  0
C  C54  1  0.29403929  0.42587427  0.10742128  1  0  -0.06899  0  3.735555  0  0  -0.045103  0  3.962574  0  0  -0.051843  0  3.985102  0  0  -0.015832  -0.041219  0  3.948267  0
C  C55  1  0.86829972  0.57415966  0.39253369  1  0  -0.067203  0  3.736941  0  0  -0.044392  0  3.964217  0  0  -0.051116  0  3.986755  0  0  -0.01574  -0.040472  0  3.949842  0
C  C56  1  0.64630713  0.49745451  0.94500189  1  0  -0.076434  0  3.747391  0  0  -0.098395  0  3.997862  0  0  -0.099627  0  4.018699  0  0  -0.082673  -0.097427  0  3.984181  0
C  C57  1  0.14894019  0.50255476  0.55505484  1  0  -0.076913  0  3.748903  0  0  -0.09836  0  3.999389  0  0  -0.099589  0  4.020241  0  0  -0.082341  -0.097411  0  3.985691  0
C  C58  1  0.35369172  0.50254453  0.05499765  1  0  -0.076456  0  3.747461  0  0  -0.098405  0  3.997942  0  0  -0.099637  0  4.018779  0  0  -0.08268  -0.097438  0  3.98426  0
C  C59  1  0.85106011  0.49744530  0.44494554  1  0  -0.076926  0  3.748877  0  0  -0.098397  0  3.999378  0  0  -0.099629  0  4.020231  0  0  -0.082364  -0.097449  0  3.985683  0
C  C60  1  0.52253755  0.37227642  0.91113413  1  0  -0.077493  0  3.741034  0  0  -0.09976  0  3.990984  0  0  -0.101079  0  4.011835  0  0  -0.082246  -0.099042  0  3.97772  0
C  C61  1  0.15036880  0.62774880  0.58887796  1  0  -0.07823  0  3.742752  0  0  -0.100809  0  3.992677  0  0  -0.102169  0  4.013547  0  0  -0.082683  -0.100063  0  3.979403  0
C  C62  1  0.47746181  0.62772364  0.08886564  1  0  -0.077485  0  3.741057  0  0  -0.099744  0  3.991002  0  0  -0.101062  0  4.011852  0  0  -0.082239  -0.099026  0  3.977737  0
C  C63  1  0.84963150  0.37225126  0.41112182  1  0  -0.078308  0  3.742767  0  0  -0.100886  0  3.992695  0  0  -0.102248  0  4.013565  0  0  -0.082713  -0.10014  0  3.979422  0
C  C64  1  0.45665710  0.32250487  0.82453996  1  0  -0.057885  0  3.730904  0  0  -0.034925  0  3.958643  0  0  -0.041344  0  3.980697  0  0  -0.011744  -0.031289  0  3.945123  0
C  C65  1  0.13405326  0.67750649  0.67543239  1  0  -0.055422  0  3.730097  0  0  -0.032401  0  3.957689  0  0  -0.038773  0  3.979727  0  0  -0.010989  -0.028781  0  3.944163  0
C  C66  1  0.54334134  0.67749519  0.17545981  1  0  -0.057789  0  3.730821  0  0  -0.034824  0  3.958542  0  0  -0.041241  0  3.980595  0  0  -0.011694  -0.031188  0  3.945021  0
C  C67  1  0.86594611  0.32249357  0.32456738  1  0  -0.055381  0  3.730074  0  0  -0.032359  0  3.957653  0  0  -0.03873  0  3.979694  0  0  -0.010983  -0.02874  0  3.944128  0
C  C68  1  0.51936977  0.39669065  0.77106297  1  0  -0.080988  0  3.746439  0  0  -0.103626  0  3.994521  0  0  -0.104654  0  4.013963  0  0  -0.084399  -0.102713  0  3.981723  0
C  C69  1  0.12246518  0.60333578  0.72892778  1  0  -0.083122  0  3.747807  0  0  -0.106078  0  3.996082  0  0  -0.107152  0  4.015521  0  0  -0.085055  -0.105134  0  3.983303  0
C  C70  1  0.48062960  0.60330941  0.22893681  1  0  -0.080953  0  3.746425  0  0  -0.103592  0  3.994503  0  0  -0.10462  0  4.013947  0  0  -0.084396  -0.10268  0  3.981708  0
C  C71  1  0.87753460  0.39666325  0.27107236  1  0  -0.083104  0  3.747796  0  0  -0.106057  0  3.996063  0  0  -0.107137  0  4.0155  0  0  -0.085042  -0.105113  0  3.983286  0
C  C72  1  0.64313154  0.52134882  0.80477134  1  0  -0.075591  0  3.740981  0  0  -0.096591  0  3.988748  0  0  -0.09727  0  4.008656  0  0  -0.084682  -0.096025  0  3.975819  0
C  C73  1  0.12157292  0.47867291  0.69525699  1  0  -0.075561  0  3.741645  0  0  -0.096523  0  3.989551  0  0  -0.097141  0  4.009512  0  0  -0.084616  -0.09601  0  3.976577  0
C  C74  1  0.35686875  0.47865124  0.19522844  1  0  -0.075673  0  3.741022  0  0  -0.096659  0  3.9888  0  0  -0.097338  0  4.008711  0  0  -0.084702  -0.096094  0  3.975873  0
C  C75  1  0.87842737  0.52132714  0.30474339  1  0  -0.075551  0  3.741604  0  0  -0.09651  0  3.989503  0  0  -0.097129  0  4.009466  0  0  -0.084613  -0.095998  0  3.976532  0
C  C76  1  0.82871054  0.71658570  0.93047240  1  0  0.705981  0  3.868776  0  0  0.659294  0  4.164996  0  0  0.69443  0  4.152856  0  0  0.232645  0.635736  0  4.168929  0
C  C77  1  0.11193144  0.28335453  0.56955947  1  0  0.703775  0  3.871626  0  0  0.65879  0  4.165657  0  0  0.693884  0  4.153577  0  0  0.232155  0.635243  0  4.169569  0
C  C78  1  0.17128883  0.28341436  0.06952677  1  0  0.706054  0  3.868636  0  0  0.659342  0  4.164908  0  0  0.69448  0  4.152765  0  0  0.232633  0.635785  0  4.16884  0
C  C79  1  0.88806741  0.71664451  0.43044007  1  0  0.703784  0  3.871646  0  0  0.658824  0  4.165637  0  0  0.693919  0  4.153556  0  0  0.232188  0.635281  0  4.16955  0
C  C80  1  0.31471717  0.19576695  0.79026318  1  0  0.706172  0  3.876226  0  0  0.660444  0  4.170716  0  0  0.695569  0  4.158744  0  0  0.229397  0.636777  0  4.174534  0
C  C81  1  0.11871413  0.80419714  0.70966445  1  0  0.704807  0  3.877226  0  0  0.659045  0  4.17174  0  0  0.694139  0  4.159806  0  0  0.229113  0.63539  0  4.175548  0
C  C82  1  0.68528220  0.80423311  0.20973659  1  0  0.705967  0  3.876359  0  0  0.660235  0  4.170871  0  0  0.695359  0  4.158904  0  0  0.229328  0.636571  0  4.174685  0
C  C83  1  0.88128616  0.19580292  0.29033593  1  0  0.704784  0  3.877191  0  0  0.659028  0  4.171699  0  0  0.69412  0  4.159766  0  0  0.229126  0.635372  0  4.175507  0
C  C84  1  0.36991053  0.99208819  0.01803886  1  0  -0.061817  0  3.742879  0  0  -0.038136  0  3.96913  0  0  -0.045262  0  3.992043  0  0  -0.011057  -0.034231  0  3.95489  0
C  C85  1  0.37789704  0.00806469  0.48206134  1  0  -0.061708  0  3.741631  0  0  -0.038156  0  3.968951  0  0  -0.0454  0  3.992028  0  0  -0.010973  -0.034162  0  3.954583  0
C  C86  1  0.63008883  0.00791187  0.98196213  1  0  -0.061906  0  3.742906  0  0  -0.038193  0  3.969126  0  0  -0.045318  0  3.992039  0  0  -0.011068  -0.034286  0  3.954886  0
C  C87  1  0.62210470  0.99193639  0.51793746  1  0  -0.061745  0  3.741685  0  0  -0.038193  0  3.968997  0  0  -0.045437  0  3.992073  0  0  -0.010973  -0.034199  0  3.954628  0
C  C88  1  0.41745617  0.01625228  0.94321471  1  0  -0.062394  0  3.707956  0  0  -0.084919  0  3.955466  0  0  -0.08578  0  3.975235  0  0  -0.075268  -0.084128  0  3.942528  0
C  C89  1  0.40122866  0.98365275  0.55679324  1  0  -0.061429  0  3.706407  0  0  -0.084133  0  3.954082  0  0  -0.085053  0  3.973821  0  0  -0.075043  -0.083317  0  3.941121  0
C  C90  1  0.58254319  0.98374778  0.05678567  1  0  -0.062271  0  3.707913  0  0  -0.084789  0  3.955406  0  0  -0.08565  0  3.975174  0  0  -0.075209  -0.08401  0  3.942461  0
C  C91  1  0.59877400  0.01634833  0.44320859  1  0  -0.061297  0  3.706414  0  0  -0.083995  0  3.954088  0  0  -0.084915  0  3.97383  0  0  -0.074919  -0.08318  0  3.941128  0
C  C92  1  0.54714779  0.02438843  0.92561657  1  0  -0.07754  0  3.735502  0  0  -0.098285  0  3.98015  0  0  -0.099817  0  4.000908  0  0  -0.083716  -0.097305  0  3.966581  0
C  C93  1  0.52272295  0.97537676  0.57428818  1  0  -0.078714  0  3.735907  0  0  -0.099557  0  3.98112  0  0  -0.101056  0  4.001919  0  0  -0.08426  -0.098597  0  3.967509  0
C  C94  1  0.45285208  0.97561265  0.07438405  1  0  -0.077546  0  3.735396  0  0  -0.098257  0  3.980038  0  0  -0.099789  0  4.000796  0  0  -0.083694  -0.097278  0  3.966477  0
C  C95  1  0.47727972  0.02462432  0.42571123  1  0  -0.078854  0  3.735974  0  0  -0.099707  0  3.981204  0  0  -0.101204  0  4.002003  0  0  -0.084351  -0.098748  0  3.967596  0
C  C96  1  0.23314894  0.98728075  0.03967511  1  0  0.699955  0  3.868506  0  0  0.653085  0  4.159522  0  0  0.688229  0  4.147492  0  0  0.230649  0.629993  0  4.161923  0
C  C97  1  0.24588908  0.01279860  0.46044083  1  0  0.701759  0  3.866454  0  0  0.653944  0  4.159257  0  0  0.689169  0  4.147159  0  0  0.230847  0.630795  0  4.161681  0
C  C98  1  0.76685042  0.01271931  0.96032527  1  0  0.699964  0  3.86855  0  0  0.653089  0  4.159561  0  0  0.688233  0  4.14753  0  0  0.230641  0.629995  0  4.161958  0
C  C99  1  0.75410977  0.98720043  0.53955991  1  0  0.701691  0  3.866396  0  0  0.653876  0  4.15921  0  0  0.689101  0  4.147113  0  0  0.230821  0.630726  0  4.161632  0
C  C100  1  0.04984258  0.78158253  0.19343728  1  0  0.768344  0  3.850893  0  0  0.698315  0  4.163135  0  0  0.734349  0  4.153316  0  0  0.350669  0.673997  0  4.165734  0
C  C101  1  0.26813970  0.21833246  0.30645331  1  0  0.769023  0  3.852247  0  0  0.699442  0  4.16373  0  0  0.735408  0  4.154022  0  0  0.350869  0.675159  0  4.166261  0
C  C102  1  0.95015771  0.21841753  0.80656310  1  0  0.768492  0  3.850785  0  0  0.69845  0  4.163017  0  0  0.734483  0  4.153197  0  0  0.350747  0.674131  0  4.165612  0
C  C103  1  0.73186060  0.78166760  0.69354646  1  0  0.769018  0  3.852146  0  0  0.699432  0  4.163657  0  0  0.735394  0  4.15395  0  0  0.350855  0.675149  0  4.166184  0
C  C104  1  0.10432882  0.62018371  0.10425033  1  0  0.042711  0  3.61926  0  0  -0.017805  0  3.894788  0  0  -0.014187  0  3.906568  0  0  -0.052424  -0.020216  0  3.886725  0
C  C105  1  0.48396628  0.37970541  0.39571808  1  0  0.042527  0  3.619544  0  0  -0.017936  0  3.895331  0  0  -0.014195  0  3.907056  0  0  -0.052596  -0.020428  0  3.887244  0
C  C106  1  0.89567055  0.37981635  0.89575005  1  0  0.042684  0  3.619283  0  0  -0.017858  0  3.894808  0  0  -0.01424  0  3.906589  0  0  -0.052451  -0.020269  0  3.886745  0
C  C107  1  0.51603351  0.62029363  0.60428145  1  0  0.042448  0  3.619551  0  0  -0.018005  0  3.895333  0  0  -0.01427  0  3.907058  0  0  -0.052609  -0.020496  0  3.887246  0
C  C108  1  0.19330088  0.68401870  0.19629220  1  0  0.044374  0  3.62389  0  0  -0.016445  0  3.891091  0  0  -0.012592  0  3.903722  0  0  -0.050251  -0.018864  0  3.882403  0
C  C109  1  0.50914511  0.31590264  0.30368071  1  0  0.045473  0  3.623783  0  0  -0.014812  0  3.890482  0  0  -0.010996  0  3.903065  0  0  -0.049896  -0.017179  0  3.881811  0
C  C110  1  0.80669941  0.31598136  0.80370757  1  0  0.044382  0  3.623902  0  0  -0.01643  0  3.891102  0  0  -0.012576  0  3.903732  0  0  -0.050258  -0.018849  0  3.882412  0
C  C111  1  0.49085602  0.68409537  0.69631858  1  0  0.045406  0  3.623844  0  0  -0.014912  0  3.890568  0  0  -0.011086  0  3.903154  0  0  -0.049936  -0.017278  0  3.881894  0
N  N112  1  0.99851966  0.66750157  0.11909013  1  0  -0.500347  0  3.145969  0  0  -0.446536  0  3.401729  0  0  -0.466322  0  3.403889  0  0  -0.434736  -0.433133  0  3.400203  0
N  N113  1  0.33084565  0.33237431  0.38083596  1  0  -0.500135  0  3.147268  0  0  -0.445964  0  3.402365  0  0  -0.465789  0  3.404584  0  0  -0.434668  -0.432505  0  3.400774  0
N  N114  1  0.00148063  0.33249849  0.88090964  1  0  -0.50037  0  3.145938  0  0  -0.446494  0  3.401656  0  0  -0.466275  0  3.403811  0  0  -0.434703  -0.433092  0  3.400128  0
N  N115  1  0.66915557  0.66762575  0.61916382  1  0  -0.500189  0  3.147245  0  0  -0.44603  0  3.402355  0  0  -0.465853  0  3.404573  0  0  -0.434703  -0.432573  0  3.400766  0
N  N116  1  0.16531565  0.79744472  0.23745711  1  0  -0.471828  0  3.226276  0  0  -0.411374  0  3.476759  0  0  -0.43154  0  3.480224  0  0  -0.421416  -0.397726  0  3.474228  0
N  N117  1  0.36778264  0.20250094  0.26247702  1  0  -0.472285  0  3.225815  0  0  -0.412241  0  3.477177  0  0  -0.432378  0  3.4807  0  0  -0.421574  -0.398604  0  3.474572  0
N  N118  1  0.83468320  0.20255432  0.76254303  1  0  -0.471887  0  3.226251  0  0  -0.411454  0  3.476766  0  0  -0.431617  0  3.480226  0  0  -0.421443  -0.397806  0  3.474234  0
N  N119  1  0.63221714  0.79749810  0.73752251  1  0  -0.472311  0  3.225792  0  0  -0.412263  0  3.477121  0  0  -0.432403  0  3.480656  0  0  -0.421576  -0.398624  0  3.474507  0
O  O120  1  0.86213141  0.78500697  0.88136144  1  0  -0.718787  0  2.066982  0  0  -0.675114  0  2.320884  0  0  -0.699072  0  2.309843  0  0  -0.392105  -0.652951  0  2.328581  0
O  O121  1  0.07681729  0.21493734  0.61867685  1  0  -0.718522  0  2.067952  0  0  -0.675387  0  2.3211  0  0  -0.699336  0  2.310059  0  0  -0.392658  -0.653221  0  2.328783  0
O  O122  1  0.13786744  0.21499207  0.11863810  1  0  -0.718823  0  2.066928  0  0  -0.675141  0  2.32085  0  0  -0.6991  0  2.309807  0  0  -0.392098  -0.652976  0  2.328534  0
O  O123  1  0.92318300  0.78506272  0.38132353  1  0  -0.718528  0  2.068009  0  0  -0.675406  0  2.321153  0  0  -0.699355  0  2.31011  0  0  -0.392662  -0.653239  0  2.328838  0
O  O124  1  0.88820662  0.76141559  0.00982841  1  0  -0.744375  0  2.018388  0  0  -0.698059  0  2.267102  0  0  -0.721663  0  2.254535  0  0  -0.377791  -0.676131  0  2.275088  0
O  O125  1  0.12667034  0.23852571  0.49022497  1  0  -0.742871  0  2.019209  0  0  -0.697362  0  2.267257  0  0  -0.720961  0  2.254762  0  0  -0.376707  -0.675462  0  2.275261  0
O  O126  1  0.11179368  0.23858447  0.99017076  1  0  -0.744414  0  2.018411  0  0  -0.698078  0  2.267143  0  0  -0.721681  0  2.254573  0  0  -0.377781  -0.676147  0  2.275128  0
O  O127  1  0.87332944  0.76147333  0.50977456  1  0  -0.742872  0  2.019206  0  0  -0.697372  0  2.267237  0  0  -0.720969  0  2.254737  0  0  -0.376726  -0.675472  0  2.275235  0
O  O128  1  0.25748774  0.13721834  0.84311032  1  0  -0.748279  0  2.057001  0  0  -0.705337  0  2.315765  0  0  -0.72868  0  2.301904  0  0  -0.400512  -0.682276  0  2.324584  0
O  O129  1  0.11998501  0.86266329  0.65677105  1  0  -0.747843  0  2.058431  0  0  -0.704669  0  2.316828  0  0  -0.7281  0  2.303156  0  0  -0.400945  -0.681642  0  2.325653  0
O  O130  1  0.74251163  0.86278172  0.15688945  1  0  -0.74819  0  2.057099  0  0  -0.705242  0  2.315852  0  0  -0.728586  0  2.301996  0  0  -0.400479  -0.682188  0  2.324673  0
O  O131  1  0.88001529  0.13733676  0.34322933  1  0  -0.747863  0  2.058457  0  0  -0.70469  0  2.316857  0  0  -0.728124  0  2.30319  0  0  -0.400956  -0.68166  0  2.325682  0
O  O132  1  0.26019060  0.15793957  0.71174435  1  0  -0.712927  0  2.03381  0  0  -0.670171  0  2.281808  0  0  -0.693658  0  2.270073  0  0  -0.387756  -0.648297  0  2.289636  0
O  O133  1  0.10201073  0.84204325  0.78817232  1  0  -0.712626  0  2.03408  0  0  -0.669788  0  2.282145  0  0  -0.693267  0  2.270413  0  0  -0.387672  -0.647904  0  2.289969  0
O  O134  1  0.73980918  0.84205947  0.28825579  1  0  -0.712884  0  2.033826  0  0  -0.670128  0  2.28183  0  0  -0.693615  0  2.270097  0  0  -0.387761  -0.648252  0  2.289655  0
O  O135  1  0.89798905  0.15795579  0.21182661  1  0  -0.71261  0  2.034036  0  0  -0.669774  0  2.282095  0  0  -0.693252  0  2.270363  0  0  -0.387684  -0.647894  0  2.289919  0
O  O136  1  0.15326006  0.99466535  0.98712412  1  0  -0.777981  0  2.129609  0  0  -0.732332  0  2.392587  0  0  -0.755032  0  2.377587  0  0  -0.406936  -0.707041  0  2.402607  0
O  O137  1  0.15861482  0.00534479  0.51299120  1  0  -0.778545  0  2.130124  0  0  -0.73255  0  2.393501  0  0  -0.755163  0  2.378296  0  0  -0.406829  -0.707306  0  2.403615  0
O  O138  1  0.84673981  0.00533573  0.01287711  1  0  -0.777983  0  2.129645  0  0  -0.732344  0  2.392638  0  0  -0.755043  0  2.377637  0  0  -0.406946  -0.707056  0  2.402656  0
O  O139  1  0.84138641  0.99465527  0.48700918  1  0  -0.778539  0  2.130018  0  0  -0.732553  0  2.393405  0  0  -0.755168  0  2.3782  0  0  -0.406834  -0.70731  0  2.403524  0
O  O140  1  0.20124480  0.97873492  0.11281526  1  0  -0.712496  0  2.044094  0  0  -0.664072  0  2.287783  0  0  -0.687594  0  2.277025  0  0  -0.369021  -0.643024  0  2.294253  0
O  O141  1  0.22248682  0.02129156  0.38728133  1  0  -0.713379  0  2.042697  0  0  -0.664112  0  2.285887  0  0  -0.687787  0  2.275362  0  0  -0.369213  -0.643053  0  2.292429  0
O  O142  1  0.79875456  0.02126514  0.88718572  1  0  -0.712484  0  2.044062  0  0  -0.664077  0  2.287777  0  0  -0.687595  0  2.277009  0  0  -0.369007  -0.643025  0  2.294246  0
O  O143  1  0.77751390  0.97870747  0.61271820  1  0  -0.713303  0  2.042689  0  0  -0.664025  0  2.285856  0  0  -0.687698  0  2.275331  0  0  -0.369181  -0.642968  0  2.292395  0
O  O144  1  0.99451823  0.85940363  0.21674561  1  0  -0.79807  0  2.084274  0  0  -0.754708  0  2.354602  0  0  -0.775486  0  2.339173  0  0  -0.402706  -0.730335  0  2.364005  0
O  O145  1  0.13499867  0.14048350  0.28310126  1  0  -0.799042  0  2.085825  0  0  -0.756066  0  2.356384  0  0  -0.776652  0  2.340643  0  0  -0.402948  -0.731754  0  2.365879  0
O  O146  1  0.00548207  0.14059643  0.78325417  1  0  -0.798135  0  2.084302  0  0  -0.754787  0  2.35466  0  0  -0.775564  0  2.339233  0  0  -0.402743  -0.730412  0  2.364061  0
O  O147  1  0.86500162  0.85951655  0.71689912  1  0  -0.799018  0  2.085739  0  0  -0.756044  0  2.356313  0  0  -0.77663  0  2.340574  0  0  -0.40293  -0.731731  0  2.365807  0
