# generated using pymatgen
data_CdH16(C2O)8
_symmetry_space_group_name_H-M   'P 1'
_cell_length_a   4.67437551
_cell_length_b   13.85443793
_cell_length_c   13.10416046
_cell_angle_alpha   105.55605990
_cell_angle_beta   100.24195236
_cell_angle_gamma   90.02063714
_symmetry_Int_Tables_number   1
_chemical_formula_structural   CdH16(C2O)8
_chemical_formula_sum   'Cd2 H32 C32 O16'
_cell_volume   803.48879941
_cell_formula_units_Z   2
loop_
 _symmetry_equiv_pos_site_id
 _symmetry_equiv_pos_as_xyz
  1  'x, y, z'
loop_
 _atom_site_type_symbol
 _atom_site_label
 _atom_site_symmetry_multiplicity
 _atom_site_fract_x
 _atom_site_fract_y
 _atom_site_fract_z
 _atom_site_occupancy
 _atom_site_hle17_bader_spin_density
 _atom_site_hle17_ddec_charge
 _atom_site_hle17_ddec_spin_density
 _atom_site_hle17_ddec_sum_bond_order
 _atom_site_hle17_magmom
 _atom_site_hse06_10hf_bader_spin_density
 _atom_site_hse06_10hf_ddec_charge
 _atom_site_hse06_10hf_ddec_spin_density
 _atom_site_hse06_10hf_ddec_sum_bond_order
 _atom_site_hse06_10hf_magmom
 _atom_site_hse06_bader_spin_density
 _atom_site_hse06_ddec_charge
 _atom_site_hse06_ddec_spin_density
 _atom_site_hse06_ddec_sum_bond_order
 _atom_site_hse06_magmom
 _atom_site_pbe_bader_spin_density
 _atom_site_pbe_cm5_charge
 _atom_site_pbe_ddec_charge
 _atom_site_pbe_ddec_spin_density
 _atom_site_pbe_ddec_sum_bond_order
 _atom_site_pbe_magmom
Cd  Cd0  1  0.00269195  0.24997107  0.00024312  1  0  1.215006  0  1.501407  0  0  1.036043  0  1.928223  0  0  1.097599  0  1.869237  0  0  0.762026  0.992196  0  1.96868  0
Cd  Cd1  1  0.99732952  0.75003596  0.99975185  1  0  1.214971  0  1.501308  0  0  1.036025  0  1.928127  0  0  1.097589  0  1.869137  0  0  0.762004  0.992179  0  1.968582  0
H  H2  1  0.47346614  0.16376653  0.86380481  1  0  0.418509  0  0.878489  0  0  0.388996  0  0.943772  0  0  0.399423  0  0.928836  0  0  0.293724  0.381597  0  0.954355  0
H  H3  1  0.60956085  0.33622163  0.13650676  1  0  0.419684  0  0.876686  0  0  0.389608  0  0.942765  0  0  0.400062  0  0.92781  0  0  0.294095  0.382193  0  0.953354  0
H  H4  1  0.52654799  0.83623720  0.13619581  1  0  0.418564  0  0.878518  0  0  0.389065  0  0.943685  0  0  0.39949  0  0.928754  0  0  0.293773  0.381669  0  0.954266  0
H  H5  1  0.39045553  0.66378371  0.86349590  1  0  0.419689  0  0.876716  0  0  0.389592  0  0.942798  0  0  0.400046  0  0.927844  0  0  0.294059  0.382177  0  0.953388  0
H  H6  1  0.54468757  0.10587692  0.95070938  1  0  0.424889  0  0.876532  0  0  0.39413  0  0.941869  0  0  0.404359  0  0.927127  0  0  0.295904  0.386874  0  0.952318  0
H  H7  1  0.59396991  0.39405381  0.04953139  1  0  0.424954  0  0.877508  0  0  0.393887  0  0.942415  0  0  0.404137  0  0.927676  0  0  0.295897  0.386619  0  0.952851  0
H  H8  1  0.45531795  0.89412751  0.04929078  1  0  0.424864  0  0.876557  0  0  0.394136  0  0.941842  0  0  0.404363  0  0.927106  0  0  0.295925  0.38688  0  0.95229  0
H  H9  1  0.40604415  0.60594832  0.95046736  1  0  0.424936  0  0.877519  0  0  0.393884  0  0.942392  0  0  0.404133  0  0.927656  0  0  0.295931  0.386617  0  0.952824  0
H  H10  1  0.79490797  0.02297941  0.10911556  1  0  0.110418  0  0.958073  0  0  0.121408  0  1.017314  0  0  0.124512  0  1.014881  0  0  0.106457  0.119136  0  1.019149  0
H  H11  1  0.68627836  0.47677649  0.89090492  1  0  0.110305  0  0.957828  0  0  0.121333  0  1.017058  0  0  0.124458  0  1.014581  0  0  0.106541  0.119059  0  1.018883  0
H  H12  1  0.20506622  0.97702250  0.89089099  1  0  0.110289  0  0.958224  0  0  0.121417  0  1.017323  0  0  0.124512  0  1.014882  0  0  0.106485  0.119143  0  1.019158  0
H  H13  1  0.31376300  0.52321929  0.10909829  1  0  0.110346  0  0.957897  0  0  0.121339  0  1.017178  0  0  0.124461  0  1.014704  0  0  0.106533  0.119067  0  1.019001  0
H  H14  1  0.15117330  0.97864039  0.24892853  1  0  0.123062  0  0.964968  0  0  0.132368  0  1.027003  0  0  0.13606  0  1.025313  0  0  0.105186  0.129728  0  1.028389  0
H  H15  1  0.90179622  0.52124716  0.75083333  1  0  0.122482  0  0.965394  0  0  0.131483  0  1.027958  0  0  0.13518  0  1.02625  0  0  0.104572  0.128842  0  1.029341  0
H  H16  1  0.84880746  0.02135729  0.75106995  1  0  0.123168  0  0.965081  0  0  0.132445  0  1.027116  0  0  0.136137  0  1.025424  0  0  0.105189  0.129806  0  1.028497  0
H  H17  1  0.09823019  0.47874739  0.24916241  1  0  0.122584  0  0.965275  0  0  0.131555  0  1.027884  0  0  0.135252  0  1.026175  0  0  0.104584  0.128914  0  1.029268  0
H  H18  1  0.88254478  0.22305293  0.49040737  1  0  0.110896  0  0.972709  0  0  0.118197  0  1.041021  0  0  0.121576  0  1.039488  0  0  0.10378  0.115774  0  1.042292  0
H  H19  1  0.39084608  0.27695414  0.50955840  1  0  0.110787  0  0.973283  0  0  0.117875  0  1.041933  0  0  0.121256  0  1.040411  0  0  0.104331  0.115489  0  1.043129  0
H  H20  1  0.11743818  0.77694726  0.50959562  1  0  0.110924  0  0.972715  0  0  0.118246  0  1.040998  0  0  0.121627  0  1.03946  0  0  0.103794  0.115822  0  1.042277  0
H  H21  1  0.60914084  0.72305496  0.49043452  1  0  0.110785  0  0.973265  0  0  0.117898  0  1.041903  0  0  0.121277  0  1.040381  0  0  0.104322  0.115512  0  1.043098  0
H  H22  1  0.53137181  0.26942455  0.34660583  1  0  0.101027  0  0.947653  0  0  0.107842  0  1.014624  0  0  0.11205  0  1.010356  0  0  0.102738  0.104783  0  1.017749  0
H  H23  1  0.18399402  0.23056879  0.65354803  1  0  0.101109  0  0.948562  0  0  0.108156  0  1.015094  0  0  0.112356  0  1.010846  0  0  0.103335  0.105103  0  1.018229  0
H  H24  1  0.46860023  0.73057564  0.65339713  1  0  0.101019  0  0.947753  0  0  0.107869  0  1.014679  0  0  0.112079  0  1.01041  0  0  0.102733  0.104809  0  1.017804  0
H  H25  1  0.81601417  0.76943508  0.34644379  1  0  0.101033  0  0.948629  0  0  0.108142  0  1.015096  0  0  0.112344  0  1.010846  0  0  0.103329  0.105089  0  1.018232  0
H  H26  1  0.53375309  0.00114123  0.38538167  1  0  0.062284  0  0.943964  0  0  0.074704  0  1.009216  0  0  0.074256  0  1.010349  0  0  0.104376  0.074979  0  1.008519  0
H  H27  1  0.14729601  0.49857666  0.61459243  1  0  0.062148  0  0.943598  0  0  0.074002  0  1.009586  0  0  0.07353  0  1.010777  0  0  0.104204  0.074271  0  1.008866  0
H  H28  1  0.46624051  0.99885842  0.61462427  1  0  0.062238  0  0.943868  0  0  0.074686  0  1.009094  0  0  0.074237  0  1.01023  0  0  0.104378  0.07496  0  1.008397  0
H  H29  1  0.85271069  0.50142301  0.38541369  1  0  0.062089  0  0.943624  0  0  0.074026  0  1.009575  0  0  0.073555  0  1.010767  0  0  0.10417  0.074295  0  1.008857  0
H  H30  1  0.27039172  0.92514585  0.41686318  1  0  0.069044  0  0.910298  0  0  0.081923  0  0.973492  0  0  0.082349  0  0.972637  0  0  0.106565  0.081595  0  0.97415  0
H  H31  1  0.85358295  0.57491917  0.58315262  1  0  0.067578  0  0.911627  0  0  0.081297  0  0.973749  0  0  0.08183  0  0.972754  0  0  0.106253  0.080896  0  0.974493  0
H  H32  1  0.72959597  0.07485560  0.58313659  1  0  0.069056  0  0.910156  0  0  0.081902  0  0.973409  0  0  0.08233  0  0.972551  0  0  0.106554  0.081571  0  0.974065  0
H  H33  1  0.14641989  0.42508161  0.41684810  1  0  0.067548  0  0.911731  0  0  0.081301  0  0.973875  0  0  0.081841  0  0.97287  0  0  0.106241  0.080899  0  0.974618  0
C  C34  1  0.41283347  0.17326065  0.13635850  1  0  0.622098  0  3.950448  0  0  0.571243  0  4.239902  0  0  0.605624  0  4.235769  0  0  0.195105  0.547904  0  4.2419  0
C  C35  1  0.27668790  0.32649010  0.86386789  1  0  0.621806  0  3.947714  0  0  0.570672  0  4.237056  0  0  0.605007  0  4.232941  0  0  0.194877  0.5474  0  4.23903  0
C  C36  1  0.58716166  0.82674822  0.86364185  1  0  0.62184  0  3.950517  0  0  0.570987  0  4.239982  0  0  0.605368  0  4.235858  0  0  0.195  0.54765  0  4.241974  0
C  C37  1  0.72332606  0.67350792  0.13612463  1  0  0.621903  0  3.947888  0  0  0.570769  0  4.237258  0  0  0.605111  0  4.233141  0  0  0.194835  0.547484  0  4.239233  0
C  C38  1  0.63423610  0.14756547  0.21898446  1  0  -0.111946  0  3.813042  0  0  -0.090001  0  4.052098  0  0  -0.10292  0  4.078695  0  0  -0.03912  -0.081583  0  4.034132  0
C  C39  1  0.41511322  0.35224364  0.78117706  1  0  -0.111886  0  3.812759  0  0  -0.0889  0  4.050649  0  0  -0.101785  0  4.077203  0  0  -0.038409  -0.080594  0  4.03284  0
C  C40  1  0.36575012  0.85244276  0.78101740  1  0  -0.111862  0  3.812948  0  0  -0.089933  0  4.052084  0  0  -0.102854  0  4.078681  0  0  -0.039075  -0.081517  0  4.034115  0
C  C41  1  0.58490462  0.64775156  0.21881744  1  0  -0.111764  0  3.81252  0  0  -0.088821  0  4.050502  0  0  -0.101729  0  4.077081  0  0  -0.038355  -0.080474  0  4.032642  0
C  C42  1  0.81072208  0.06608992  0.19289950  1  0  -0.028121  0  3.718377  0  0  -0.052768  0  3.967169  0  0  -0.048729  0  3.986491  0  0  -0.081818  -0.055108  0  3.953921  0
C  C43  1  0.61801406  0.43364735  0.80714387  1  0  -0.028953  0  3.719458  0  0  -0.054007  0  3.967946  0  0  -0.049979  0  3.987292  0  0  -0.081777  -0.0563  0  3.954678  0
C  C44  1  0.18927257  0.93391781  0.80710593  1  0  -0.028064  0  3.718632  0  0  -0.052817  0  3.967428  0  0  -0.048757  0  3.98673  0  0  -0.081908  -0.055159  0  3.954182  0
C  C45  1  0.38200175  0.56635104  0.19285422  1  0  -0.029  0  3.719552  0  0  -0.054015  0  3.968049  0  0  -0.04997  0  3.98739  0  0  -0.081768  -0.05632  0  3.954771  0
C  C46  1  0.01287085  0.04087098  0.27232837  1  0  -0.207522  0  3.731168  0  0  -0.226437  0  3.984342  0  0  -0.234871  0  4.004401  0  0  -0.109541  -0.220909  0  3.970898  0
C  C47  1  0.74028138  0.45894025  0.72759061  1  0  -0.205266  0  3.731401  0  0  -0.223674  0  3.984446  0  0  -0.232113  0  4.004564  0  0  -0.108278  -0.218165  0  3.970964  0
C  C48  1  0.98712072  0.95913272  0.72768286  1  0  -0.20768  0  3.731464  0  0  -0.226538  0  3.98467  0  0  -0.234973  0  4.004726  0  0  -0.109462  -0.221009  0  3.971225  0
C  C49  1  0.25972182  0.54106012  0.27240392  1  0  -0.20548  0  3.73148  0  0  -0.223895  0  3.984513  0  0  -0.232333  0  4.004627  0  0  -0.108382  -0.218385  0  3.971035  0
C  C50  1  0.03527962  0.09758172  0.37985958  1  0  0.28423  0  3.807752  0  0  0.272891  0  4.067308  0  0  0.286925  0  4.082187  0  0  0.091487  0.263373  0  4.057143  0
C  C51  1  0.65468622  0.40233186  0.62003615  1  0  0.282765  0  3.808567  0  0  0.270557  0  4.068669  0  0  0.284568  0  4.083572  0  0  0.09021  0.261018  0  4.058501  0
C  C52  1  0.96470203  0.90241321  0.62015291  1  0  0.28449  0  3.807497  0  0  0.273081  0  4.067158  0  0  0.28711  0  4.082047  0  0  0.091545  0.263531  0  4.056992  0
C  C53  1  0.34531471  0.59766860  0.37995977  1  0  0.28277  0  3.808636  0  0  0.270593  0  4.068679  0  0  0.2846  0  4.083583  0  0  0.090248  0.261055  0  4.05851  0
C  C54  1  0.86206890  0.18025396  0.40653411  1  0  -0.199062  0  3.756374  0  0  -0.221663  0  4.019148  0  0  -0.228465  0  4.037169  0  0  -0.108484  -0.217294  0  4.007144  0
C  C55  1  0.45471799  0.31968140  0.59345286  1  0  -0.197248  0  3.757406  0  0  -0.219521  0  4.019859  0  0  -0.226317  0  4.037896  0  0  -0.107769  -0.215154  0  4.007824  0
C  C56  1  0.13789575  0.81974213  0.59347358  1  0  -0.199307  0  3.756584  0  0  -0.221865  0  4.019353  0  0  -0.228664  0  4.03737  0  0  -0.108635  -0.217505  0  4.007374  0
C  C57  1  0.54527919  0.68032257  0.40654048  1  0  -0.197268  0  3.757386  0  0  -0.219574  0  4.019857  0  0  -0.226377  0  4.037922  0  0  -0.107809  -0.215205  0  4.007819  0
C  C58  1  0.66633149  0.20549503  0.32669700  1  0  -0.034396  0  3.747148  0  0  -0.060088  0  3.998987  0  0  -0.055574  0  4.0164  0  0  -0.082991  -0.062798  0  3.987135  0
C  C59  1  0.33912733  0.29444167  0.67343023  1  0  -0.035674  0  3.749812  0  0  -0.062093  0  4.00184  0  0  -0.057585  0  4.019236  0  0  -0.084412  -0.064797  0  3.990049  0
C  C60  1  0.33363839  0.79450344  0.67330238  1  0  -0.034253  0  3.747181  0  0  -0.059995  0  3.999036  0  0  -0.055483  0  4.016451  0  0  -0.082894  -0.062706  0  3.987187  0
C  C61  1  0.66087604  0.70555934  0.32656292  1  0  -0.03557  0  3.74972  0  0  -0.062031  0  4.0018  0  0  -0.057516  0  4.019199  0  0  -0.084343  -0.064747  0  3.990001  0
C  C62  1  0.40266898  0.99632558  0.44594425  1  0  0.069275  0  3.604468  0  0  0.004733  0  3.88081  0  0  0.013062  0  3.884616  0  0  -0.064703  -0.000894  0  3.878056  0
C  C63  1  0.95613474  0.50360409  0.55399856  1  0  0.071631  0  3.605055  0  0  0.006983  0  3.8802  0  0  0.015227  0  3.884123  0  0  -0.063677  0.001378  0  3.877372  0
C  C64  1  0.59730956  0.00367214  0.55405484  1  0  0.069327  0  3.604212  0  0  0.004804  0  3.880579  0  0  0.013132  0  3.884391  0  0  -0.064671  -0.000846  0  3.877806  0
C  C65  1  0.04389011  0.49639734  0.44600082  1  0  0.071738  0  3.605181  0  0  0.00688  0  3.880435  0  0  0.015118  0  3.884358  0  0  -0.063639  0.001278  0  3.877606  0
O  O66  1  0.31820581  0.26320387  0.15844238  1  0  -0.670361  0  1.999436  0  0  -0.593637  0  2.233476  0  0  -0.624157  0  2.223053  0  0  -0.333976  -0.572361  0  2.239968  0
O  O67  1  0.16031188  0.23651895  0.84188983  1  0  -0.668942  0  1.997622  0  0  -0.592436  0  2.231582  0  0  -0.623014  0  2.22135  0  0  -0.33379  -0.571101  0  2.237902  0
O  O68  1  0.68178482  0.73680177  0.84155390  1  0  -0.670251  0  1.999462  0  0  -0.593524  0  2.233475  0  0  -0.624044  0  2.223057  0  0  -0.333881  -0.572247  0  2.239961  0
O  O69  1  0.83969116  0.76347992  0.15810438  1  0  -0.668992  0  1.997719  0  0  -0.592481  0  2.231652  0  0  -0.623063  0  2.221434  0  0  -0.333721  -0.571147  0  2.237976  0
O  O70  1  0.31917693  0.11026235  0.04555860  1  0  -0.65188  0  1.987479  0  0  -0.586642  0  2.218244  0  0  -0.614088  0  2.207919  0  0  -0.320604  -0.567403  0  2.224644  0
O  O71  1  0.27394243  0.38946161  0.95469901  1  0  -0.651776  0  1.985432  0  0  -0.586389  0  2.215983  0  0  -0.613822  0  2.20568  0  0  -0.321375  -0.567189  0  2.22242  0
O  O72  1  0.68080926  0.88974844  0.95444840  1  0  -0.65176  0  1.987252  0  0  -0.586534  0  2.218067  0  0  -0.61399  0  2.207761  0  0  -0.320575  -0.567288  0  2.224448  0
O  O73  1  0.72608298  0.61054255  0.04529716  1  0  -0.651851  0  1.985668  0  0  -0.586472  0  2.216231  0  0  -0.613903  0  2.205921  0  0  -0.32142  -0.567273  0  2.222673  0
O  O74  1  0.21907462  0.07955191  0.46515381  1  0  -0.285361  0  2.337832  0  0  -0.209218  0  2.574876  0  0  -0.229495  0  2.57922  0  0  -0.174455  -0.194885  0  2.571313  0
O  O75  1  0.75253208  0.42058958  0.53468771  1  0  -0.286923  0  2.339828  0  0  -0.210329  0  2.577048  0  0  -0.230585  0  2.58139  0  0  -0.175277  -0.195907  0  2.573382  0
O  O76  1  0.78092295  0.92044568  0.53485427  1  0  -0.285492  0  2.337671  0  0  -0.209403  0  2.574819  0  0  -0.229684  0  2.579172  0  0  -0.174573  -0.194991  0  2.571208  0
O  O77  1  0.24747732  0.57941118  0.46531271  1  0  -0.286923  0  2.33991  0  0  -0.210306  0  2.577204  0  0  -0.230559  0  2.581552  0  0  -0.175274  -0.195881  0  2.573537  0
O  O78  1  0.63828864  0.13342165  0.90131277  1  0  -0.814698  0  1.876218  0  0  -0.746076  0  2.064166  0  0  -0.770717  0  2.031894  0  0  -0.570383  -0.72874  0  2.086582  0
O  O79  1  0.73693492  0.36667748  0.09905130  1  0  -0.815969  0  1.874967  0  0  -0.746388  0  2.063909  0  0  -0.771122  0  2.031459  0  0  -0.570791  -0.728974  0  2.086449  0
O  O80  1  0.36172564  0.86658527  0.09869161  1  0  -0.814725  0  1.876214  0  0  -0.746152  0  2.064121  0  0  -0.770791  0  2.03185  0  0  -0.57048  -0.728814  0  2.086536  0
O  O81  1  0.26307888  0.63332239  0.90094696  1  0  -0.815936  0  1.874983  0  0  -0.746357  0  2.06395  0  0  -0.77109  0  2.031503  0  0  -0.570796  -0.728944  0  2.086489  0
