# generated using pymatgen
data_SrH14C14(N2O)6
_symmetry_space_group_name_H-M   'P 1'
_cell_length_a   6.88081491
_cell_length_b   8.86392453
_cell_length_c   37.39440475
_cell_angle_alpha   90.00018793
_cell_angle_beta   89.99999300
_cell_angle_gamma   89.99847353
_symmetry_Int_Tables_number   1
_chemical_formula_structural   SrH14C14(N2O)6
_chemical_formula_sum   'Sr4 H56 C56 N48 O24'
_cell_volume   2280.72303965
_cell_formula_units_Z   4
loop_
 _symmetry_equiv_pos_site_id
 _symmetry_equiv_pos_as_xyz
  1  'x, y, z'
loop_
 _atom_site_type_symbol
 _atom_site_label
 _atom_site_symmetry_multiplicity
 _atom_site_fract_x
 _atom_site_fract_y
 _atom_site_fract_z
 _atom_site_occupancy
 _atom_site_pbe_bader_charge
 _atom_site_pbe_bader_spin_density
 _atom_site_pbe_cm5_charge
 _atom_site_pbe_ddec_charge
 _atom_site_pbe_ddec_spin_density
 _atom_site_pbe_ddec_sum_bond_order
 _atom_site_pbe_magmom
Sr  Sr0  1  0.22625317  0.87172155  0.24999898  1  1.679086  0  0.965494  1.445059  0  1.473307  0
Sr  Sr1  1  0.27374977  0.37170889  0.75000059  1  1.67918  0  0.965425  1.444963  0  1.473272  0
Sr  Sr2  1  0.72624896  0.62828354  0.24999942  1  1.679187  0  0.96547  1.445079  0  1.473091  0
Sr  Sr3  1  0.77374847  0.12827877  0.74999970  1  1.679021  0  0.965532  1.445075  0  1.473222  0
H  H4  1  0.05238389  0.62582779  0.42039095  1  0.107886  0  0.10331  0.057689  0  1.055548  0
H  H5  1  0.44763033  0.12582951  0.57961030  1  0.108075  0  0.103332  0.057773  0  1.055475  0
H  H6  1  0.55238617  0.87418995  0.07960879  1  0.107769  0  0.103321  0.057763  0  1.055516  0
H  H7  1  0.94763195  0.37418386  0.92038999  1  0.10772  0  0.103324  0.057758  0  1.05545  0
H  H8  1  0.94762501  0.37417705  0.57960880  1  0.108097  0  0.103293  0.057696  0  1.055551  0
H  H9  1  0.55237858  0.87418548  0.42039319  1  0.107758  0  0.103334  0.057798  0  1.055486  0
H  H10  1  0.44763145  0.12581488  0.92039444  1  0.107855  0  0.103321  0.057755  0  1.055544  0
H  H11  1  0.05236387  0.62580518  0.07960681  1  0.107831  0  0.103341  0.057778  0  1.055472  0
H  H12  1  0.20840885  0.63227857  0.48217988  1  0.132944  0  0.109209  0.121311  0  1.051907  0
H  H13  1  0.29157318  0.13229174  0.51782405  1  0.132616  0  0.109205  0.121252  0  1.051914  0
H  H14  1  0.70839693  0.86772802  0.01781879  1  0.133045  0  0.109168  0.121205  0  1.051854  0
H  H15  1  0.79160106  0.36771698  0.98217838  1  0.132928  0  0.109156  0.121227  0  1.051922  0
H  H16  1  0.79161459  0.36772739  0.51781907  1  0.133029  0  0.109185  0.121238  0  1.051861  0
H  H17  1  0.70841829  0.86772438  0.48218051  1  0.132943  0  0.109201  0.121255  0  1.051974  0
H  H18  1  0.29157273  0.13228359  0.98218042  1  0.132611  0  0.109234  0.121397  0  1.051958  0
H  H19  1  0.20838459  0.63226078  0.01781789  1  0.133065  0  0.109251  0.121246  0  1.051828  0
H  H20  1  0.29967544  0.38747315  0.50971251  1  0.127225  0  0.112278  0.07608  0  1.023124  0
H  H21  1  0.20031679  0.88748734  0.49029028  1  0.127298  0  0.112359  0.076155  0  1.02314  0
H  H22  1  0.79968148  0.11252751  0.99028778  1  0.127195  0  0.112302  0.076145  0  1.023182  0
H  H23  1  0.70032085  0.61251942  0.00971240  1  0.127214  0  0.112274  0.076043  0  1.02322  0
H  H24  1  0.70034364  0.61253056  0.49028644  1  0.127272  0  0.112282  0.076092  0  1.023203  0
H  H25  1  0.79969212  0.11252314  0.50971294  1  0.127103  0  0.112286  0.076109  0  1.023203  0
H  H26  1  0.20029835  0.88748523  0.00971277  1  0.12708  0  0.112286  0.076094  0  1.023192  0
H  H27  1  0.29967062  0.38745721  0.99028601  1  0.127167  0  0.112269  0.076086  0  1.023221  0
H  H28  1  0.72707171  0.95420191  0.34897639  1  0.098118  0  0.137527  0.153383  0  0.935927  0
H  H29  1  0.77292770  0.45418342  0.65102085  1  0.098411  0  0.137509  0.153393  0  0.936004  0
H  H30  1  0.22708284  0.54581557  0.15102388  1  0.098291  0  0.137507  0.153412  0  0.935989  0
H  H31  1  0.27291230  0.04576252  0.84896874  1  0.097892  0  0.137387  0.15321  0  0.935985  0
H  H32  1  0.27291830  0.04580067  0.65102389  1  0.098211  0  0.137495  0.153415  0  0.936076  0
H  H33  1  0.22707829  0.54581804  0.34897970  1  0.098404  0  0.137517  0.153425  0  0.936007  0
H  H34  1  0.77291589  0.45418813  0.84897934  1  0.098287  0  0.137539  0.153448  0  0.93603  0
H  H35  1  0.72708062  0.95420847  0.15102485  1  0.09815  0  0.137508  0.153324  0  0.936059  0
H  H36  1  0.83529881  0.77739768  0.35939312  1  0.137153  0  0.137473  0.146284  0  0.967874  0
H  H37  1  0.66472116  0.27738468  0.64060344  1  0.137362  0  0.1374  0.146249  0  0.967773  0
H  H38  1  0.33528505  0.72261868  0.14060769  1  0.137365  0  0.137424  0.146183  0  0.967804  0
H  H39  1  0.16472151  0.22258268  0.85938588  1  0.137458  0  0.137429  0.146141  0  0.967896  0
H  H40  1  0.16469556  0.22260603  0.64060743  1  0.137518  0  0.137453  0.146336  0  0.967854  0
H  H41  1  0.33528920  0.72261677  0.35939577  1  0.137298  0  0.137433  0.146286  0  0.967719  0
H  H42  1  0.66471659  0.27738841  0.85939687  1  0.137355  0  0.137408  0.146245  0  0.967787  0
H  H43  1  0.83528594  0.77739959  0.14060799  1  0.137147  0  0.137464  0.146238  0  0.967812  0
H  H44  1  0.11698217  0.21807331  0.27072107  1  0.632415  0  0.341815  0.422778  0  0.858802  0
H  H45  1  0.38299839  0.71809707  0.72928613  1  0.633887  0  0.341874  0.422951  0  0.858591  0
H  H46  1  0.61695679  0.28183980  0.22931116  1  0.634142  0  0.341706  0.422762  0  0.858896  0
H  H47  1  0.88308192  0.78182688  0.77067658  1  0.63365  0  0.341898  0.422991  0  0.858583  0
H  H48  1  0.88297005  0.78202404  0.72923482  1  0.631303  0  0.342066  0.423033  0  0.858573  0
H  H49  1  0.61702941  0.28198336  0.27075239  1  0.631828  0  0.342063  0.423065  0  0.85846  0
H  H50  1  0.38299544  0.71806914  0.77072816  1  0.632212  0  0.341846  0.422894  0  0.858664  0
H  H51  1  0.11697930  0.21807980  0.22927931  1  0.632385  0  0.341855  0.422896  0  0.858644  0
H  H52  1  0.67860539  0.93932811  0.27049138  1  0.630818  0  0.309389  0.393935  0  0.935192  0
H  H53  1  0.82140760  0.43932772  0.72950879  1  0.631099  0  0.309336  0.393967  0  0.935185  0
H  H54  1  0.17861151  0.56068474  0.22950675  1  0.63073  0  0.309421  0.393978  0  0.935111  0
H  H55  1  0.32137877  0.06068264  0.77049391  1  0.630731  0  0.309372  0.393928  0  0.935212  0
H  H56  1  0.32138316  0.06068236  0.72950569  1  0.630816  0  0.309361  0.393923  0  0.9352  0
H  H57  1  0.17860275  0.56068502  0.27049497  1  0.630879  0  0.3094  0.393974  0  0.935134  0
H  H58  1  0.82138867  0.43931558  0.77049700  1  0.630792  0  0.3094  0.394031  0  0.935041  0
H  H59  1  0.67862287  0.93931430  0.22950370  1  0.630766  0  0.309505  0.394204  0  0.934806  0
C  C60  1  0.12402977  0.26666229  0.43374334  1  1.127634  0  0.245065  0.292167  0  4.050442  0
C  C61  1  0.37599273  0.76666708  0.56625668  1  1.12769  0  0.244933  0.292108  0  4.050356  0
C  C62  1  0.62401653  0.23335446  0.06625493  1  1.127485  0  0.245087  0.292002  0  4.050625  0
C  C63  1  0.87597733  0.73334615  0.93374534  1  1.127768  0  0.245081  0.29192  0  4.050818  0
C  C64  1  0.87597623  0.73334029  0.56625641  1  1.127678  0  0.24501  0.291937  0  4.050751  0
C  C65  1  0.62401908  0.23335017  0.43374574  1  1.127607  0  0.245187  0.292004  0  4.050748  0
C  C66  1  0.37597349  0.76665376  0.93374696  1  1.127593  0  0.245169  0.291999  0  4.05045  0
C  C67  1  0.12402867  0.26664628  0.06625440  1  1.127285  0  0.245194  0.292228  0  4.05066  0
C  C68  1  0.09823777  0.52248153  0.43387287  1  0.492661  0  0.051911  0.131418  0  3.974587  0
C  C69  1  0.40176835  0.02248403  0.56612883  1  0.492299  0  0.051955  0.131342  0  3.974317  0
C  C70  1  0.59823219  0.97753300  0.06612740  1  0.492997  0  0.051965  0.131288  0  3.974635  0
C  C71  1  0.90177224  0.47752691  0.93387280  1  0.492885  0  0.051857  0.131202  0  3.974711  0
C  C72  1  0.90177550  0.47752331  0.56612741  1  0.492465  0  0.051938  0.131335  0  3.974711  0
C  C73  1  0.59823038  0.97752983  0.43387466  1  0.492988  0  0.051934  0.131222  0  3.974668  0
C  C74  1  0.40176945  0.02247522  0.93387529  1  0.492847  0  0.052005  0.131428  0  3.974532  0
C  C75  1  0.09822649  0.52246213  0.06612588  1  0.493073  0  0.052002  0.131304  0  3.974742  0
C  C76  1  0.18333076  0.52792654  0.46762739  1  -0.035784  0  -0.08241  -0.166125  0  3.919634  0
C  C77  1  0.31666209  0.02793148  0.53237485  1  -0.035442  0  -0.082508  -0.166291  0  3.9196  0
C  C78  1  0.68332253  0.97208396  0.03237262  1  -0.035119  0  -0.082357  -0.165895  0  3.919392  0
C  C79  1  0.81667773  0.47207559  0.96762678  1  -0.035632  0  -0.082331  -0.166039  0  3.919438  0
C  C80  1  0.81668686  0.47208055  0.53237209  1  -0.035168  0  -0.082379  -0.165953  0  3.919453  0
C  C81  1  0.68333519  0.97207899  0.46762838  1  -0.035168  0  -0.08238  -0.165912  0  3.919537  0
C  C82  1  0.31665440  0.02792652  0.96762766  1  -0.035438  0  -0.082481  -0.166336  0  3.919609  0
C  C83  1  0.18331229  0.52790556  0.03237056  1  -0.03521  0  -0.082493  -0.165955  0  3.919518  0
C  C84  1  0.23461626  0.39057611  0.48303232  1  0.501557  0  0.062744  0.139762  0  3.937884  0
C  C85  1  0.26537877  0.89058930  0.51696834  1  0.501326  0  0.062761  0.139956  0  3.937872  0
C  C86  1  0.73461460  0.10942706  0.01696649  1  0.500909  0  0.062676  0.139622  0  3.937921  0
C  C87  1  0.76538057  0.60942284  0.98303234  1  0.50185  0  0.062764  0.139928  0  3.937869  0
C  C88  1  0.76539701  0.60942760  0.51696716  1  0.500962  0  0.062762  0.139695  0  3.937944  0
C  C89  1  0.73462577  0.10942456  0.48303381  1  0.501235  0  0.062657  0.139605  0  3.937893  0
C  C90  1  0.26536088  0.89058342  0.98303432  1  0.501688  0  0.062747  0.139914  0  3.937631  0
C  C91  1  0.23460944  0.39055943  0.01696553  1  0.501065  0  0.062755  0.139682  0  3.938015  0
C  C92  1  0.08519672  0.12249957  0.41559485  1  0.937641  0  0.232429  0.185644  0  3.994731  0
C  C93  1  0.41482197  0.62250266  0.58440346  1  0.937158  0  0.232335  0.185534  0  3.994772  0
C  C94  1  0.58518290  0.37751799  0.08440262  1  0.937336  0  0.232351  0.185541  0  3.99499  0
C  C95  1  0.91481186  0.87750298  0.91559616  1  0.937223  0  0.232417  0.185606  0  3.9948  0
C  C96  1  0.91480201  0.87750188  0.58440490  1  0.937647  0  0.232417  0.185621  0  3.994954  0
C  C97  1  0.58519420  0.37751233  0.41559816  1  0.937385  0  0.232322  0.185576  0  3.995003  0
C  C98  1  0.41480712  0.62249023  0.91559980  1  0.937329  0  0.232458  0.185687  0  3.995072  0
C  C99  1  0.08520286  0.12248380  0.08440359  1  0.937596  0  0.232416  0.185465  0  3.995101  0
C  C100  1  0.86637308  0.89474487  0.35179631  1  0.315754  0  -0.03479  -0.2678  0  3.863055  0
C  C101  1  0.63363998  0.39473375  0.64820222  1  0.315128  0  -0.034636  -0.267805  0  3.862713  0
C  C102  1  0.36637057  0.60526858  0.14820531  1  0.315363  0  -0.034653  -0.267709  0  3.862749  0
C  C103  1  0.13362400  0.10523426  0.85179111  1  0.315582  0  -0.034643  -0.267439  0  3.863128  0
C  C104  1  0.13362129  0.10525658  0.64820370  1  0.315309  0  -0.034751  -0.268027  0  3.863307  0
C  C105  1  0.36637619  0.60527108  0.35179753  1  0.3153  0  -0.034695  -0.267933  0  3.862791  0
C  C106  1  0.63362526  0.39473738  0.85179845  1  0.315491  0  -0.034728  -0.267972  0  3.86295  0
C  C107  1  0.86637037  0.89474576  0.14820409  1  0.315686  0  -0.034733  -0.267616  0  3.863011  0
C  C108  1  0.97787151  0.89582990  0.31652499  1  1.597461  0  0.216758  0.639103  0  4.177895  0
C  C109  1  0.52213134  0.39582045  0.68347461  1  1.597564  0  0.216741  0.639128  0  4.177902  0
C  C110  1  0.47788351  0.60418010  0.18347582  1  1.597658  0  0.216829  0.63931  0  4.177763  0
C  C111  1  0.02210384  0.10414312  0.81652273  1  1.596864  0  0.216691  0.638925  0  4.177564  0
C  C112  1  0.02211268  0.10416478  0.68347288  1  1.597485  0  0.216903  0.639241  0  4.177057  0
C  C113  1  0.47787030  0.60417987  0.31652567  1  1.597494  0  0.216671  0.639112  0  4.177921  0
C  C114  1  0.52212394  0.39581684  0.81652740  1  1.597394  0  0.216751  0.639182  0  4.177621  0
C  C115  1  0.97788036  0.89583013  0.18347327  1  1.597425  0  0.216832  0.639038  0  4.177236  0
N  N116  1  0.06964746  0.39230009  0.41635336  1  -1.175969  0  -0.32071  -0.338285  0  3.292975  0
N  N117  1  0.43037076  0.89230398  0.58364784  1  -1.176193  0  -0.320674  -0.338166  0  3.292789  0
N  N118  1  0.56963701  0.10771554  0.08364599  1  -1.176158  0  -0.320787  -0.338191  0  3.292923  0
N  N119  1  0.93036258  0.60770811  0.91635526  1  -1.176165  0  -0.320712  -0.338063  0  3.293138  0
N  N120  1  0.93035854  0.60770248  0.58364693  1  -1.176165  0  -0.320759  -0.338219  0  3.293184  0
N  N121  1  0.56963814  0.10771101  0.41635565  1  -1.17604  0  -0.320814  -0.338203  0  3.293125  0
N  N122  1  0.43036318  0.89229155  0.91635644  1  -1.175796  0  -0.320826  -0.33824  0  3.292941  0
N  N123  1  0.06964051  0.39228319  0.08364476  1  -1.1761  0  -0.320816  -0.338248  0  3.293109  0
N  N124  1  0.20461626  0.25866860  0.46640544  1  -1.201813  0  -0.307177  -0.317195  0  3.278286  0
N  N125  1  0.29539198  0.75868139  0.53359538  1  -1.201374  0  -0.307116  -0.317269  0  3.278182  0
N  N126  1  0.70460862  0.24133632  0.03359336  1  -1.201811  0  -0.307131  -0.317141  0  3.278359  0
N  N127  1  0.79538642  0.74132787  0.96640692  1  -1.202174  0  -0.307191  -0.317231  0  3.2785  0
N  N128  1  0.79539410  0.74133623  0.53359404  1  -1.201866  0  -0.307119  -0.317065  0  3.278376  0
N  N129  1  0.70461838  0.24133473  0.46640758  1  -1.20215  0  -0.307124  -0.317067  0  3.27822  0
N  N130  1  0.29536831  0.75867190  0.96640879  1  -1.202083  0  -0.307217  -0.317239  0  3.278011  0
N  N131  1  0.20461958  0.25865102  0.03359310  1  -1.201895  0  -0.307231  -0.31725  0  3.278397  0
N  N132  1  0.13483169  0.98344848  0.42854472  1  -0.539286  0  -0.170726  -0.19331  0  3.220389  0
N  N133  1  0.36518342  0.48345520  0.57145307  1  -0.539609  0  -0.17077  -0.193324  0  3.220417  0
N  N134  1  0.63481855  0.51656528  0.07145288  1  -0.539874  0  -0.170758  -0.193258  0  3.220561  0
N  N135  1  0.86517978  0.01656101  0.92854374  1  -0.539507  0  -0.170715  -0.193187  0  3.220455  0
N  N136  1  0.86516850  0.01655184  0.57145503  1  -0.539348  0  -0.170792  -0.193363  0  3.220523  0
N  N137  1  0.63483129  0.51655979  0.42854775  1  -0.539638  0  -0.170743  -0.193251  0  3.220524  0
N  N138  1  0.36517000  0.48344068  0.92854794  1  -0.539688  0  -0.17078  -0.193327  0  3.220597  0
N  N139  1  0.13483203  0.98342916  0.07145467  1  -0.539576  0  -0.17075  -0.193266  0  3.220581  0
N  N140  1  0.06366015  0.88407661  0.40612662  1  -0.091552  0  -0.068892  -0.113742  0  3.149819  0
N  N141  1  0.43635109  0.38407764  0.59387002  1  -0.091308  0  -0.068792  -0.113741  0  3.150135  0
N  N142  1  0.56365085  0.61593412  0.09387178  1  -0.09146  0  -0.068746  -0.113762  0  3.150178  0
N  N143  1  0.93634991  0.11592130  0.90612358  1  -0.091182  0  -0.068845  -0.113824  0  3.150138  0
N  N144  1  0.93633713  0.11592710  0.59387232  1  -0.091143  0  -0.068804  -0.113697  0  3.149867  0
N  N145  1  0.56365927  0.61593058  0.40612946  1  -0.090835  0  -0.068771  -0.113808  0  3.15013  0
N  N146  1  0.43634061  0.38406733  0.90613037  1  -0.090902  0  -0.068736  -0.113677  0  3.150056  0
N  N147  1  0.06365318  0.88406210  0.09387349  1  -0.09113  0  -0.068703  -0.113625  0  3.150115  0
N  N148  1  0.97282002  0.96410037  0.38063648  1  -0.326142  0  -0.012859  0.282243  0  3.856752  0
N  N149  1  0.52718632  0.46408770  0.61936157  1  -0.326055  0  -0.012979  0.282251  0  3.856745  0
N  N150  1  0.47281847  0.53591876  0.11936273  1  -0.326218  0  -0.012974  0.282203  0  3.856723  0
N  N151  1  0.02718137  0.03589382  0.88063417  1  -0.326156  0  -0.012856  0.28218  0  3.857022  0
N  N152  1  0.02717581  0.03590447  0.61936300  1  -0.326653  0  -0.012916  0.282257  0  3.856759  0
N  N153  1  0.47282549  0.53591488  0.38063845  1  -0.326712  0  -0.012937  0.282378  0  3.856406  0
N  N154  1  0.52717590  0.46408607  0.88064023  1  -0.326688  0  -0.012964  0.282237  0  3.856522  0
N  N155  1  0.97281881  0.96409071  0.11936290  1  -0.32661  0  -0.012991  0.282121  0  3.856986  0
N  N156  1  0.98342630  0.11189425  0.38507210  1  -0.58768  0  -0.188656  -0.259792  0  3.084513  0
N  N157  1  0.51658187  0.61188687  0.61492647  1  -0.587163  0  -0.188559  -0.259689  0  3.084375  0
N  N158  1  0.48342294  0.38812066  0.11492591  1  -0.586834  0  -0.188623  -0.259658  0  3.084389  0
N  N159  1  0.01657363  0.88809661  0.88507180  1  -0.587444  0  -0.188672  -0.259679  0  3.084608  0
N  N160  1  0.01656807  0.88810946  0.61492765  1  -0.587567  0  -0.18861  -0.259696  0  3.08456  0
N  N161  1  0.48343140  0.38812022  0.38507488  1  -0.58722  0  -0.18865  -0.259768  0  3.084419  0
N  N162  1  0.51656853  0.61188418  0.88507758  1  -0.587192  0  -0.188701  -0.259775  0  3.084571  0
N  N163  1  0.98343237  0.11188453  0.11492607  1  -0.587242  0  -0.188714  -0.259728  0  3.084631  0
O  O164  1  0.15036702  0.94104535  0.31537430  1  -1.195672  0  -0.358148  -0.5791  0  2.110664  0
O  O165  1  0.34964518  0.44101781  0.68462399  1  -1.195504  0  -0.35817  -0.579119  0  2.111047  0
O  O166  1  0.65036675  0.55897599  0.18462437  1  -1.195767  0  -0.35821  -0.579153  0  2.110938  0
O  O167  1  0.84960979  0.05894570  0.81537389  1  -1.195498  0  -0.357999  -0.578856  0  2.110358  0
O  O168  1  0.84963898  0.05892790  0.68462492  1  -1.195877  0  -0.358186  -0.57911  0  2.110535  0
O  O169  1  0.65035355  0.55897236  0.31537602  1  -1.195504  0  -0.358136  -0.579116  0  2.110914  0
O  O170  1  0.34962907  0.44100854  0.81537751  1  -1.195645  0  -0.358182  -0.579092  0  2.110776  0
O  O171  1  0.15037150  0.94104898  0.18462425  1  -1.1958  0  -0.358134  -0.579023  0  2.11038  0
O  O172  1  0.88467849  0.84572195  0.28892940  1  -1.261376  0  -0.39172  -0.715426  0  2.26889  0
O  O173  1  0.61534932  0.34571771  0.71107016  1  -1.261541  0  -0.391669  -0.715389  0  2.268726  0
O  O174  1  0.38466838  0.65428548  0.21107141  1  -1.261443  0  -0.391722  -0.715537  0  2.268695  0
O  O175  1  0.11530127  0.15423828  0.78892504  1  -1.260953  0  -0.391752  -0.715406  0  2.268663  0
O  O176  1  0.11529408  0.15429529  0.71106874  1  -1.254488  0  -0.391872  -0.715508  0  2.268321  0
O  O177  1  0.38466104  0.65430067  0.28893092  1  -1.254796  0  -0.391652  -0.71541  0  2.268671  0
O  O178  1  0.61533181  0.34571372  0.78893127  1  -1.254643  0  -0.391655  -0.715395  0  2.268643  0
O  O179  1  0.88470327  0.84571805  0.21107043  1  -1.254538  0  -0.391866  -0.715533  0  2.26861  0
O  O180  1  0.58820309  0.95323246  0.24999634  1  -1.290309  0  -0.620329  -0.825665  0  1.944711  0
O  O181  1  0.91180798  0.45323723  0.75000437  1  -1.290661  0  -0.620224  -0.825561  0  1.94476  0
O  O182  1  0.08819657  0.54676535  0.25000019  1  -1.290473  0  -0.620298  -0.825498  0  1.944763  0
O  O183  1  0.41179418  0.04678027  0.74999966  1  -1.290222  0  -0.620199  -0.825418  0  1.944888  0
O  O184  1  0.16587413  0.16350879  0.24999923  1  -1.243317  0  -0.592961  -0.801808  0  1.941173  0
O  O185  1  0.33411410  0.66351016  0.75000499  1  -1.244594  0  -0.592966  -0.801951  0  1.941002  0
O  O186  1  0.66588463  0.33647889  0.25001803  1  -1.244486  0  -0.593032  -0.801958  0  1.941083  0
O  O187  1  0.83413332  0.83649040  0.74997511  1  -1.243458  0  -0.593265  -0.802188  0  1.941035  0
