# generated using pymatgen
data_Cu2H11(C4N)4
_symmetry_space_group_name_H-M   'P 1'
_cell_length_a   25.71792300
_cell_length_b   27.51840424
_cell_length_c   28.04299526
_cell_angle_alpha   90.96665682
_cell_angle_beta   91.09631685
_cell_angle_gamma   90.26144818
_symmetry_Int_Tables_number   1
_chemical_formula_structural   Cu2H11(C4N)4
_chemical_formula_sum   'Cu12 H66 C96 N24'
_cell_volume   19839.78811085
_cell_formula_units_Z   6
loop_
 _symmetry_equiv_pos_site_id
 _symmetry_equiv_pos_as_xyz
  1  'x, y, z'
loop_
 _atom_site_type_symbol
 _atom_site_label
 _atom_site_symmetry_multiplicity
 _atom_site_fract_x
 _atom_site_fract_y
 _atom_site_fract_z
 _atom_site_occupancy
 _atom_site_pbe_bader_charge
 _atom_site_pbe_bader_spin_density
 _atom_site_pbe_cm5_charge
 _atom_site_pbe_ddec_charge
 _atom_site_pbe_ddec_spin_density
 _atom_site_pbe_ddec_sum_bond_order
 _atom_site_pbe_magmom
Cu  Cu0  1  0.77824313  0.75850430  0.84549290  1  0.444213  0  0.483803  0.204695  0  2.124805  0
Cu  Cu1  1  0.88728549  0.77295097  0.80055604  1  0.54003  0  0.48206  0.203115  0  2.115241  0
Cu  Cu2  1  0.78903731  0.82807282  0.75717487  1  0.544573  0  0.485185  0.210641  0  2.100417  0
Cu  Cu3  1  0.76373967  0.21606128  0.15216521  1  0.544136  0  0.485121  0.211164  0  2.096863  0
Cu  Cu4  1  0.84781700  0.20212487  0.23651370  1  0.543988  0  0.486137  0.206659  0  2.121726  0
Cu  Cu5  1  0.78300560  0.11334732  0.19953430  1  0.538945  0  0.48519  0.202415  0  2.132066  0
Cu  Cu6  1  0.25612393  0.79871586  0.13317528  1  0.540687  0  0.486279  0.205149  0  2.135523  0
Cu  Cu7  1  0.17735828  0.79654905  0.21784316  1  0.547699  0  0.488281  0.211636  0  2.10657  0
Cu  Cu8  1  0.23346260  0.89535123  0.18798120  1  0.539999  0  0.483996  0.203095  0  2.122648  0
Cu  Cu9  1  0.18501148  0.24158241  0.87085654  1  -0.248078  0  0.487843  0.20618  0  2.135043  0
Cu  Cu10  1  0.08513525  0.20930023  0.81370756  1  0.540886  0  0.481813  0.202376  0  2.115597  0
Cu  Cu11  1  0.19570632  0.16861144  0.78288902  1  0.547317  0  0.48634  0.212373  0  2.0992  0
H  H12  1  0.80146596  0.66932860  0.91477980  1  0.726007  0  0.120234  0.112275  0  0.987005  0
H  H13  1  0.95620701  0.70431519  0.86702311  1  0.08686  0  0.119957  0.111103  0  0.990927  0
H  H14  1  0.69013739  0.89498547  0.77005387  1  0.087665  0  0.1199  0.113463  0  0.988181  0
H  H15  1  0.68292665  0.80651793  0.89602236  1  0.745207  0  0.119358  0.111205  0  0.991667  0
H  H16  1  0.97664495  0.82586057  0.74432714  1  0.08104  0  0.12033  0.112929  0  0.987228  0
H  H17  1  0.84067930  0.88167228  0.67046404  1  0.095688  0  0.120194  0.111479  0  0.989553  0
H  H18  1  0.80414390  0.31254283  0.10705285  1  0.09396  0  0.119466  0.110854  0  0.990922  0
H  H19  1  0.92658532  0.28390891  0.21074543  1  0.106745  0  0.120339  0.112791  0  0.986809  0
H  H20  1  0.71374236  0.04649430  0.13214073  1  0.07355  0  0.11995  0.110403  0  0.991622  0
H  H21  1  0.67404178  0.18738341  0.07561788  1  0.107134  0  0.12021  0.113016  0  0.987065  0
H  H22  1  0.91052101  0.15613045  0.32434753  1  0.096309  0  0.120554  0.111933  0  0.989857  0
H  H23  1  0.83614838  0.02906202  0.25956996  1  0.103873  0  0.120547  0.112868  0  0.986254  0
H  H24  1  0.21136281  0.71401806  0.06865609  1  0.097287  0  0.120355  0.112732  0  0.987172  0
H  H25  1  0.10876155  0.70480781  0.18889764  1  0.077484  0  0.120604  0.111889  0  0.988162  0
H  H26  1  0.30123082  0.96968264  0.12731763  1  0.083722  0  0.12034  0.111696  0  0.990288  0
H  H27  1  0.34983587  0.83119341  0.06783916  1  0.092759  0  0.120446  0.112932  0  0.986949  0
H  H28  1  0.11446930  0.83368892  0.30731057  1  0.099097  0  0.12015  0.111299  0  0.990266  0
H  H29  1  0.17351999  0.96955211  0.25375719  1  0.11453  0  0.120447  0.112824  0  0.98663  0
H  H30  1  0.13946892  0.32208790  0.94114916  1  0.668936  0  0.120329  0.111788  0  0.990181  0
H  H31  1  0.99835505  0.26307688  0.87558881  1  0.196762  0  0.120639  0.11283  0  0.987892  0
H  H32  1  0.30049745  0.11611020  0.80994739  1  0.116355  0  0.120407  0.111229  0  0.989636  0
H  H33  1  0.27981330  0.20971594  0.93375117  1  0.736201  0  0.120267  0.112746  0  0.986684  0
H  H34  1  0.01224317  0.14416931  0.74644176  1  0.123877  0  0.120238  0.112703  0  0.986934  0
H  H35  1  0.16290600  0.10421761  0.69205682  1  0.079601  0  0.120178  0.111403  0  0.989847  0
H  H36  1  0.06545511  0.04489834  0.53535932  1  0.056408  0  0.098207  0.103648  0  1.004876  0
H  H37  1  0.95725501  0.92520733  0.52729988  1  0.071866  0  0.098606  0.104552  0  1.003271  0
H  H38  1  0.06488285  0.92758794  0.46378330  1  0.058037  0  0.098285  0.104336  0  1.003938  0
H  H39  1  0.95780327  0.04703889  0.47127937  1  0.040077  0  0.098618  0.10464  0  1.003517  0
H  H40  1  0.00689284  0.98377200  0.66425514  1  0.06368  0  0.096008  0.096006  0  1.027745  0
H  H41  1  0.00813677  0.99341226  0.33466835  1  0.027411  0  0.095706  0.095127  0  1.028748  0
H  H42  1  0.03962802  0.53785461  0.10238438  1  0.050321  0  0.098565  0.104793  0  1.003471  0
H  H43  1  0.94228988  0.54723128  0.97640841  1  0.695051  0  0.098286  0.102687  0  1.011467  0
H  H44  1  0.91809014  0.48370663  0.09050291  1  0.050998  0  0.098464  0.106176  0  1.002211  0
H  H45  1  0.04193290  0.47253794  0.98994611  1  0.72948  0  0.099359  0.104918  0  1.001389  0
H  H46  1  0.02693766  0.67342171  0.02855802  1  0.01079  0  0.096322  0.098156  0  1.014795  0
H  H47  1  0.96673491  0.34296175  0.03911664  1  0.071627  0  0.095792  0.096797  0  1.024532  0
H  H48  1  0.54907433  0.05204298  0.01363821  1  0.04681  0  0.098983  0.103473  0  1.011083  0
H  H49  1  0.53641485  0.94370968  0.90155856  1  0.625874  0  0.098541  0.104787  0  1.008998  0
H  H50  1  0.48051496  0.05855713  0.89479293  1  0.517228  0  0.097986  0.104563  0  1.003551  0
H  H51  1  0.46993428  0.96648930  0.01668796  1  0.016059  0  0.098839  0.103026  0  1.012484  0
H  H52  1  0.68018328  0.96139974  0.98167126  1  0.724765  0  0.097235  0.099556  0  1.00607  0
H  H53  1  0.33554413  0.04568514  0.96835749  1  0.607875  0  0.09627  0.097546  0  1.017119  0
H  H54  1  0.88503456  0.60956727  0.95208449  1  0.699545  0  0.099971  0.101589  0  0.995627  0
H  H55  1  0.97998044  0.67784037  0.95372550  1  0.647096  0  0.095545  0.095503  0  1.001586  0
H  H56  1  0.95536193  0.33551912  0.12566735  1  0.0643  0  0.099008  0.09954  0  0.993665  0
H  H57  1  0.86200682  0.40035149  0.10101978  1  0.050505  0  0.09805  0.102397  0  0.994674  0
H  H58  1  0.11621534  0.66789309  0.04963294  1  0.054203  0  0.098088  0.096507  0  0.998852  0
H  H59  1  0.07358479  0.62187498  0.14012920  1  0.060946  0  0.098234  0.102342  0  0.994192  0
H  H60  1  0.98444507  0.32051154  0.96035854  1  0.616379  0  0.09977  0.100828  0  0.995875  0
H  H61  1  0.07715833  0.39130490  0.96833397  1  0.716115  0  0.097275  0.098703  0  0.997849  0
H  H62  1  0.60763176  0.91967099  0.84056938  1  0.055656  0  0.1004  0.103292  0  0.992466  0
H  H63  1  0.67007080  0.89340710  0.93079531  1  0.588961  0  0.095341  0.093336  0  1.006121  0
H  H64  1  0.33779145  0.12639653  0.94984766  1  0.550493  0  0.097944  0.096051  0  0.999415  0
H  H65  1  0.39047561  0.08992927  0.85858935  1  0.040382  0  0.097863  0.102256  0  0.996068  0
H  H66  1  0.61584575  0.10570105  0.03583124  1  0.048598  0  0.10093  0.101978  0  0.994476  0
H  H67  1  0.68566879  0.01638884  0.04968429  1  0.031022  0  0.095818  0.095463  0  1.002931  0
H  H68  1  0.40561909  0.91317016  0.03591822  1  0.044409  0  0.100222  0.100421  0  0.996193  0
H  H69  1  0.33114611  0.99998937  0.04244608  1  0.059539  0  0.096201  0.097021  0  1.000154  0
H  H70  1  0.99469559  0.90492784  0.68281301  1  0.077096  0  0.099208  0.099346  0  0.996721  0
H  H71  1  0.91095271  0.90213112  0.60308792  1  0.057833  0  0.097571  0.100673  0  0.996242  0
H  H72  1  0.09127451  0.97911258  0.31620486  1  0.052555  0  0.099206  0.098972  0  0.998515  0
H  H73  1  0.08514433  0.89075823  0.38156706  1  0.056785  0  0.097775  0.101047  0  0.996884  0
H  H74  1  0.01121903  0.06436479  0.68370613  1  0.064717  0  0.09921  0.099689  0  0.997022  0
H  H75  1  0.10473596  0.06879906  0.61724405  1  0.03015  0  0.097664  0.100951  0  0.994799  0
H  H76  1  0.92246106  0.00989121  0.31919365  1  0.02319  0  0.099304  0.099829  0  0.996672  0
H  H77  1  0.93619139  0.09254367  0.39356684  1  0.042863  0  0.09775  0.100995  0  0.995402  0
C  C78  1  0.83578917  0.68334639  0.89761041  1  0.00993  0  0.005116  -0.057825  0  3.953266  0
C  C79  1  0.88846422  0.67218552  0.90593216  1  0.275734  0  -0.039302  0.014468  0  4.12598  0
C  C80  1  0.91489959  0.70196824  0.87394216  1  0.145805  0  0.005851  -0.056159  0  3.947388  0
C  C81  1  0.69433773  0.86787871  0.79753677  1  0.394165  0  0.002997  -0.062665  0  3.955838  0
C  C82  1  0.66927695  0.86466183  0.84148295  1  0.053179  0  -0.040117  0.014978  0  4.11948  0
C  C83  1  0.69152700  0.82333061  0.86230517  1  -0.224346  0  0.003434  -0.060149  0  3.955881  0
C  C84  1  0.93794534  0.83488918  0.73120552  1  0.404775  0  0.005183  -0.060323  0  3.956593  0
C  C85  1  0.92324083  0.86554025  0.69369790  1  0.062195  0  -0.040188  0.014233  0  4.129717  0
C  C86  1  0.86857973  0.86270068  0.69283570  1  0.389089  0  0.006903  -0.053192  0  3.943709  0
C  C87  1  0.82832699  0.30042802  0.13666522  1  0.389353  0  0.005687  -0.054393  0  3.948087  0
C  C88  1  0.87933933  0.31444747  0.14972351  1  0.037763  0  -0.040091  0.014298  0  4.124739  0
C  C89  1  0.89125643  0.28511490  0.18896613  1  0.369983  0  0.004951  -0.058095  0  3.954512  0
C  C90  1  0.71017715  0.08463836  0.12345321  1  0.398443  0  0.006412  -0.054601  0  3.946841  0
C  C91  1  0.67941778  0.10671520  0.08797237  1  0.067913  0  -0.039558  0.014509  0  4.128363  0
C  C92  1  0.68918655  0.15666835  0.09522067  1  0.356893  0  0.00496  -0.060076  0  3.950146  0
C  C93  1  0.88682235  0.13007650  0.30406139  1  0.380361  0  0.007252  -0.053941  0  3.94398  0
C  C94  1  0.88636736  0.07898896  0.30571089  1  0.058239  0  -0.039868  0.014931  0  4.131142  0
C  C95  1  0.84938615  0.06519215  0.27037555  1  0.361884  0  0.006418  -0.057907  0  3.954364  0
C  C96  1  0.19166101  0.71728919  0.10245753  1  0.345818  0  0.005217  -0.058489  0  3.956645  0
C  C97  1  0.14648420  0.69351381  0.11749897  1  0.094541  0  -0.040161  0.01431  0  4.127205  0
C  C98  1  0.13965852  0.71192633  0.16407035  1  0.405212  0  0.007531  -0.051006  0  3.939244  0
C  C99  1  0.30692947  0.93182605  0.11736071  1  0.425225  0  0.006872  -0.054922  0  3.942405  0
C  C100  1  0.34028702  0.91128741  0.08334483  1  -0.006998  0  -0.03924  0.014654  0  4.132177  0
C  C101  1  0.33250828  0.86097982  0.08772436  1  0.417448  0  0.005792  -0.057757  0  3.954453  0
C  C102  1  0.13464139  0.86265977  0.28936376  1  0.380027  0  0.0074  -0.052681  0  3.937799  0
C  C103  1  0.13042700  0.91334572  0.29547900  1  0.055352  0  -0.04037  0.01483  0  4.129405  0
C  C104  1  0.16422520  0.93197943  0.26137246  1  0.369679  0  0.005765  -0.059403  0  3.956285  0
C  C105  1  0.10987156  0.30371366  0.91930500  1  -0.622216  0  0.006308  -0.05513  0  3.946295  0
C  C106  1  0.05536888  0.30550099  0.92238114  1  0.007588  0  -0.039972  0.014527  0  4.129754  0
C  C107  1  0.03786438  0.27282400  0.88636351  1  0.11276  0  0.006085  -0.057902  0  3.953891  0
C  C108  1  0.28969956  0.14389352  0.83579297  1  0.349511  0  0.00767  -0.049357  0  3.935885  0
C  C109  1  0.30855529  0.15211971  0.88270879  1  -0.173092  0  -0.04035  0.013698  0  4.127312  0
C  C110  1  0.27854455  0.19130829  0.89918475  1  -0.127942  0  0.005538  -0.057921  0  3.958791  0
C  C111  1  0.05318109  0.13981221  0.73871201  1  0.408325  0  0.005513  -0.059456  0  3.957688  0
C  C112  1  0.07654497  0.10988469  0.70414795  1  -0.04442  0  -0.040673  0.013846  0  4.130123  0
C  C113  1  0.12997982  0.11992903  0.71029544  1  0.437942  0  0.007464  -0.051506  0  3.938993  0
C  C114  1  0.04168016  0.01805082  0.55325956  1  -0.030438  0  -0.095134  -0.194846  0  3.935184  0
C  C115  1  0.01172863  0.98494977  0.52590649  1  -0.015944  0  -0.010955  0.079729  0  4.045541  0
C  C116  1  0.98047493  0.95105246  0.54873021  1  -0.039789  0  -0.095774  -0.195739  0  3.933417  0
C  C117  1  0.97894121  0.94962404  0.59883348  1  -0.030929  0  -0.017134  0.121685  0  4.082719  0
C  C118  1  0.00859125  0.98381222  0.62542817  1  -0.081139  0  -0.09633  -0.193778  0  3.916959  0
C  C119  1  0.03972260  0.01853654  0.60339515  1  -0.037796  0  -0.017052  0.121228  0  4.083643  0
C  C120  1  0.01138885  0.98703115  0.47291384  1  -0.065722  0  -0.010046  0.081359  0  4.042647  0
C  C121  1  0.04058379  0.95431699  0.44576368  1  -0.037579  0  -0.095199  -0.19558  0  3.93333  0
C  C122  1  0.04117641  0.95731931  0.39570467  1  0.009944  0  -0.016887  0.121487  0  4.085903  0
C  C123  1  0.00904693  0.99160257  0.37348567  1  -0.01406  0  -0.09685  -0.194478  0  3.923274  0
C  C124  1  0.97823145  0.02379782  0.39986361  1  -0.015736  0  -0.017456  0.121581  0  4.086333  0
C  C125  1  0.98113747  0.02211202  0.44994525  1  -0.003366  0  -0.095047  -0.19581  0  3.933601  0
C  C126  1  0.02285430  0.55954341  0.07376110  1  -0.007311  0  -0.095231  -0.195004  0  3.933274  0
C  C127  1  0.98921749  0.53737765  0.03993631  1  -0.043237  0  -0.00942  0.079109  0  4.038196  0
C  C128  1  0.96794919  0.56488877  0.00293135  1  -0.669022  0  -0.09522  -0.192356  0  3.929405  0
C  C129  1  0.98062815  0.61443287  0.99866547  1  -0.121564  0  -0.016971  0.120569  0  4.08639  0
C  C130  1  0.01679258  0.63501102  0.03137047  1  0.016951  0  -0.095745  -0.194733  0  3.921605  0
C  C131  1  0.03813210  0.60835675  0.06919230  1  -0.085789  0  -0.016721  0.12203  0  4.078716  0
C  C132  1  0.98086240  0.48373396  0.04039135  1  0.007488  0  -0.009789  0.082179  0  4.040511  0
C  C133  1  0.94313446  0.46147515  0.06806412  1  -0.022197  0  -0.096246  -0.198857  0  3.935106  0
C  C134  1  0.93863112  0.41042359  0.06861218  1  -0.01183  0  -0.015712  0.123915  0  4.07159  0
C  C135  1  0.97084391  0.38243344  0.03924710  1  -0.07757  0  -0.095611  -0.194641  0  3.921651  0
C  C136  1  0.00773826  0.40406898  0.00994425  1  -0.62148  0  -0.017243  0.121475  0  4.087642  0
C  C137  1  0.01304209  0.45489172  0.01192985  1  -0.750617  0  -0.094256  -0.19309  0  3.932403  0
C  C138  1  0.56755506  0.02438261  0.99149082  1  -0.024129  0  -0.094003  -0.190954  0  3.927366  0
C  C139  1  0.53753838  0.99997324  0.95638285  1  0.059881  0  -0.009377  0.078559  0  4.034533  0
C  C140  1  0.56003880  0.96333838  0.92833984  1  -0.659051  0  -0.095702  -0.194734  0  3.922901  0
C  C141  1  0.61189684  0.94924947  0.93723883  1  0.032242  0  -0.016567  0.121996  0  4.079156  0
C  C142  1  0.64023901  0.97284461  0.97423953  1  -0.230279  0  -0.094335  -0.193677  0  3.925  0
C  C143  1  0.61967675  0.01178307  0.00052611  1  -0.593291  0  -0.016906  0.123123  0  4.094468  0
C  C144  1  0.48073079  0.01071000  0.95515129  1  0.053973  0  -0.010659  0.07903  0  4.038096  0
C  C145  1  0.45741436  0.04261754  0.92285182  1  -0.558659  0  -0.09598  -0.196578  0  3.932499  0
C  C146  1  0.40523541  0.05678369  0.92826069  1  0.053096  0  -0.016829  0.122891  0  4.073446  0
C  C147  1  0.37661512  0.03655530  0.96529968  1  -0.465843  0  -0.09547  -0.193218  0  3.921244  0
C  C148  1  0.39839227  0.00265054  0.99653597  1  -0.23129  0  -0.017565  0.120999  0  4.094021  0
C  C149  1  0.45113054  0.99085446  0.99145579  1  0.006169  0  -0.094666  -0.191787  0  3.931462  0
C  C150  1  0.91008670  0.63945529  0.94108192  1  -0.650709  0  -0.095267  -0.118431  0  4.045409  0
C  C151  1  0.95742659  0.64538148  0.96225424  1  -0.576297  0  -0.101179  -0.146861  0  4.016979  0
C  C152  1  0.91439548  0.34628908  0.12480550  1  -0.11183  0  -0.096461  -0.118542  0  4.05937  0
C  C153  1  0.90150714  0.38582924  0.09937996  1  0.007555  0  -0.10092  -0.153038  0  4.009318  0
C  C154  1  0.11245053  0.66297665  0.08808302  1  -0.089308  0  -0.09668  -0.118673  0  4.066126  0
C  C155  1  0.07588678  0.63128956  0.10246563  1  -0.009054  0  -0.100935  -0.15092  0  4.006158  0
C  C156  1  0.02397242  0.33389358  0.95476709  1  -0.556847  0  -0.095818  -0.119108  0  4.054264  0
C  C157  1  0.03934545  0.37566315  0.97699059  1  -0.189997  0  -0.100678  -0.147168  0  4.012364  0
C  C158  1  0.63464630  0.89979224  0.86359372  1  -0.048305  0  -0.094863  -0.118352  0  4.032305  0
C  C159  1  0.63905225  0.91136096  0.91050860  1  -0.604628  0  -0.099515  -0.144853  0  4.023586  0
C  C160  1  0.34371829  0.12326837  0.91134386  1  -0.409275  0  -0.096834  -0.117677  0  4.065354  0
C  C161  1  0.37995288  0.09138191  0.89621739  1  -0.154276  0  -0.102505  -0.154957  0  4.010884  0
C  C162  1  0.64643025  0.08339326  0.05184903  1  -0.031406  0  -0.095092  -0.116311  0  4.04642  0
C  C163  1  0.65232322  0.03700562  0.03622953  1  -0.030032  0  -0.101109  -0.149006  0  4.019074  0
C  C164  1  0.37344681  0.93491105  0.04954982  1  0.037373  0  -0.095083  -0.115942  0  4.051578  0
C  C165  1  0.36579327  0.97980049  0.03194493  1  -0.113604  0  -0.100898  -0.148182  0  4.015236  0
C  C166  1  0.95709706  0.89575036  0.66595021  1  0.010462  0  -0.096451  -0.117679  0  4.058841  0
C  C167  1  0.94621298  0.91409878  0.62249793  1  -0.144227  0  -0.101801  -0.152158  0  4.015091  0
C  C168  1  0.09793612  0.94154866  0.32694445  1  -0.002364  0  -0.0965  -0.117715  0  4.061903  0
C  C169  1  0.07584233  0.92664788  0.36757273  1  -0.101616  0  -0.101959  -0.151747  0  4.013888  0
C  C170  1  0.05008403  0.07529066  0.67259052  1  0.002635  0  -0.096698  -0.120048  0  4.061063  0
C  C171  1  0.06803807  0.05570058  0.63158953  1  -0.074171  0  -0.101095  -0.14958  0  4.008486  0
C  C172  1  0.91827732  0.04673931  0.33393464  1  -0.035837  0  -0.096702  -0.119874  0  4.062147  0
C  C173  1  0.94309151  0.05753751  0.37572851  1  -0.014658  0  -0.101292  -0.150182  0  4.010193  0
N  N174  1  0.88060163  0.72889688  0.84903265  1  -0.775189  0  -0.338257  -0.140072  0  3.770867  0
N  N175  1  0.83140280  0.71763142  0.86397370  1  -0.919876  0  -0.33951  -0.144317  0  3.766855  0
N  N176  1  0.72744265  0.80397480  0.83327163  1  -0.797557  0  -0.340433  -0.143031  0  3.775398  0
N  N177  1  0.72958198  0.83187793  0.79311036  1  -0.76753  0  -0.339137  -0.145753  0  3.754502  0
N  N178  1  0.85224624  0.83288620  0.72722616  1  -0.786791  0  -0.337724  -0.145266  0  3.753965  0
N  N179  1  0.89547764  0.81532475  0.75090633  1  -0.778335  0  -0.338703  -0.139955  0  3.771017  0
N  N180  1  0.85054869  0.25601135  0.19843697  1  -0.772703  0  -0.340549  -0.143085  0  3.77222  0
N  N181  1  0.81148415  0.26515203  0.16556341  1  -0.783896  0  -0.33872  -0.147893  0  3.745757  0
N  N182  1  0.72353520  0.16360945  0.13173009  1  -0.766505  0  -0.337782  -0.145373  0  3.761729  0
N  N183  1  0.73630132  0.11875433  0.14932711  1  -0.783304  0  -0.33949  -0.138146  0  3.781296  0
N  N184  1  0.82941492  0.10487682  0.24953657  1  -0.768203  0  -0.341465  -0.141967  0  3.778728  0
N  N185  1  0.85293016  0.14523865  0.27024156  1  -0.770269  0  -0.338916  -0.143023  0  3.758217  0
N  N186  1  0.17756125  0.74439178  0.17546851  1  -0.776866  0  -0.338145  -0.145143  0  3.750736  0
N  N187  1  0.21012739  0.74745901  0.13719837  1  -0.782747  0  -0.342308  -0.144848  0  3.772788  0
N  N188  1  0.29679463  0.85231422  0.12113288  1  -0.792397  0  -0.341671  -0.146116  0  3.769334  0
N  N189  1  0.28121570  0.89635704  0.13977160  1  -0.780717  0  -0.338373  -0.13913  0  3.772862  0
N  N190  1  0.18682062  0.89538334  0.23707973  1  -0.792919  0  -0.339805  -0.141314  0  3.779561  0
N  N191  1  0.16822015  0.85222274  0.25432232  1  -0.761708  0  -0.337196  -0.1429  0  3.758469  0
N  N192  1  0.07872446  0.25351887  0.86349006  1  -0.593645  0  -0.33894  -0.141506  0  3.773536  0
N  N193  1  0.12346456  0.27253757  0.88419406  1  0.238351  0  -0.340085  -0.142868  0  3.772356  0
N  N194  1  0.24448055  0.20511648  0.86497468  1  -0.448327  0  -0.342363  -0.144817  0  3.773027  0
N  N195  1  0.25113951  0.17537615  0.82556685  1  -0.752937  0  -0.336866  -0.145794  0  3.745029  0
N  N196  1  0.13758034  0.15302369  0.74582204  1  -0.78449  0  -0.336736  -0.144976  0  3.755329  0
N  N197  1  0.08971220  0.16559546  0.76332096  1  -0.783972  0  -0.338746  -0.140621  0  3.773816  0
