# generated using pymatgen
data_Cu3H10C12I3N4
_symmetry_space_group_name_H-M   'P 1'
_cell_length_a   7.37375468
_cell_length_b   12.07060236
_cell_length_c   18.37400000
_cell_angle_alpha   90.00000000
_cell_angle_beta   90.00000000
_cell_angle_gamma   90.00000000
_symmetry_Int_Tables_number   1
_chemical_formula_structural   Cu3H10C12I3N4
_chemical_formula_sum   'Cu12 H40 C48 I12 N16'
_cell_volume   1635.39000730
_cell_formula_units_Z   4
loop_
 _symmetry_equiv_pos_site_id
 _symmetry_equiv_pos_as_xyz
  1  'x, y, z'
loop_
 _atom_site_type_symbol
 _atom_site_label
 _atom_site_symmetry_multiplicity
 _atom_site_fract_x
 _atom_site_fract_y
 _atom_site_fract_z
 _atom_site_occupancy
 _atom_site_hle17_bader_spin_density
 _atom_site_hle17_ddec_charge
 _atom_site_hle17_ddec_spin_density
 _atom_site_hle17_ddec_sum_bond_order
 _atom_site_hle17_magmom
 _atom_site_hse06_10hf_bader_spin_density
 _atom_site_hse06_10hf_ddec_charge
 _atom_site_hse06_10hf_ddec_spin_density
 _atom_site_hse06_10hf_ddec_sum_bond_order
 _atom_site_hse06_10hf_magmom
 _atom_site_hse06_bader_spin_density
 _atom_site_hse06_ddec_charge
 _atom_site_hse06_ddec_spin_density
 _atom_site_hse06_ddec_sum_bond_order
 _atom_site_hse06_magmom
 _atom_site_pbe_bader_charge
 _atom_site_pbe_bader_spin_density
 _atom_site_pbe_cm5_charge
 _atom_site_pbe_ddec_charge
 _atom_site_pbe_ddec_spin_density
 _atom_site_pbe_ddec_sum_bond_order
 _atom_site_pbe_magmom
Cu  Cu0  1  0.56164467  0.72162596  0.27082998  1  0  0.242759  0  2.138844  0  0  0.161696  0  2.61175  0  0  0.173532  0  2.557061  0  0.423714  0  0.252623  0.155704  0  2.647354  0
Cu  Cu1  1  0.93835641  0.27837053  0.77083161  1  0  0.242779  0  2.138803  0  0  0.161709  0  2.611706  0  0  0.173521  0  2.557016  0  0.423753  0  0.252632  0.155715  0  2.647331  0
Cu  Cu2  1  0.43835470  0.22162771  0.22916839  1  0  0.242776  0  2.138761  0  0  0.161713  0  2.611654  0  0  0.173522  0  2.556962  0  0.423884  0  0.252634  0.155721  0  2.647265  0
Cu  Cu3  1  0.06164431  0.77837292  0.72917057  1  0  0.242758  0  2.138824  0  0  0.161709  0  2.611708  0  0  0.173528  0  2.557019  0  0.423716  0  0.252625  0.155715  0  2.647331  0
Cu  Cu4  1  0.57007592  0.99765444  0.28203004  1  0  0.217122  0  2.182737  0  0  0.133501  0  2.663234  0  0  0.143847  0  2.608841  0  0.424901  0  0.251764  0.128362  0  2.698724  0
Cu  Cu5  1  0.92992516  0.00234371  0.78203004  1  0  0.217201  0  2.182699  0  0  0.133573  0  2.663172  0  0  0.143917  0  2.608786  0  0.424903  0  0.251802  0.128435  0  2.698669  0
Cu  Cu6  1  0.42992344  0.49765619  0.21796941  1  0  0.217197  0  2.182704  0  0  0.133577  0  2.663188  0  0  0.143913  0  2.608801  0  0.424885  0  0.251802  0.128436  0  2.698681  0
Cu  Cu7  1  0.07007556  0.50234527  0.71796887  1  0  0.217139  0  2.182704  0  0  0.133524  0  2.663198  0  0  0.143859  0  2.608806  0  0.424903  0  0.25177  0.128384  0  2.698679  0
Cu  Cu8  1  0.41662628  0.86852749  0.18094753  1  0  0.2136  0  2.258888  0  0  0.142584  0  2.730429  0  0  0.15351  0  2.678546  0  0.372181  0  0.232887  0.137719  0  2.763181  0
Cu  Cu9  1  0.08337272  0.13147231  0.68094753  1  0  0.213607  0  2.258911  0  0  0.142589  0  2.730438  0  0  0.153539  0  2.678572  0  0.372138  0  0.232887  0.137716  0  2.763202  0
Cu  Cu10  1  0.58337308  0.36852759  0.31905247  1  0  0.213573  0  2.258908  0  0  0.142549  0  2.730443  0  0  0.153497  0  2.678572  0  0.372147  0  0.232863  0.137685  0  2.763184  0
Cu  Cu11  1  0.91662800  0.63147056  0.81905192  1  0  0.213558  0  2.258912  0  0  0.142534  0  2.730447  0  0  0.153477  0  2.678576  0  0.372117  0  0.232854  0.137668  0  2.763186  0
H  H12  1  0.64425387  0.09517255  0.42400838  1  0  0.094579  0  0.951563  0  0  0.10431  0  1.024512  0  0  0.106732  0  1.022364  0  0.134476  0  0.10608  0.102407  0  1.026045  0
H  H13  1  0.85574314  0.90482394  0.92400838  1  0  0.094546  0  0.951535  0  0  0.104268  0  1.024511  0  0  0.106688  0  1.022365  0  0.134461  0  0.106067  0.102368  0  1.026032  0
H  H14  1  0.35574414  0.59517494  0.07599162  1  0  0.09453  0  0.951577  0  0  0.104286  0  1.024532  0  0  0.106706  0  1.022386  0  0.134467  0  0.106083  0.102388  0  1.026049  0
H  H15  1  0.14426165  0.40482818  0.57598999  1  0  0.094417  0  0.95169  0  0  0.104166  0  1.024636  0  0  0.106584  0  1.022493  0  0.134504  0  0.106027  0.102263  0  1.026169  0
H  H16  1  0.66938354  0.05136281  0.51672472  1  0  0.091574  0  0.929961  0  0  0.103566  0  0.998509  0  0  0.105467  0  0.996941  0  0.089683  0  0.112215  0.102067  0  0.999765  0
H  H17  1  0.83061619  0.94863203  0.01672472  1  0  0.091578  0  0.929897  0  0  0.103558  0  0.998468  0  0  0.105459  0  0.996898  0  0.089652  0  0.112214  0.102059  0  0.999719  0
H  H18  1  0.33061447  0.55136519  0.98327528  1  0  0.091557  0  0.929921  0  0  0.103544  0  0.998507  0  0  0.105444  0  0.996938  0  0.089657  0  0.112209  0.102044  0  0.999761  0
H  H19  1  0.16938589  0.44863875  0.48327365  1  0  0.091466  0  0.930043  0  0  0.103511  0  0.99854  0  0  0.105412  0  0.996967  0  0.089622  0  0.112201  0.102014  0  0.999792  0
H  H20  1  0.32640088  0.13149882  0.37421574  1  0  0.08565  0  1.014114  0  0  0.089972  0  1.093031  0  0  0.0948  0  1.086925  0  0.098521  0  0.08057  0.086005  0  1.098026  0
H  H21  1  0.17359948  0.86849518  0.87421520  1  0  0.085647  0  1.014103  0  0  0.089957  0  1.093048  0  0  0.094789  0  1.086948  0  0.098782  0  0.080576  0.085989  0  1.098045  0
H  H22  1  0.67359849  0.63150287  0.12578426  1  0  0.085669  0  1.014105  0  0  0.090002  0  1.093011  0  0  0.094831  0  1.086906  0  0.098639  0  0.080587  0.086036  0  1.098003  0
H  H23  1  0.82640666  0.36849942  0.62578372  1  0  0.085659  0  1.01408  0  0  0.090006  0  1.092972  0  0  0.094837  0  1.086872  0  0.098537  0  0.080584  0.086037  0  1.097968  0
H  H24  1  0.01075436  0.18964754  0.40630946  1  0  0.103284  0  0.986302  0  0  0.110437  0  1.052314  0  0  0.113769  0  1.051964  0  0.117747  0  0.086563  0.107872  0  1.052909  0
H  H25  1  0.48925143  0.81035310  0.90630946  1  0  0.103188  0  0.986299  0  0  0.110329  0  1.052334  0  0  0.113663  0  1.051981  0  0.11768  0  0.086512  0.107764  0  1.052925  0
H  H26  1  0.98924772  0.68964661  0.09369000  1  0  0.103284  0  0.986286  0  0  0.110432  0  1.052302  0  0  0.113765  0  1.05195  0  0.117755  0  0.086558  0.107865  0  1.052897  0
H  H27  1  0.51075743  0.31035402  0.59369163  1  0  0.103301  0  0.986328  0  0  0.110421  0  1.05237  0  0  0.113754  0  1.052017  0  0.117728  0  0.086569  0.107857  0  1.052959  0
H  H28  1  0.91230998  0.17805159  0.53754218  1  0  0.06396  0  0.98595  0  0  0.070579  0  1.057591  0  0  0.07277  0  1.056427  0  0.088748  0  0.099231  0.068952  0  1.058534  0
H  H29  1  0.58768974  0.82195235  0.03754218  1  0  0.063934  0  0.98598  0  0  0.07056  0  1.05762  0  0  0.072749  0  1.056459  0  0.088781  0  0.099223  0.068937  0  1.058558  0
H  H30  1  0.08769210  0.67804818  0.96245837  1  0  0.063917  0  0.98599  0  0  0.070534  0  1.057637  0  0  0.072725  0  1.056475  0  0.088769  0  0.099218  0.068908  0  1.058579  0
H  H31  1  0.41231233  0.32194914  0.46245891  1  0  0.06397  0  0.985985  0  0  0.070595  0  1.057627  0  0  0.072784  0  1.056466  0  0.088759  0  0.099242  0.068974  0  1.058563  0
H  H32  1  0.41424486  0.06209384  0.60206215  1  0  0.072855  0  0.997528  0  0  0.078137  0  1.073528  0  0  0.081525  0  1.07006  0  0.108398  0  0.090167  0.075236  0  1.076713  0
H  H33  1  0.08575143  0.93790514  0.10206215  1  0  0.072848  0  0.997523  0  0  0.078126  0  1.073532  0  0  0.081517  0  1.070061  0  0.108378  0  0.090154  0.075226  0  1.076715  0
H  H34  1  0.58575586  0.56209291  0.89793730  1  0  0.072938  0  0.997449  0  0  0.078192  0  1.073489  0  0  0.081584  0  1.070012  0  0.108559  0  0.090177  0.075291  0  1.076674  0
H  H35  1  0.91424522  0.43790855  0.39793676  1  0  0.072903  0  0.997467  0  0  0.078161  0  1.0735  0  0  0.081553  0  1.070024  0  0.108524  0  0.090159  0.07526  0  1.076686  0
H  H36  1  0.56845531  0.89207561  0.60183357  1  0  0.107811  0  0.972344  0  0  0.111691  0  1.045127  0  0  0.115679  0  1.042802  0  0.112883  0  0.094976  0.108602  0  1.047145  0
H  H37  1  0.93154849  0.10791674  0.10183357  1  0  0.107756  0  0.972342  0  0  0.111671  0  1.045109  0  0  0.115659  0  1.042785  0  0.112838  0  0.094963  0.108579  0  1.047132  0
H  H38  1  0.43154406  0.39208068  0.89816643  1  0  0.107759  0  0.972359  0  0  0.111667  0  1.045133  0  0  0.115655  0  1.042809  0  0.112846  0  0.094961  0.10858  0  1.047143  0
H  H39  1  0.06845088  0.60792658  0.39816643  1  0  0.107841  0  0.972371  0  0  0.111734  0  1.045126  0  0  0.115724  0  1.042799  0  0.112918  0  0.09499  0.108643  0  1.047149  0
H  H40  1  0.53259434  0.69867350  0.64483509  1  0  0.100964  0  0.949175  0  0  0.107252  0  1.017301  0  0  0.110996  0  1.015088  0  0.128688  0  0.093616  0.104254  0  1.019264  0
H  H41  1  0.96741352  0.30131968  0.14483727  1  0  0.100956  0  0.949134  0  0  0.107214  0  1.017298  0  0  0.110957  0  1.015088  0  0.128798  0  0.093588  0.104217  0  1.019257  0
H  H42  1  0.46740909  0.19867774  0.85516382  1  0  0.100929  0  0.94921  0  0  0.107202  0  1.017349  0  0  0.110948  0  1.015134  0  0.128819  0  0.093585  0.104202  0  1.019318  0
H  H43  1  0.03257635  0.80132786  0.35516545  1  0  0.100965  0  0.949172  0  0  0.107293  0  1.017272  0  0  0.11103  0  1.015075  0  0.128479  0  0.093637  0.104302  0  1.019214  0
H  H44  1  0.50535991  0.54321316  0.55874170  1  0  0.08723  0  0.973725  0  0  0.098211  0  1.035699  0  0  0.100571  0  1.035795  0  0.098971  0  0.093966  0.096441  0  1.035853  0
H  H45  1  0.99464117  0.45678085  0.05874551  1  0  0.087164  0  0.973832  0  0  0.098232  0  1.035686  0  0  0.100593  0  1.035779  0  0.099259  0  0.093938  0.096459  0  1.035844  0
H  H46  1  0.49463810  0.04321822  0.94125612  1  0  0.087106  0  0.97396  0  0  0.098201  0  1.035781  0  0  0.100563  0  1.035874  0  0.099027  0  0.093933  0.096431  0  1.035935  0
H  H47  1  0.00535006  0.95678738  0.44125884  1  0  0.087164  0  0.973812  0  0  0.098189  0  1.035735  0  0  0.10055  0  1.035829  0  0.099047  0  0.093926  0.09642  0  1.035887  0
H  H48  1  0.51350908  0.57396970  0.42329378  1  0  0.108858  0  0.969457  0  0  0.111293  0  1.044638  0  0  0.115522  0  1.040998  0  0.114079  0  0.098443  0.108035  0  1.047511  0
H  H49  1  0.98648793  0.42602762  0.92329651  1  0  0.108667  0  0.969514  0  0  0.111157  0  1.04466  0  0  0.115385  0  1.04102  0  0.114197  0  0.098365  0.107891  0  1.047547  0
H  H50  1  0.48648350  0.07397145  0.07670513  1  0  0.108705  0  0.969494  0  0  0.111209  0  1.044609  0  0  0.115437  0  1.040969  0  0.114147  0  0.09841  0.107947  0  1.047488  0
H  H51  1  0.01351415  0.92603167  0.57670622  1  0  0.108864  0  0.969397  0  0  0.111309  0  1.044587  0  0  0.115538  0  1.040945  0  0.114059  0  0.098447  0.108047  0  1.047469  0
C  C52  1  0.58157074  0.04745662  0.46840808  1  0  -0.048148  0  3.644903  0  0  -0.114704  0  3.888169  0  0  -0.110689  0  3.897426  0  0.245643  0  -0.043664  -0.117149  0  3.882238  0
C  C53  1  0.91842763  0.95254070  0.96840808  1  0  -0.048037  0  3.644865  0  0  -0.114603  0  3.888203  0  0  -0.110584  0  3.897453  0  0.245592  0  -0.043649  -0.117039  0  3.882258  0
C  C54  1  0.41842726  0.54745818  0.03159138  1  0  -0.048008  0  3.644799  0  0  -0.114644  0  3.888212  0  0  -0.110627  0  3.897466  0  0.245629  0  -0.043656  -0.117083  0  3.882275  0
C  C55  1  0.08157445  0.45254577  0.53159083  1  0  -0.047879  0  3.644983  0  0  -0.114507  0  3.888312  0  0  -0.110481  0  3.897555  0  0.245633  0  -0.043573  -0.116953  0  3.882379  0
C  C56  1  0.39374513  0.08949429  0.48553336  1  0  0.015068  0  3.742149  0  0  0.043345  0  3.974866  0  0  0.037035  0  4.000128  0  0.01946  0  -0.011318  0.047286  0  3.958104  0
C  C57  1  0.10624845  0.91050386  0.98553282  1  0  0.014972  0  3.74217  0  0  0.043288  0  3.97486  0  0  0.036979  0  4.000123  0  0.018789  0  -0.011349  0.047224  0  3.958099  0
C  C58  1  0.60625288  0.58949668  0.01446664  1  0  0.014957  0  3.742216  0  0  0.04327  0  3.97494  0  0  0.036959  0  4.000205  0  0.018972  0  -0.011374  0.04721  0  3.958174  0
C  C59  1  0.89374956  0.41050810  0.51446664  1  0  0.015084  0  3.741864  0  0  0.043347  0  3.9746  0  0  0.037034  0  3.999871  0  0.01906  0  -0.011316  0.047286  0  3.957837  0
C  C60  1  0.27931225  0.12766637  0.43041580  1  0  -0.048315  0  3.705392  0  0  -0.075593  0  3.948488  0  0  -0.071418  0  3.964458  0  -0.047562  0  -0.076046  -0.078595  0  3.938643  0
C  C61  1  0.22069082  0.87232929  0.93041580  1  0  -0.048308  0  3.705417  0  0  -0.075602  0  3.948508  0  0  -0.071439  0  3.96449  0  -0.047689  0  -0.076064  -0.078603  0  3.938663  0
C  C62  1  0.72068847  0.62766959  0.06958365  1  0  -0.04829  0  3.705377  0  0  -0.075595  0  3.948487  0  0  -0.071424  0  3.964461  0  -0.047692  0  -0.076035  -0.078598  0  3.938641  0
C  C63  1  0.77931261  0.37233436  0.56958311  1  0  -0.048361  0  3.705409  0  0  -0.075659  0  3.948481  0  0  -0.071495  0  3.964463  0  -0.047712  0  -0.07607  -0.078657  0  3.938631  0
C  C64  1  0.10391450  0.16070035  0.44832209  1  0  -0.118262  0  3.74666  0  0  -0.125094  0  3.989192  0  0  -0.132164  0  4.009514  0  -0.074587  0  -0.093145  -0.120723  0  3.976338  0
C  C65  1  0.39608044  0.83930277  0.94832100  1  0  -0.118067  0  3.746764  0  0  -0.124861  0  3.989292  0  0  -0.13193  0  4.009616  0  -0.074399  0  -0.093009  -0.120484  0  3.976427  0
C  C66  1  0.89608487  0.66070025  0.05167791  1  0  -0.118219  0  3.746587  0  0  -0.125034  0  3.989128  0  0  -0.132104  0  4.009449  0  -0.074451  0  -0.093105  -0.120663  0  3.976272  0
C  C67  1  0.60392028  0.33930287  0.55167955  1  0  -0.118161  0  3.746667  0  0  -0.124942  0  3.989183  0  0  -0.132008  0  4.0095  0  -0.0744  0  -0.093063  -0.120564  0  3.976318  0
C  C68  1  0.04883672  0.15499061  0.52058888  1  0  0.108016  0  3.689857  0  0  0.080378  0  3.932886  0  0  0.086674  0  3.950588  0  0.444394  0  0.033032  0.075644  0  3.922462  0
C  C69  1  0.45116771  0.84501251  0.02058833  1  0  0.107966  0  3.689838  0  0  0.080308  0  3.93289  0  0  0.086598  0  3.950589  0  0.444248  0  0.032984  0.075559  0  3.922514  0
C  C70  1  0.95116536  0.65498968  0.97941058  1  0  0.108052  0  3.689782  0  0  0.080405  0  3.932831  0  0  0.086698  0  3.95053  0  0.444229  0  0.033022  0.075678  0  3.922409  0
C  C71  1  0.54883437  0.34501095  0.47941112  1  0  0.10791  0  3.689799  0  0  0.080251  0  3.932841  0  0  0.086545  0  3.950544  0  0.444291  0  0.032963  0.075492  0  3.922475  0
C  C72  1  0.32885146  0.08884809  0.55679438  1  0  0.075246  0  3.664816  0  0  0.035814  0  3.913581  0  0  0.042791  0  3.929333  0  0.451769  0  0.034474  0.031101  0  3.903701  0
C  C73  1  0.17114890  0.91115171  0.05679438  1  0  0.075211  0  3.664817  0  0  0.035783  0  3.913587  0  0  0.04275  0  3.929337  0  0.452326  0  0.034456  0.031084  0  3.90371  0
C  C74  1  0.67114790  0.58884882  0.94320507  1  0  0.075171  0  3.664778  0  0  0.035758  0  3.913539  0  0  0.042729  0  3.92929  0  0.452117  0  0.034465  0.031051  0  3.903665  0
C  C75  1  0.82885182  0.41115347  0.44320453  1  0  0.075161  0  3.664653  0  0  0.03576  0  3.913402  0  0  0.042733  0  3.929154  0  0.452158  0  0.03445  0.031056  0  3.903522  0
C  C76  1  0.55857432  0.84006081  0.48746598  1  0  0.098324  0  3.795159  0  0  0.08368  0  4.037436  0  0  0.087935  0  4.060507  0  0.323042  0  0.108055  0.081043  0  4.021899  0
C  C77  1  0.94142405  0.15993402  0.98746707  1  0  0.098054  0  3.795404  0  0  0.083547  0  4.037502  0  0  0.087796  0  4.060586  0  0.323228  0  0.108011  0.080911  0  4.021962  0
C  C78  1  0.44142505  0.34006505  0.01253347  1  0  0.098107  0  3.795266  0  0  0.083586  0  4.03737  0  0  0.087841  0  4.060446  0  0.323126  0  0.108018  0.08095  0  4.021832  0
C  C79  1  0.05857803  0.65994055  0.51253293  1  0  0.09833  0  3.795148  0  0  0.083726  0  4.037376  0  0  0.087937  0  4.060511  0  0.323131  0  0.108093  0.081089  0  4.021838  0
C  C80  1  0.55545379  0.82423890  0.56307500  1  0  -0.140116  0  3.733417  0  0  -0.155241  0  3.988399  0  0  -0.159545  0  4.007563  0  0.028435  0  -0.092047  -0.152735  0  3.976182  0
C  C81  1  0.94455000  0.17575759  0.06307500  1  0  -0.140074  0  3.733663  0  0  -0.155281  0  3.988607  0  0  -0.159585  0  4.007775  0  0.028609  0  -0.092095  -0.152774  0  3.976389  0
C  C82  1  0.44454693  0.32424148  0.93692446  1  0  -0.140036  0  3.733551  0  0  -0.155223  0  3.988476  0  0  -0.159529  0  4.007643  0  0.028751  0  -0.092059  -0.152715  0  3.97626  0
C  C83  1  0.05545072  0.67576329  0.43692500  1  0  -0.140171  0  3.733617  0  0  -0.155321  0  3.988612  0  0  -0.15961  0  4.007787  0  0.028424  0  -0.092109  -0.152817  0  3.976397  0
C  C84  1  0.53600915  0.71563040  0.58652553  1  0  -0.030767  0  3.710172  0  0  -0.051463  0  3.969393  0  0  -0.050308  0  3.98736  0  -0.033981  0  -0.085642  -0.052435  0  3.958087  0
C  C85  1  0.96399464  0.28435946  0.08652661  1  0  -0.030602  0  3.71009  0  0  -0.051283  0  3.969353  0  0  -0.050128  0  3.987321  0  -0.034444  0  -0.085493  -0.052254  0  3.958044  0
C  C86  1  0.46399021  0.21563795  0.91347393  1  0  -0.03058  0  3.710137  0  0  -0.051279  0  3.969411  0  0  -0.050125  0  3.987381  0  -0.034493  0  -0.085509  -0.052252  0  3.958102  0
C  C87  1  0.03599930  0.78437014  0.41347447  1  0  -0.03074  0  3.710269  0  0  -0.051487  0  3.969516  0  0  -0.050333  0  3.987475  0  -0.033763  0  -0.085604  -0.052458  0  3.958214  0
C  C88  1  0.52058824  0.62645507  0.53680962  1  0  -0.070577  0  3.742621  0  0  -0.092614  0  4.004842  0  0  -0.095278  0  4.025868  0  -0.141582  0  -0.098764  -0.090928  0  3.990967  0
C  C89  1  0.97941148  0.37354142  0.03681180  1  0  -0.070636  0  3.742708  0  0  -0.092736  0  4.00492  0  0  -0.095399  0  4.025945  0  -0.141869  0  -0.098788  -0.091048  0  3.991044  0
C  C90  1  0.47940977  0.12645765  0.96318874  1  0  -0.070641  0  3.742702  0  0  -0.092769  0  4.004922  0  0  -0.095433  0  4.025946  0  -0.141611  0  -0.098797  -0.091082  0  3.991043  0
C  C91  1  0.02058246  0.87354630  0.46319092  1  0  -0.070633  0  3.742764  0  0  -0.092702  0  4.004989  0  0  -0.095365  0  4.026008  0  -0.141731  0  -0.0988  -0.091017  0  3.991118  0
C  C92  1  0.52502154  0.64205661  0.46194514  1  0  -0.117146  0  3.709797  0  0  -0.13488  0  3.962229  0  0  -0.135329  0  3.980714  0  0.035883  0  -0.088219  -0.134685  0  3.950252  0
C  C93  1  0.97497548  0.35793657  0.96194786  1  0  -0.11687  0  3.709881  0  0  -0.134658  0  3.962304  0  0  -0.135107  0  3.980795  0  0.035978  0  -0.088104  -0.134464  0  3.950334  0
C  C94  1  0.47497512  0.14206168  0.03805377  1  0  -0.116825  0  3.709746  0  0  -0.134616  0  3.962189  0  0  -0.135064  0  3.980678  0  0.035973  0  -0.088138  -0.134429  0  3.95023  0
C  C95  1  0.02502524  0.85794393  0.53805486  1  0  -0.117044  0  3.709829  0  0  -0.134792  0  3.96225  0  0  -0.135242  0  3.980743  0  0.035876  0  -0.088189  -0.134598  0  3.950275  0
C  C96  1  0.54511984  0.75146871  0.43749592  1  0  0.120016  0  3.805573  0  0  0.120098  0  4.049768  0  0  0.118705  0  4.072763  0  0.373441  0  0.097097  0.120839  0  4.034751  0
C  C97  1  0.95487853  0.24853192  0.93749646  1  0  0.12008  0  3.80556  0  0  0.12013  0  4.049715  0  0  0.118732  0  4.072718  0  0.373144  0  0.097091  0.120872  0  4.034696  0
C  C98  1  0.45487681  0.25146798  0.06250354  1  0  0.119926  0  3.805581  0  0  0.119983  0  4.04975  0  0  0.118584  0  4.072751  0  0.373141  0  0.097057  0.120723  0  4.034732  0
C  C99  1  0.04512491  0.74853348  0.56250408  1  0  0.11995  0  3.805553  0  0  0.120032  0  4.049762  0  0  0.118644  0  4.072773  0  0.373355  0  0.097053  0.120775  0  4.034742  0
I  I100  1  0.76632194  0.87209732  0.18975835  1  0  -0.352588  0  1.716102  0  0  -0.299772  0  2.164157  0  0  -0.315424  0  2.124331  0  -0.403834  0  -0.180618  -0.288304  0  2.190416  0
I  I101  1  0.73367779  0.12790165  0.68975781  1  0  -0.35262  0  1.716111  0  0  -0.299803  0  2.164148  0  0  -0.315457  0  2.124329  0  -0.403805  0  -0.18063  -0.288337  0  2.190419  0
I  I102  1  0.23367742  0.37209908  0.31024219  1  0  -0.352623  0  1.716114  0  0  -0.299794  0  2.164143  0  0  -0.315447  0  2.12432  0  -0.403802  0  -0.18063  -0.288326  0  2.1904  0
I  I103  1  0.26632294  0.62790238  0.81024219  1  0  -0.352595  0  1.716119  0  0  -0.299761  0  2.164144  0  0  -0.315412  0  2.124317  0  -0.403784  0  -0.18062  -0.288295  0  2.190403  0
I  I104  1  0.23758995  0.04043212  0.23684119  1  0  -0.308994  0  1.808899  0  0  -0.249267  0  2.269543  0  0  -0.267722  0  2.229065  0  -0.388759  0  -0.164278  -0.235913  0  2.295819  0
I  I105  1  0.26240906  0.95957017  0.73684228  1  0  -0.308972  0  1.808928  0  0  -0.249259  0  2.269591  0  0  -0.267725  0  2.229124  0  -0.388767  0  -0.164273  -0.235909  0  2.295882  0
I  I106  1  0.76241077  0.54042953  0.26315827  1  0  -0.308969  0  1.808911  0  0  -0.249247  0  2.269575  0  0  -0.267715  0  2.229108  0  -0.388778  0  -0.164268  -0.235899  0  2.295859  0
I  I107  1  0.73759031  0.45956696  0.76315881  1  0  -0.30898  0  1.808909  0  0  -0.249237  0  2.269532  0  0  -0.267699  0  2.229061  0  -0.388782  0  -0.164255  -0.235879  0  2.295799  0
I  I108  1  0.23832906  0.68341246  0.21761184  1  0  -0.320403  0  1.819947  0  0  -0.265071  0  2.287519  0  0  -0.281469  0  2.245264  0  -0.393723  0  -0.168991  -0.253335  0  2.315206  0
I  I109  1  0.26166859  0.31658652  0.71761130  1  0  -0.320383  0  1.819917  0  0  -0.265043  0  2.287461  0  0  -0.281441  0  2.245205  0  -0.393701  0  -0.168988  -0.253306  0  2.315154  0
I  I110  1  0.76166895  0.18341338  0.28238870  1  0  -0.320404  0  1.819944  0  0  -0.265062  0  2.28749  0  0  -0.281462  0  2.245236  0  -0.39386  0  -0.168995  -0.253325  0  2.315177  0
I  I111  1  0.73832806  0.81658559  0.78238816  1  0  -0.320388  0  1.819897  0  0  -0.265048  0  2.287444  0  0  -0.28145  0  2.245192  0  -0.393723  0  -0.16898  -0.253311  0  2.315135  0
N  N112  1  0.57635359  0.93222108  0.44481877  1  0  0.012467  0  3.475704  0  0  0.092299  0  3.697862  0  0  0.081009  0  3.721997  0  -0.754447  0  -0.128138  0.099541  0  3.681925  0
N  N113  1  0.92364478  0.06777541  0.94481822  1  0  0.012544  0  3.475872  0  0  0.092319  0  3.698007  0  0  0.081031  0  3.722142  0  -0.754342  0  -0.128107  0.09956  0  3.682068  0
N  N114  1  0.42364577  0.43222367  0.05518178  1  0  0.012517  0  3.475795  0  0  0.092323  0  3.697937  0  0  0.081033  0  3.72207  0  -0.75434  0  -0.128143  0.099565  0  3.681998  0
N  N115  1  0.07635866  0.56777945  0.55518069  1  0  0.012567  0  3.475812  0  0  0.092363  0  3.69798  0  0  0.081088  0  3.72212  0  -0.754292  0  -0.128169  0.099607  0  3.682041  0
N  N116  1  0.57181859  0.90380411  0.37327038  1  0  -0.030701  0  3.128798  0  0  -0.001018  0  3.439166  0  0  0.006213  0  3.436242  0  -0.169665  0  -0.129943  -0.006958  0  3.442095  0
N  N117  1  0.92817707  0.09619238  0.87327038  1  0  -0.030766  0  3.128992  0  0  -0.00104  0  3.439287  0  0  0.00619  0  3.436358  0  -0.16979  0  -0.129946  -0.006979  0  3.442223  0
N  N118  1  0.42817806  0.40380752  0.12672962  1  0  -0.030779  0  3.128995  0  0  -0.001076  0  3.439322  0  0  0.006157  0  3.43639  0  -0.169773  0  -0.129938  -0.007016  0  3.442255  0
N  N119  1  0.07182637  0.59619560  0.62672962  1  0  -0.030793  0  3.128897  0  0  -0.001109  0  3.439278  0  0  0.006126  0  3.43634  0  -0.169815  0  -0.129957  -0.007047  0  3.442203  0
N  N120  1  0.55535751  0.79497690  0.36832209  1  0  -0.175722  0  3.228189  0  0  -0.134321  0  3.540331  0  0  -0.13611  0  3.539929  0  -0.599009  0  -0.24357  -0.133933  0  3.541398  0
N  N121  1  0.94463680  0.20501959  0.86832263  1  0  -0.175736  0  3.228293  0  0  -0.134335  0  3.540418  0  0  -0.136114  0  3.540002  0  -0.598828  0  -0.243592  -0.133948  0  3.541499  0
N  N122  1  0.44463779  0.29497948  0.13167791  1  0  -0.175629  0  3.228168  0  0  -0.134231  0  3.540286  0  0  -0.13601  0  3.539867  0  -0.598845  0  -0.243556  -0.133842  0  3.54136  0
N  N123  1  0.05536528  0.70502364  0.63167791  1  0  -0.175658  0  3.228127  0  0  -0.134273  0  3.54028  0  0  -0.136051  0  3.539862  0  -0.598988  0  -0.243504  -0.133886  0  3.541356  0
N  N124  1  0.15989954  0.12119859  0.57450473  1  0  -0.257668  0  3.381094  0  0  -0.179838  0  3.654096  0  0  -0.193648  0  3.665994  0  -1.227882  0  -0.361389  -0.171436  0  3.646351  0
N  N125  1  0.34009811  0.87880453  0.07450473  1  0  -0.257616  0  3.380984  0  0  -0.179818  0  3.654055  0  0  -0.193601  0  3.665915  0  -1.227889  0  -0.361372  -0.171442  0  3.646327  0
N  N126  1  0.84010118  0.62119684  0.92549472  1  0  -0.257631  0  3.381009  0  0  -0.17982  0  3.654035  0  0  -0.193617  0  3.665916  0  -1.227889  0  -0.361369  -0.171437  0  3.646297  0
N  N127  1  0.65990126  0.37880380  0.42549581  1  0  -0.257631  0  3.38108  0  0  -0.179805  0  3.654092  0  0  -0.193607  0  3.66598  0  -1.227903  0  -0.361383  -0.171416  0  3.64635  0
