# generated using pymatgen
data_CdH12C8(IN)2
_symmetry_space_group_name_H-M   'P 1'
_cell_length_a   7.76523504
_cell_length_b   9.15197892
_cell_length_c   9.15201005
_cell_angle_alpha   74.47923766
_cell_angle_beta   85.24940229
_cell_angle_gamma   85.24928478
_symmetry_Int_Tables_number   1
_chemical_formula_structural   CdH12C8(IN)2
_chemical_formula_sum   'Cd2 H24 C16 I4 N4'
_cell_volume   623.28993014
_cell_formula_units_Z   2
loop_
 _symmetry_equiv_pos_site_id
 _symmetry_equiv_pos_as_xyz
  1  'x, y, z'
loop_
 _atom_site_type_symbol
 _atom_site_label
 _atom_site_symmetry_multiplicity
 _atom_site_fract_x
 _atom_site_fract_y
 _atom_site_fract_z
 _atom_site_occupancy
 _atom_site_hle17_bader_spin_density
 _atom_site_hle17_ddec_charge
 _atom_site_hle17_ddec_spin_density
 _atom_site_hle17_ddec_sum_bond_order
 _atom_site_hle17_magmom
 _atom_site_hse06_10hf_bader_spin_density
 _atom_site_hse06_10hf_ddec_charge
 _atom_site_hse06_10hf_ddec_spin_density
 _atom_site_hse06_10hf_ddec_sum_bond_order
 _atom_site_hse06_10hf_magmom
 _atom_site_hse06_bader_spin_density
 _atom_site_hse06_ddec_charge
 _atom_site_hse06_ddec_spin_density
 _atom_site_hse06_ddec_sum_bond_order
 _atom_site_hse06_magmom
 _atom_site_pbe_bader_spin_density
 _atom_site_pbe_cm5_charge
 _atom_site_pbe_ddec_charge
 _atom_site_pbe_ddec_spin_density
 _atom_site_pbe_ddec_sum_bond_order
 _atom_site_pbe_magmom
Cd  Cd0  1  0.24999949  0.93548136  0.06452226  1  0  0.711289  0  2.102383  0  0  0.572033  0  2.526478  0  0  0.620107  0  2.495142  0  0  0.451717  0.53911  0  2.547116  0
Cd  Cd1  1  0.74999923  0.06451930  0.93547679  1  0  0.711277  0  2.102397  0  0  0.572041  0  2.526471  0  0  0.620113  0  2.495136  0  0  0.451722  0.539118  0  2.54711  0
H  H2  1  0.11025979  0.69174928  0.04055786  1  0  0.095359  0  1.017155  0  0  0.112098  0  1.091285  0  0  0.113619  0  1.090514  0  0  0.070162  0.11089  0  1.091951  0
H  H3  1  0.38973508  0.95944529  0.30825766  1  0  0.095331  0  1.01712  0  0  0.112077  0  1.091237  0  0  0.113592  0  1.090479  0  0  0.070155  0.110868  0  1.091904  0
H  H4  1  0.88974055  0.30824682  0.95944124  1  0  0.095383  0  1.017106  0  0  0.112128  0  1.091234  0  0  0.11365  0  1.090469  0  0  0.070166  0.110921  0  1.091899  0
H  H5  1  0.61026211  0.04055880  0.69174275  1  0  0.095353  0  1.017153  0  0  0.112068  0  1.091294  0  0  0.113583  0  1.090531  0  0  0.070157  0.11086  0  1.091959  0
H  H6  1  0.96919366  0.55778613  0.15455070  1  0  0.128732  0  0.934397  0  0  0.151743  0  0.991628  0  0  0.153069  0  0.991667  0  0  0.098715  0.15074  0  0.991668  0
H  H7  1  0.53080740  0.84546065  0.44222229  1  0  0.128694  0  0.934421  0  0  0.151657  0  0.991702  0  0  0.152982  0  0.99174  0  0  0.098671  0.150654  0  0.991741  0
H  H8  1  0.03080916  0.44221113  0.84545229  1  0  0.128718  0  0.934408  0  0  0.151724  0  0.991659  0  0  0.153051  0  0.991696  0  0  0.098687  0.15072  0  0.991699  0
H  H9  1  0.46918977  0.15454345  0.55778031  1  0  0.128716  0  0.934421  0  0  0.151686  0  0.991692  0  0  0.153011  0  0.991729  0  0  0.098684  0.150682  0  0.99173  0
H  H10  1  0.17333247  0.49422109  0.08419483  1  0  0.123687  0  0.947939  0  0  0.144147  0  1.009523  0  0  0.145841  0  1.009169  0  0  0.089445  0.142893  0  1.009812  0
H  H11  1  0.32666410  0.91581157  0.50578498  1  0  0.123606  0  0.948035  0  0  0.144053  0  1.009625  0  0  0.145747  0  1.009271  0  0  0.089392  0.142798  0  1.009916  0
H  H12  1  0.82666914  0.50577502  0.91580637  1  0  0.123696  0  0.947999  0  0  0.144182  0  1.009556  0  0  0.145877  0  1.009202  0  0  0.089453  0.142928  0  1.009844  0
H  H13  1  0.67333324  0.08419025  0.49421713  1  0  0.12363  0  0.948023  0  0  0.144085  0  1.009594  0  0  0.145778  0  1.00924  0  0  0.089424  0.142828  0  1.009889  0
H  H14  1  0.13340508  0.23444276  0.50279442  1  0  0.121282  0  0.969768  0  0  0.135731  0  1.041681  0  0  0.138648  0  1.03926  0  0  0.080821  0.133584  0  1.043461  0
H  H15  1  0.36659872  0.49720553  0.76556586  1  0  0.121313  0  0.969685  0  0  0.135786  0  1.041581  0  0  0.138703  0  1.03916  0  0  0.080853  0.133642  0  1.043355  0
H  H16  1  0.86659089  0.76556020  0.49720747  1  0  0.121298  0  0.969658  0  0  0.135736  0  1.041591  0  0  0.138653  0  1.039168  0  0  0.080824  0.133587  0  1.043373  0
H  H17  1  0.63340524  0.50279398  0.23443425  1  0  0.121354  0  0.969698  0  0  0.135797  0  1.041634  0  0  0.138714  0  1.039212  0  0  0.08084  0.133652  0  1.043411  0
H  H18  1  0.20883940  0.26980489  0.30675949  1  0  0.10799  0  0.980065  0  0  0.124615  0  1.051762  0  0  0.126081  0  1.051319  0  0  0.077515  0.123508  0  1.052146  0
H  H19  1  0.29116097  0.69323911  0.73019872  1  0  0.108017  0  0.980045  0  0  0.124657  0  1.051735  0  0  0.126124  0  1.051292  0  0  0.077536  0.123549  0  1.05212  0
H  H20  1  0.79115446  0.73019125  0.69324331  1  0  0.107999  0  0.980048  0  0  0.124625  0  1.051741  0  0  0.126089  0  1.0513  0  0  0.077515  0.123517  0  1.052124  0
H  H21  1  0.70884438  0.30675925  0.26979943  1  0  0.10801  0  0.980061  0  0  0.124661  0  1.051723  0  0  0.126126  0  1.051281  0  0  0.07754  0.123553  0  1.052108  0
H  H22  1  0.99534306  0.32773526  0.35423158  1  0  0.112733  0  0.974999  0  0  0.134379  0  1.035753  0  0  0.134748  0  1.037611  0  0  0.088172  0.134059  0  1.034524  0
H  H23  1  0.50465627  0.64576960  0.67227605  1  0  0.112757  0  0.975015  0  0  0.134435  0  1.035734  0  0  0.134805  0  1.037589  0  0  0.088179  0.134114  0  1.034506  0
H  H24  1  0.00465404  0.67226996  0.64576961  1  0  0.11269  0  0.975065  0  0  0.134362  0  1.035792  0  0  0.134731  0  1.037648  0  0  0.088167  0.134043  0  1.03456  0
H  H25  1  0.49534514  0.35422990  0.32772096  1  0  0.112776  0  0.975006  0  0  0.134439  0  1.035744  0  0  0.134807  0  1.0376  0  0  0.08819  0.134119  0  1.034513  0
C  C26  1  0.10575421  0.58463391  0.12979963  1  0  -0.351314  0  3.700902  0  0  -0.429845  0  3.931064  0  0  -0.432999  0  3.939614  0  0  -0.243461  -0.427307  0  3.925203  0
C  C27  1  0.39424340  0.87020943  0.41537541  1  0  -0.351205  0  3.700793  0  0  -0.429723  0  3.930955  0  0  -0.43286  0  3.939514  0  0  -0.243387  -0.427185  0  3.925092  0
C  C28  1  0.89424983  0.41536446  0.87020079  1  0  -0.351392  0  3.700865  0  0  -0.429998  0  3.931033  0  0  -0.43314  0  3.939581  0  0  -0.2435  -0.427462  0  3.925171  0
C  C29  1  0.60575386  0.12979353  0.58462748  1  0  -0.351234  0  3.700879  0  0  -0.42974  0  3.930986  0  0  -0.432882  0  3.939544  0  0  -0.243414  -0.427202  0  3.925124  0
C  C30  1  0.18840496  0.46473659  0.39781263  1  0  0.209678  0  3.721042  0  0  0.216051  0  3.974854  0  0  0.218998  0  3.99481  0  0  0.120762  0.213846  0  3.961483  0
C  C31  1  0.31160501  0.60219500  0.53526663  1  0  0.209544  0  3.720976  0  0  0.215969  0  3.974671  0  0  0.218936  0  3.994639  0  0  0.120672  0.213762  0  3.961298  0
C  C32  1  0.81159913  0.53526068  0.60219464  1  0  0.209661  0  3.720837  0  0  0.215928  0  3.974722  0  0  0.218891  0  3.994688  0  0  0.120701  0.21372  0  3.96135  0
C  C33  1  0.68839872  0.39780792  0.46473367  1  0  0.209568  0  3.721277  0  0  0.216002  0  3.974915  0  0  0.218958  0  3.994876  0  0  0.12074  0.213796  0  3.961543  0
C  C34  1  0.18339399  0.59254665  0.27095498  1  0  0.224518  0  3.669146  0  0  0.224077  0  3.916895  0  0  0.229744  0  3.937666  0  0  0.119483  0.220049  0  3.902963  0
C  C35  1  0.31660039  0.72904939  0.40745614  1  0  0.224559  0  3.669408  0  0  0.22422  0  3.916926  0  0  0.229833  0  3.937771  0  0  0.11953  0.220198  0  3.902983  0
C  C36  1  0.81660112  0.40745060  0.72904196  1  0  0.224508  0  3.669432  0  0  0.22423  0  3.91704  0  0  0.229844  0  3.937883  0  0  0.119547  0.220206  0  3.903103  0
C  C37  1  0.68339601  0.27094786  0.59254072  1  0  0.224466  0  3.669262  0  0  0.224149  0  3.916776  0  0  0.229784  0  3.93759  0  0  0.119449  0.220125  0  3.902834  0
C  C38  1  0.12799246  0.31595054  0.39082599  1  0  -0.368199  0  3.718763  0  0  -0.447316  0  3.953544  0  0  -0.450506  0  3.962438  0  0  -0.250334  -0.444796  0  3.947472  0
C  C39  1  0.37201106  0.60917379  0.68405229  1  0  -0.368273  0  3.718849  0  0  -0.44746  0  3.953549  0  0  -0.450654  0  3.962444  0  0  -0.250369  -0.444939  0  3.947474  0
C  C40  1  0.87200504  0.68404900  0.60917563  1  0  -0.368153  0  3.718714  0  0  -0.447253  0  3.953481  0  0  -0.450443  0  3.962381  0  0  -0.250307  -0.444731  0  3.947409  0
C  C41  1  0.62799294  0.39082570  0.31594346  1  0  -0.368324  0  3.718837  0  0  -0.447487  0  3.953564  0  0  -0.450675  0  3.96246  0  0  -0.250385  -0.444967  0  3.947491  0
I  I42  1  0.08976936  0.97249351  0.78558511  1  0  -0.404972  0  1.205058  0  0  -0.343211  0  1.520547  0  0  -0.365073  0  1.501574  0  0  -0.164233  -0.328128  0  1.533375  0
I  I43  1  0.41023157  0.21441478  0.02750598  1  0  -0.404983  0  1.205096  0  0  -0.343234  0  1.520595  0  0  -0.365098  0  1.501628  0  0  -0.164233  -0.328152  0  1.533424  0
I  I44  1  0.91023074  0.02750601  0.21441416  1  0  -0.404962  0  1.205064  0  0  -0.343204  0  1.52055  0  0  -0.365065  0  1.50158  0  0  -0.164222  -0.328118  0  1.533376  0
I  I45  1  0.58976853  0.78558474  0.97249329  1  0  -0.404986  0  1.205078  0  0  -0.343235  0  1.520575  0  0  -0.365099  0  1.501608  0  0  -0.164234  -0.328152  0  1.533404  0
N  N46  1  0.25000276  0.72192186  0.27808371  1  0  -0.363578  0  3.227551  0  0  -0.291725  0  3.471174  0  0  -0.311596  0  3.49354  0  0  -0.31784  -0.278005  0  3.455886  0
N  N47  1  0.75000232  0.27807994  0.72192008  1  0  -0.363438  0  3.227534  0  0  -0.29168  0  3.471145  0  0  -0.311538  0  3.493514  0  0  -0.317781  -0.277961  0  3.455857  0
N  N48  1  0.25000063  0.47194641  0.52804393  1  0  -0.346575  0  3.013222  0  0  -0.325223  0  3.280166  0  0  -0.332799  0  3.294108  0  0  -0.307928  -0.319761  0  3.270697  0
N  N49  1  0.74999627  0.52804397  0.47194712  1  0  -0.346606  0  3.013206  0  0  -0.325239  0  3.280173  0  0  -0.332812  0  3.294113  0  0  -0.307955  -0.319776  0  3.270705  0
