# generated using pymatgen
data_CuH3C4(BrN)2
_symmetry_space_group_name_H-M   'P 1'
_cell_length_a   6.96241363
_cell_length_b   7.01260438
_cell_length_c   7.62768335
_cell_angle_alpha   62.60475864
_cell_angle_beta   90.35988106
_cell_angle_gamma   90.85031145
_symmetry_Int_Tables_number   1
_chemical_formula_structural   CuH3C4(BrN)2
_chemical_formula_sum   'Cu2 H6 C8 Br4 N4'
_cell_volume   330.61706572
_cell_formula_units_Z   2
loop_
 _symmetry_equiv_pos_site_id
 _symmetry_equiv_pos_as_xyz
  1  'x, y, z'
loop_
 _atom_site_type_symbol
 _atom_site_label
 _atom_site_symmetry_multiplicity
 _atom_site_fract_x
 _atom_site_fract_y
 _atom_site_fract_z
 _atom_site_occupancy
 _atom_site_hle17_ddec_charge
 _atom_site_hle17_ddec_spin_density
 _atom_site_hle17_ddec_sum_bond_order
 _atom_site_hle17_magmom
 _atom_site_hse06_10hf_ddec_charge
 _atom_site_hse06_10hf_ddec_spin_density
 _atom_site_hse06_10hf_ddec_sum_bond_order
 _atom_site_hse06_10hf_magmom
 _atom_site_hse06_ddec_charge
 _atom_site_hse06_ddec_spin_density
 _atom_site_hse06_ddec_sum_bond_order
 _atom_site_hse06_magmom
 _atom_site_pbe_cm5_charge
 _atom_site_pbe_ddec_charge
 _atom_site_pbe_ddec_spin_density
 _atom_site_pbe_ddec_sum_bond_order
 _atom_site_pbe_magmom
Cu  Cu0  1  0.49986852  0.29575557  0.40832747  1  0.608297  -0.511493  2.018625  -0.374  0.605023  -0.662514  2.412178  -0.519  0.699848  -0.764071  2.33769  -0.616  0.504253  0.555656  -0.563664  2.456213  -0.436
Cu  Cu1  1  0.50012840  0.70424624  0.59167535  1  0.608346  0.511521  2.018547  0.374  0.605093  0.66253  2.412085  0.519  0.699897  0.764091  2.337617  0.616  0.504285  0.555667  0.563734  2.456137  0.436
H  H2  1  0.05440581  0.18215950  0.99996026  1  0.129559  -7e-06  0.953904  0.0  0.141253  -8e-06  1.010433  0.0  0.146713  -8e-06  1.007433  0.0  0.100714  0.137582  -9e-06  1.012458  0.0
H  H3  1  0.94559114  0.81784431  0.00003259  1  0.129586  7e-06  0.95358  0.0  0.141216  6e-06  1.010209  0.0  0.146671  7e-06  1.007221  0.0  0.100699  0.137543  8e-06  1.012231  0.0
H  H4  1  0.89330537  0.11765232  0.32085566  1  0.089163  0.001172  0.969442  -0.001  0.096631  0.000609  1.037336  -0.001  0.100889  0.000422  1.031368  -0.001  0.103388  0.094001  0.000661  1.04117  -0.001
H  H5  1  0.10677604  0.56190283  0.32102311  1  0.08989  0.001164  0.968122  -0.001  0.096821  0.000607  1.036386  -0.001  0.101077  0.000417  1.030459  -0.001  0.103335  0.094191  0.000653  1.040194  -0.001
H  H6  1  0.10668585  0.88234886  0.67912376  1  0.089233  -0.00117  0.969187  0.001  0.096615  -0.00061  1.037206  0.001  0.100877  -0.000422  1.031232  0.001  0.103363  0.093983  -0.000661  1.041041  0.001
H  H7  1  0.89322239  0.43810483  0.67896115  1  0.089758  -0.001163  0.967978  0.001  0.096673  -0.000605  1.036319  0.001  0.100929  -0.000416  1.030398  0.001  0.103293  0.094044  -0.000652  1.040129  0.001
C  C8  1  0.59039472  0.44872052  0.99999793  1  0.319145  4.1e-05  3.744103  0.0  0.295014  1.5e-05  3.99654  0.0  0.312712  1.1e-05  4.008428  0.0  0.251924  0.282901  -3e-06  3.989845  0.0
C  C9  1  0.40959073  0.55129581  0.99999350  1  0.319334  -2.8e-05  3.744964  0.0  0.295123  -1.4e-05  3.997393  0.0  0.312818  -1e-05  4.009284  0.0  0.251946  0.283014  5e-06  3.990694  0.0
C  C10  1  0.91968533  0.25911407  0.99995977  1  -0.139489  -5e-05  3.630409  0.0  -0.148478  -1.8e-05  3.868485  0.0  -0.159172  -1.1e-05  3.881153  0.0  -0.072691  -0.141504  -1.7e-05  3.859404  0.0
C  C11  1  0.08033013  0.74086932  0.00005676  1  -0.139329  3.6e-05  3.6305  0.0  -0.148331  2e-05  3.86862  0.0  -0.159003  1.1e-05  3.881247  0.0  -0.072613  -0.141368  1.6e-05  3.859556  0.0
C  C12  1  0.83207404  0.22168885  0.17673412  1  0.201157  0.001054  3.620313  0.001  0.170795  9.2e-05  3.863084  0.0  0.187858  0.000324  3.871743  0.001  0.068761  0.159857  -0.000106  3.856884  0.0
C  C13  1  0.16798738  0.60176420  0.17683055  1  0.200675  0.001122  3.618168  0.001  0.170755  0.000167  3.860779  0.0  0.187732  0.000367  3.86946  0.001  0.069048  0.159797  -9.3e-05  3.854579  0.0
C  C14  1  0.16792712  0.77830561  0.82327924  1  0.201173  -0.001032  3.620095  -0.001  0.170854  -9.3e-05  3.862786  0.0  0.187924  -0.000323  3.871433  -0.001  0.068832  0.159909  0.000105  3.856589  0.0
C  C15  1  0.83200526  0.39824770  0.82317981  1  0.200926  -0.001123  3.617983  -0.001  0.170963  -0.000164  3.860726  0.0  0.18793  -0.000366  3.869417  -0.001  0.069117  0.159998  9.5e-05  3.854527  0.0
Br  Br16  1  0.71140586  0.04753126  0.65459290  1  -0.420269  -0.189493  1.107972  -0.185  -0.444721  -0.121361  1.439962  -0.121  -0.488495  -0.097186  1.416491  -0.099  -0.239885  -0.421256  -0.123574  1.456349  -0.122
Br  Br17  1  0.28826889  0.29697395  0.65494765  1  -0.420509  -0.189356  1.106461  -0.185  -0.444977  -0.121318  1.438313  -0.121  -0.488744  -0.09713  1.414868  -0.099  -0.240089  -0.421629  -0.123457  1.45477  -0.121
Br  Br18  1  0.28858972  0.95248241  0.34539815  1  -0.420293  0.189434  1.107884  0.185  -0.444756  0.121327  1.439918  0.121  -0.488527  0.097154  1.416446  0.099  -0.239883  -0.421276  0.123543  1.45628  0.122
Br  Br19  1  0.71172759  0.70295930  0.34508643  1  -0.420519  0.189361  1.106583  0.185  -0.444995  0.121327  1.438461  0.121  -0.488759  0.097136  1.415009  0.099  -0.240112  -0.421649  0.123407  1.454919  0.121
N  N20  1  0.66649485  0.31862897  0.17557207  1  -0.328555  -0.036818  3.288816  -0.047  -0.268974  -0.039288  3.554986  -0.052  -0.300163  -0.03656  3.571846  -0.051  -0.324379  -0.249684  -0.03704  3.544828  -0.048
N  N21  1  0.33361622  0.50602598  0.17558123  1  -0.329316  -0.036734  3.288556  -0.047  -0.269314  -0.039222  3.554084  -0.052  -0.300432  -0.036523  3.570866  -0.051  -0.324461  -0.250064  -0.037009  3.543971  -0.048
N  N22  1  0.33352357  0.68137021  0.82444481  1  -0.328706  0.036806  3.289221  0.047  -0.26904  0.039283  3.555332  0.052  -0.300222  0.036556  3.572176  0.051  -0.324437  -0.249734  0.037037  3.545149  0.048
N  N23  1  0.66639383  0.49399756  0.82438740  1  -0.329258  0.036749  3.28847  0.047  -0.269245  0.039232  3.554021  0.052  -0.300357  0.036531  3.570793  0.051  -0.324411  -0.249979  0.037019  3.543891  0.048
