# generated using pymatgen
data_Zn2H23C33I6N7O8
_symmetry_space_group_name_H-M   'P 1'
_cell_length_a   10.85125146
_cell_length_b   10.80151555
_cell_length_c   14.02074656
_cell_angle_alpha   86.39552552
_cell_angle_beta   98.11928239
_cell_angle_gamma   106.01421347
_symmetry_Int_Tables_number   1
_chemical_formula_structural   Zn2H23C33I6N7O8
_chemical_formula_sum   'Zn2 H23 C33 I6 N7 O8'
_cell_volume   1563.27019040
_cell_formula_units_Z   1
loop_
 _symmetry_equiv_pos_site_id
 _symmetry_equiv_pos_as_xyz
  1  'x, y, z'
loop_
 _atom_site_type_symbol
 _atom_site_label
 _atom_site_symmetry_multiplicity
 _atom_site_fract_x
 _atom_site_fract_y
 _atom_site_fract_z
 _atom_site_occupancy
 _atom_site_pbe_bader_charge
 _atom_site_pbe_bader_spin_density
 _atom_site_pbe_cm5_charge
 _atom_site_pbe_ddec_charge
 _atom_site_pbe_ddec_spin_density
 _atom_site_pbe_ddec_sum_bond_order
 _atom_site_pbe_magmom
Zn  Zn0  1  0.36835241  0.52892159  0.53687803  1  1.298002  0  0.684043  0.874229  0  2.254743  0
Zn  Zn1  1  0.65048546  0.59574048  0.54055429  1  1.253934  0  0.62537  0.838392  0  2.349947  0
H  H2  1  0.38202953  0.57694215  0.01954030  1  0.103553  0  0.114514  0.114451  0  0.975468  0
H  H3  1  0.99930301  0.48888734  0.05261625  1  0.0212  0  0.097686  0.109485  0  0.98055  0
H  H4  1  0.08426206  0.40793889  0.98966510  1  0.032938  0  0.097376  0.105838  0  0.987145  0
H  H5  1  0.26047449  0.42711499  0.33202221  1  0.492605  0  0.300174  0.25777  0  1.001092  0
H  H6  1  0.34730405  0.29066619  0.26535549  1  0.069624  0  0.095541  0.107792  0  1.027611  0
H  H7  1  0.26367043  0.32138614  0.15258465  1  0.024891  0  0.090078  0.088907  0  1.011081  0
H  H8  1  0.18973117  0.19021205  0.22940490  1  0.041469  0  0.090481  0.093789  0  1.018431  0
H  H9  1  0.22955116  0.66168190  0.57929965  1  0.477991  0  0.308214  0.274426  0  0.915714  0
H  H10  1  0.09040490  0.53778701  0.70197579  1  0.032808  0  0.076357  0.079587  0  1.071958  0
H  H11  1  0.26228050  0.56642764  0.73022799  1  0.111779  0  0.111016  0.140262  0  0.974881  0
H  H12  1  0.16727418  0.41381488  0.68803946  1  0.030263  0  0.093503  0.115223  0  1.010425  0
H  H13  1  0.67266540  0.59042440  0.05897459  1  0.107019  0  0.119916  0.122307  0  0.958768  0
H  H14  1  0.73562362  0.03809865  0.73045038  1  0.402524  0  0.265624  0.208409  0  1.040321  0
H  H15  1  0.89637818  0.96419201  0.67474474  1  0.015232  0  0.086182  0.102162  0  1.000103  0
H  H16  1  0.86861441  0.09506490  0.59791071  1  0.015881  0  0.065483  0.065587  0  1.061275  0
H  H17  1  0.80012730  0.93311446  0.56050709  1  0.100027  0  0.086975  0.112196  0  1.063704  0
H  H18  1  0.36237401  0.80695168  0.39928859  1  0.1286  0  0.10497  0.132784  0  1.009641  0
H  H19  1  0.80516517  0.24209495  0.07925656  1  0.475407  0  0.296984  0.233143  0  1.005686  0
H  H20  1  0.61957588  0.29991281  0.02862551  1  0.028544  0  0.100997  0.111287  0  0.983923  0
H  H21  1  0.62819085  0.36482019  0.14401394  1  0.062496  0  0.091767  0.098808  0  1.034307  0
H  H22  1  0.54905080  0.19969297  0.12389150  1  0.051643  0  0.088477  0.096025  0  1.010161  0
H  H23  1  0.05160966  0.23733483  0.10490340  1  0.396005  0  0.295109  0.238763  0  0.970363  0
H  H24  1  0.15647842  0.47923176  0.10361919  1  0.026591  0  0.086141  0.086325  0  1.03305  0
C  C25  1  0.48499510  0.32219131  0.55018430  1  1.59919  0  0.20514  0.59193  0  4.16668  0
C  C26  1  0.58457734  0.14640596  0.62180788  1  -0.221992  0  -0.033659  -0.021075  0  3.804257  0
C  C27  1  0.60787476  0.02388943  0.61257111  1  0.462459  0  0.089775  0.174088  0  4.030735  0
C  C28  1  0.50608025  0.57940637  0.35426504  1  1.620379  0  0.217769  0.654013  0  4.230972  0
C  C29  1  0.52611429  0.94237632  0.54322010  1  -0.060234  0  -0.007355  -0.132775  0  3.863618  0
C  C30  1  0.80349574  0.32221088  0.30096476  1  -0.163807  0  -0.09062  -0.187569  0  3.928379  0
C  C31  1  0.83953740  0.29512340  0.21357294  1  0.459006  0  0.099805  0.151123  0  4.122151  0
C  C32  1  0.97471803  0.31826457  0.20278747  1  0.360722  0  0.053704  0.000194  0  3.982284  0
C  C33  1  0.07221039  0.36358086  0.27885167  1  0.533024  0  0.103579  0.092616  0  4.099451  0
C  C34  1  0.03477075  0.40870755  0.36226623  1  0.515299  0  0.108229  0.083958  0  4.027096  0
C  C35  1  0.89995774  0.39435529  0.36920292  1  0.505014  0  0.10437  0.156988  0  4.069704  0
C  C36  1  0.49260385  0.58334809  0.25040749  1  0.136882  0  -0.034593  -0.171555  0  3.93382  0
C  C37  1  0.96516906  0.51939874  0.50315129  1  0.494757  0  0.09396  0.069539  0  3.967478  0
C  C38  1  0.09480870  0.51496425  0.50692444  1  0.944077  0  0.184161  0.223692  0  4.086865  0
C  C39  1  0.53502106  0.80627136  0.53962118  1  1.622471  0  0.224521  0.629894  0  4.138698  0
C  C40  1  0.55350003  0.56421816  0.72475560  1  1.673315  0  0.213575  0.658878  0  4.245998  0
C  C41  1  0.56626075  0.57186480  0.82840583  1  0.102971  0  -0.035767  -0.170616  0  3.937802  0
C  C42  1  0.57899864  0.58418079  0.01585160  1  0.072608  0  -0.059515  -0.040816  0  4.059985  0
C  C43  1  0.47578125  0.58185935  0.06209242  1  0.073791  0  -0.065115  -0.056284  0  4.06364  0
C  C44  1  0.48458197  0.58439985  0.16264088  1  -0.372065  0  -0.032014  -0.008698  0  4.149793  0
C  C45  1  0.57167807  0.57864509  0.91558270  1  -0.386882  0  -0.039264  -0.021674  0  4.159031  0
C  C46  1  0.63127471  0.27952278  0.10665391  1  0.298269  0  -0.1445  -0.217664  0  3.973042  0
C  C47  1  0.24719682  0.08370415  0.48909212  1  -0.167859  0  -0.049589  0.001751  0  3.803483  0
C  C48  1  0.06500749  0.42642016  0.06155471  1  0.284736  0  -0.148228  -0.222123  0  3.986713  0
C  C49  1  0.25124556  0.29010407  0.22799958  1  0.296717  0  -0.137911  -0.210536  0  3.967789  0
C  C50  1  0.17690367  0.51756015  0.68169672  1  0.233383  0  -0.153494  -0.223018  0  3.884934  0
C  C51  1  0.82481075  0.99550180  0.62270068  1  0.24584  0  -0.167463  -0.236692  0  3.977383  0
C  C52  1  0.16721968  0.00141326  0.41880158  1  -0.122673  0  -0.071233  -0.042899  0  3.928214  0
C  C53  1  0.21508231  0.90638648  0.38138415  1  -0.227866  0  -0.062526  0.027631  0  3.945764  0
C  C54  1  0.33215313  0.88762177  0.42174596  1  -0.028034  0  -0.103683  -0.167451  0  3.965684  0
C  C55  1  0.41432900  0.97221828  0.49209520  1  0.012776  0  -0.007743  0.072402  0  4.008475  0
C  C56  1  0.37991773  0.08386525  0.51629004  1  -0.004178  0  -0.011132  0.032197  0  3.927709  0
C  C57  1  0.47929456  0.18198019  0.57034645  1  0.044411  0  -0.030898  -0.121077  0  3.929477  0
I  I58  1  0.61951886  0.23954581  0.34361965  1  0.131584  0  0.104003  0.033057  0  1.693308  0
I  I59  1  0.71987648  0.26914857  0.72361313  1  0.133403  0  0.099289  0.009504  0  1.575746  0
I  I60  1  0.15926005  0.16577847  0.58464624  1  0.155728  0  0.103605  0.017876  0  1.751437  0
I  I61  1  0.97619049  0.00831774  0.37305347  1  0.16036  0  0.106249  0.022269  0  1.712913  0
I  I62  1  0.10896559  0.77882533  0.27239941  1  0.115198  0  0.061263  -0.019964  0  1.47349  0
I  I63  1  0.91881034  0.65595779  0.58849176  1  0.132694  0  0.186946  0.075057  0  1.759853  0
N  N64  1  0.87189254  0.45631518  0.44157874  1  -1.199152  0  -0.296586  -0.231214  0  3.395857  0
N  N65  1  0.12517129  0.46085964  0.43451158  1  -1.214234  0  -0.288687  -0.288317  0  3.433147  0
N  N66  1  0.75486914  0.25037217  0.13396743  1  -1.222466  0  -0.439005  -0.249465  0  3.588917  0
N  N67  1  0.00136754  0.30368114  0.10739935  1  -1.102737  0  -0.475406  -0.340282  0  3.50755  0
N  N68  1  0.19985354  0.37422719  0.27791523  1  -1.2409  0  -0.435974  -0.24992  0  3.613669  0
N  N69  1  0.19956120  0.56264972  0.58168556  1  -1.141311  0  -0.458887  -0.326648  0  3.534535  0
N  N70  1  0.70885692  0.98548463  0.66920436  1  -1.096319  0  -0.473317  -0.309053  0  3.458742  0
O  O71  1  0.38338890  0.35223787  0.51059255  1  -1.169631  0  -0.321399  -0.545476  0  2.434283  0
O  O72  1  0.59519387  0.40184226  0.56759361  1  -1.171443  0  -0.311797  -0.535638  0  2.5016  0
O  O73  1  0.40685719  0.58120508  0.39333922  1  -1.158984  0  -0.307617  -0.559795  0  2.309853  0
O  O74  1  0.61600032  0.57353706  0.39684636  1  -1.127076  0  -0.302141  -0.514716  0  2.324669  0
O  O75  1  0.43780980  0.72314300  0.56754206  1  -1.176433  0  -0.313338  -0.564597  0  2.362218  0
O  O76  1  0.63153634  0.78169144  0.51184715  1  -1.150787  0  -0.299972  -0.514979  0  2.319438  0
O  O77  1  0.44387318  0.50203520  0.68360001  1  -1.157121  0  -0.305966  -0.54301  0  2.289136  0
O  O78  1  0.65341256  0.62107665  0.68476428  1  -1.137903  0  -0.31653  -0.541005  0  2.307835  0
