# generated using pymatgen
data_Cu2H9C11I2N3
_symmetry_space_group_name_H-M   'P 1'
_cell_length_a   9.77517529
_cell_length_b   11.34012829
_cell_length_c   12.26100000
_cell_angle_alpha   90.00000000
_cell_angle_beta   90.00000000
_cell_angle_gamma   93.45737433
_symmetry_Int_Tables_number   1
_chemical_formula_structural   Cu2H9C11I2N3
_chemical_formula_sum   'Cu8 H36 C44 I8 N12'
_cell_volume   1356.67946552
_cell_formula_units_Z   4
loop_
 _symmetry_equiv_pos_site_id
 _symmetry_equiv_pos_as_xyz
  1  'x, y, z'
loop_
 _atom_site_type_symbol
 _atom_site_label
 _atom_site_symmetry_multiplicity
 _atom_site_fract_x
 _atom_site_fract_y
 _atom_site_fract_z
 _atom_site_occupancy
 _atom_site_pbe_bader_charge
 _atom_site_pbe_bader_spin_density
 _atom_site_pbe_cm5_charge
 _atom_site_pbe_ddec_charge
 _atom_site_pbe_ddec_spin_density
 _atom_site_pbe_ddec_sum_bond_order
 _atom_site_pbe_magmom
Cu  Cu0  1  0.87432308  0.55574507  0.69869831  1  0.497998  0  0.344433  0.207141  0  2.693874  0
Cu  Cu1  1  0.62568411  0.94425114  0.19868852  1  0.498001  0  0.344407  0.207121  0  2.693994  0
Cu  Cu2  1  0.12568314  0.44425329  0.30130821  1  0.498052  0  0.344411  0.207131  0  2.693888  0
Cu  Cu3  1  0.37431814  0.05574899  0.80130414  1  0.497981  0  0.34443  0.207152  0  2.693893  0
Cu  Cu4  1  0.98100292  0.38490167  0.47433407  1  0.393655  0  0.229455  0.117627  0  2.710854  0
Cu  Cu5  1  0.51900089  0.11510061  0.97432999  1  0.393649  0  0.229479  0.117678  0  2.710752  0
Cu  Cu6  1  0.01899837  0.61509934  0.52566838  1  0.393635  0  0.229466  0.117627  0  2.710848  0
Cu  Cu7  1  0.48100564  0.88490217  0.02566675  1  0.39365  0  0.229473  0.117625  0  2.710879  0
H  H8  1  0.14720627  0.42232297  0.72723350  1  0.101094  0  0.102758  0.076914  0  1.028537  0
H  H9  1  0.35279836  0.07766870  0.22722372  1  0.101  0  0.102765  0.076863  0  1.028532  0
H  H10  1  0.85279785  0.57767451  0.27277465  1  0.101041  0  0.1028  0.076923  0  1.02857  0
H  H11  1  0.64720178  0.92233054  0.77276976  1  0.101104  0  0.102796  0.076947  0  1.028556  0
H  H12  1  0.23476276  0.28826391  0.86877661  1  0.116382  0  0.085309  0.090042  0  1.084427  0
H  H13  1  0.26523983  0.21172776  0.36876519  1  0.116103  0  0.08528  0.089989  0  1.084414  0
H  H14  1  0.76524129  0.71173269  0.13123155  1  0.116279  0  0.085252  0.089953  0  1.08439  0
H  H15  1  0.73475840  0.78827325  0.63122584  1  0.116458  0  0.085252  0.089934  0  1.08444  0
H  H16  1  0.08639872  0.23824840  0.03451431  1  0.098146  0  0.09209  0.094535  0  1.034079  0
H  H17  1  0.41359720  0.26175034  0.53450697  1  0.097862  0  0.092146  0.094611  0  1.034016  0
H  H18  1  0.91360022  0.76174820  0.96549140  1  0.097876  0  0.092149  0.094611  0  1.033986  0
H  H19  1  0.58639858  0.73825950  0.46548732  1  0.098255  0  0.092119  0.094594  0  1.034041  0
H  H20  1  0.86077761  0.32933113  0.04987603  1  0.096135  0  0.100195  0.108217  0  1.038407  0
H  H21  1  0.63922378  0.17066584  0.54986706  1  0.096271  0  0.10017  0.108191  0  1.038429  0
H  H22  1  0.13922222  0.67066369  0.95012805  1  0.09622  0  0.100142  0.108147  0  1.038448  0
H  H23  1  0.36077463  0.82933782  0.45012560  1  0.096179  0  0.100129  0.108125  0  1.038458  0
H  H24  1  0.68647805  0.45885907  0.96829459  1  0.103399  0  0.116649  0.095883  0  0.98221  0
H  H25  1  0.81352347  0.04113967  0.46828644  1  0.103198  0  0.116661  0.095874  0  0.982224  0
H  H26  1  0.31352107  0.54114017  0.03170622  1  0.103458  0  0.116645  0.095863  0  0.982163  0
H  H27  1  0.18647290  0.95886399  0.53170459  1  0.103524  0  0.116654  0.095887  0  0.982173  0
H  H28  1  0.67098561  0.70909211  0.96145502  1  0.084644  0  0.104772  0.088263  0  1.048092  0
H  H29  1  0.82901383  0.79091029  0.46145013  1  0.084697  0  0.104786  0.088245  0  1.048167  0
H  H30  1  0.32901574  0.29090979  0.03854824  1  0.084665  0  0.104789  0.088272  0  1.048179  0
H  H31  1  0.17098076  0.20908277  0.53854335  1  0.084691  0  0.104765  0.088218  0  1.048147  0
H  H32  1  0.28712440  0.78640037  0.84731425  1  0.107234  0  0.091377  0.066872  0  1.069987  0
H  H33  1  0.21287618  0.71359584  0.34731343  1  0.106875  0  0.091393  0.066875  0  1.069955  0
H  H34  1  0.71287352  0.21359622  0.15268820  1  0.106923  0  0.091417  0.066921  0  1.069937  0
H  H35  1  0.78712192  0.28640340  0.65269065  1  0.10686  0  0.091385  0.066854  0  1.069975  0
H  H36  1  0.29250729  0.63213103  0.70334067  1  0.09866  0  0.085496  0.09962  0  1.063269  0
H  H37  1  0.20749316  0.86786341  0.20333578  1  0.098766  0  0.085473  0.099637  0  1.063254  0
H  H38  1  0.70748858  0.36786556  0.29666340  1  0.098805  0  0.085487  0.099666  0  1.063258  0
H  H39  1  0.79250915  0.13213760  0.79666748  1  0.098782  0  0.085466  0.099617  0  1.063246  0
H  H40  1  0.50362766  0.51506126  0.68465215  1  0.120384  0  0.093782  0.113805  0  1.020767  0
H  H41  1  0.99637225  0.98493319  0.18464726  1  0.12036  0  0.093795  0.113811  0  1.02081  0
H  H42  1  0.49637044  0.48493799  0.31534785  1  0.120364  0  0.093802  0.113805  0  1.020823  0
H  H43  1  0.00362597  0.01506782  0.81535274  1  0.12036  0  0.093801  0.113799  0  1.02079  0
C  C44  1  0.08666698  0.39936257  0.79985564  1  0.496799  0  0.045355  0.102688  0  3.91454  0
C  C45  1  0.41333380  0.10063264  0.29984585  1  0.496727  0  0.045306  0.102728  0  3.914299  0
C  C46  1  0.91333177  0.60063138  0.20015088  1  0.49669  0  0.045249  0.102518  0  3.914313  0
C  C47  1  0.58666851  0.89936837  0.70014681  1  0.496597  0  0.045252  0.102522  0  3.914362  0
C  C48  1  0.13485620  0.32481414  0.87990621  1  -0.024642  0  -0.085734  -0.119214  0  3.949586  0
C  C49  1  0.36514676  0.17518283  0.37989397  1  -0.0239  0  -0.085607  -0.119038  0  3.94929  0
C  C50  1  0.86514677  0.67518156  0.12010113  1  -0.024568  0  -0.085605  -0.118953  0  3.949295  0
C  C51  1  0.63485274  0.82482172  0.62009542  1  -0.024622  0  -0.085556  -0.118918  0  3.949389  0
C  C52  1  0.05289142  0.29713357  0.97078297  1  -0.140227  0  -0.077277  -0.035096  0  3.962206  0
C  C53  1  0.44710577  0.20286871  0.47077726  1  -0.140229  0  -0.077306  -0.035172  0  3.961908  0
C  C54  1  0.94710554  0.70286391  0.02922192  1  -0.139819  0  -0.07735  -0.035245  0  3.96212  0
C  C55  1  0.55289288  0.79713849  0.52922111  1  -0.140194  0  -0.077357  -0.035247  0  3.962271  0
C  C56  1  0.92634026  0.34636105  0.97909143  1  0.067651  0  -0.075621  -0.132539  0  3.916489  0
C  C57  1  0.57366119  0.15363680  0.47908083  1  0.067806  0  -0.075591  -0.132465  0  3.916431  0
C  C58  1  0.07365976  0.65363642  0.02091428  1  0.067616  0  -0.075522  -0.132353  0  3.916319  0
C  C59  1  0.42633836  0.84636863  0.52091265  1  0.067506  0  -0.075534  -0.132327  0  3.916396  0
C  C60  1  0.88431137  0.41904985  0.89493924  1  0.457022  0  0.102619  0.176908  0  4.011095  0
C  C61  1  0.61569405  0.08094624  0.39493353  1  0.407886  0  0.102663  0.176911  0  4.011367  0
C  C62  1  0.11569250  0.58094409  0.10506566  1  0.407981  0  0.102595  0.176842  0  4.011401  0
C  C63  1  0.38431164  0.91905919  0.60505995  1  0.407972  0  0.102617  0.176797  0  4.011359  0
C  C64  1  0.75439380  0.47469282  0.89804665  1  0.609347  0  0.072297  0.057552  0  3.887516  0
C  C65  1  0.74560477  0.02530768  0.39803523  1  0.658608  0  0.072268  0.057542  0  3.887576  0
C  C66  1  0.24560129  0.52530730  0.10195824  1  0.658241  0  0.072312  0.057544  0  3.887578  0
C  C67  1  0.25439134  0.97469245  0.60195824  1  0.658184  0  0.072342  0.057648  0  3.887552  0
C  C68  1  0.60166212  0.60218798  0.82368322  1  0.375109  0  0.089861  0.168521  0  4.046868  0
C  C69  1  0.89833665  0.89780470  0.32367588  1  0.375142  0  0.089901  0.168617  0  4.04698  0
C  C70  1  0.39833471  0.39780773  0.17632167  1  0.375244  0  0.089869  0.168575  0  4.046889  0
C  C71  1  0.10166229  0.10219190  0.67632004  1  0.375091  0  0.089843  0.168431  0  4.047211  0
C  C72  1  0.58834762  0.68907265  0.90351847  1  0.515861  0  0.028288  -0.019772  0  3.908394  0
C  C73  1  0.91165074  0.81092886  0.40351684  1  0.515873  0  0.02823  -0.019772  0  3.908509  0
C  C74  1  0.41164844  0.31092659  0.09648071  1  0.515798  0  0.0283  -0.019697  0  3.908274  0
C  C75  1  0.08834333  0.18907126  0.59648316  1  0.515943  0  0.028357  -0.019647  0  3.908466  0
C  C76  1  0.37453609  0.73160196  0.83985972  1  0.441332  0  0.024422  0.062716  0  3.944262  0
C  C77  1  0.12545822  0.76839249  0.33985809  1  0.441909  0  0.024427  0.062679  0  3.944271  0
C  C78  1  0.62545677  0.26839552  0.16014028  1  0.441728  0  0.024381  0.062608  0  3.944461  0
C  C79  1  0.87453662  0.23160410  0.66014273  1  0.441842  0  0.024418  0.06272  0  3.944354  0
C  C80  1  0.37917033  0.64576857  0.75882065  1  0.002732  0  -0.092635  -0.110227  0  3.986119  0
C  C81  1  0.12083446  0.85422941  0.25881902  1  0.002457  0  -0.092594  -0.110244  0  3.985827  0
C  C82  1  0.62083186  0.35423067  0.24118180  1  0.002639  0  -0.092655  -0.110342  0  3.985963  0
C  C83  1  0.87916844  0.14576542  0.74117935  1  0.002631  0  -0.092599  -0.110271  0  3.985954  0
C  C84  1  0.49492484  0.58115258  0.74836473  1  -0.073645  0  -0.077875  -0.112367  0  3.921426  0
C  C85  1  0.00507292  0.91884717  0.24835821  1  -0.073687  0  -0.077919  -0.112412  0  3.921268  0
C  C86  1  0.50507140  0.41884931  0.25163853  1  -0.073715  0  -0.077828  -0.112259  0  3.921269  0
C  C87  1  0.99492940  0.08115384  0.75164098  1  -0.073715  0  -0.077877  -0.112242  0  3.921334  0
I  I88  1  0.76423232  0.50443975  0.50979936  1  -0.391562  0  -0.14551  -0.248442  0  2.167661  0
I  I89  1  0.73577447  0.99556530  0.00979284  1  -0.391653  0  -0.145512  -0.248466  0  2.167714  0
I  I90  1  0.23577223  0.49556391  0.49020716  1  -0.391681  0  -0.145509  -0.248456  0  2.167688  0
I  I91  1  0.26423122  0.00444013  0.99020390  1  -0.391589  0  -0.145522  -0.248487  0  2.16765  0
I  I92  1  0.01606327  0.75389448  0.70510888  1  -0.46134  0  -0.206462  -0.348373  0  1.84516  0
I  I93  1  0.48393671  0.74610791  0.20510644  1  -0.461388  0  -0.206445  -0.348334  0  1.845185  0
I  I94  1  0.98393598  0.24610653  0.29489356  1  -0.461395  0  -0.20644  -0.348326  0  1.84513  0
I  I95  1  0.51606507  0.25390016  0.79488949  1  -0.461419  0  -0.206457  -0.348391  0  1.84512  0
N  N96  1  0.96292418  0.44410399  0.80533154  1  -1.211105  0  -0.345678  -0.220407  0  3.578325  0
N  N97  1  0.53708156  0.05589652  0.30532094  1  -1.211048  0  -0.345741  -0.220518  0  3.57821  0
N  N98  1  0.03707789  0.55589349  0.19467417  1  -1.210869  0  -0.345681  -0.22035  0  3.578223  0
N  N99  1  0.46292113  0.94410979  0.69467254  1  -1.210826  0  -0.345712  -0.220415  0  3.578249  0
N  N100  1  0.72290564  0.54231867  0.81777261  1  -1.224574  0  -0.34266  -0.212503  0  3.605289  0
N  N101  1  0.77710084  0.95768196  0.31776446  1  -1.224838  0  -0.342692  -0.21256  0  3.605254  0
N  N102  1  0.27709667  0.45768234  0.18223147  1  -1.224789  0  -0.342701  -0.212587  0  3.605328  0
N  N103  1  0.22290154  0.04231993  0.68222739  1  -1.224623  0  -0.34268  -0.21256  0  3.605455  0
N  N104  1  0.47824689  0.75412241  0.91069081  1  -1.256419  0  -0.35975  -0.168381  0  3.671766  0
N  N105  1  0.02174665  0.74587557  0.41068591  1  -1.256471  0  -0.359723  -0.16835  0  3.67172  0
N  N106  1  0.52174929  0.24587860  0.08931082  1  -1.256462  0  -0.359762  -0.168403  0  3.67183  0
N  N107  1  0.97824819  0.25412102  0.58931245  1  -1.256612  0  -0.359792  -0.168424  0  3.67181  0
