# generated using pymatgen
data_ZnH22C30N3O8
_symmetry_space_group_name_H-M   'P 1'
_cell_length_a   7.27826081
_cell_length_b   12.16424631
_cell_length_c   16.62700000
_cell_angle_alpha   91.22136188
_cell_angle_beta   101.44196569
_cell_angle_gamma   101.81102554
_symmetry_Int_Tables_number   1
_chemical_formula_structural   ZnH22C30N3O8
_chemical_formula_sum   'Zn2 H44 C60 N6 O16'
_cell_volume   1409.31684047
_cell_formula_units_Z   2
loop_
 _symmetry_equiv_pos_site_id
 _symmetry_equiv_pos_as_xyz
  1  'x, y, z'
loop_
 _atom_site_type_symbol
 _atom_site_label
 _atom_site_symmetry_multiplicity
 _atom_site_fract_x
 _atom_site_fract_y
 _atom_site_fract_z
 _atom_site_occupancy
 _atom_site_hle17_bader_spin_density
 _atom_site_hle17_ddec_charge
 _atom_site_hle17_ddec_spin_density
 _atom_site_hle17_ddec_sum_bond_order
 _atom_site_hle17_magmom
 _atom_site_hse06_10hf_bader_spin_density
 _atom_site_hse06_10hf_ddec_charge
 _atom_site_hse06_10hf_ddec_spin_density
 _atom_site_hse06_10hf_ddec_sum_bond_order
 _atom_site_hse06_10hf_magmom
 _atom_site_hse06_bader_spin_density
 _atom_site_hse06_ddec_charge
 _atom_site_hse06_ddec_spin_density
 _atom_site_hse06_ddec_sum_bond_order
 _atom_site_hse06_magmom
 _atom_site_pbe_bader_charge
 _atom_site_pbe_bader_spin_density
 _atom_site_pbe_cm5_charge
 _atom_site_pbe_ddec_charge
 _atom_site_pbe_ddec_spin_density
 _atom_site_pbe_ddec_sum_bond_order
 _atom_site_pbe_magmom
Zn  Zn0  1  0.08082621  0.63612914  0.22783464  1  0  1.018577  0  1.826924  0  0  0.836924  0  2.279491  0  0  0.88551  0  2.225807  0  1.293374  0  0.677803  0.80298  0  2.316152  0
Zn  Zn1  1  0.91917269  0.36387087  0.77216587  1  0  1.018607  0  1.826926  0  0  0.83694  0  2.279487  0  0  0.885526  0  2.225803  0  1.293366  0  0.677823  0.802995  0  2.316148  0
H  H2  1  0.69839618  0.29562241  0.16993223  1  0  0.127159  0  0.950503  0  0  0.133271  0  1.017435  0  0  0.13739  0  1.014829  0  0.095152  0  0.111078  0.130336  0  1.01937  0
H  H3  1  0.30160741  0.70437507  0.83006564  1  0  0.127126  0  0.950469  0  0  0.133307  0  1.017325  0  0  0.137425  0  1.014719  0  0.095118  0  0.111081  0.130366  0  1.019261  0
H  H4  1  0.80305776  0.96551136  0.22168745  1  0  0.130326  0  0.984584  0  0  0.135946  0  1.050668  0  0  0.140103  0  1.048263  0  0.135247  0  0.106673  0.132981  0  1.052436  0
H  H5  1  0.19694583  0.03448613  0.77831162  1  0  0.130371  0  0.984542  0  0  0.13598  0  1.050638  0  0  0.140141  0  1.04823  0  0.135278  0  0.106688  0.133014  0  1.052407  0
H  H6  1  0.48414814  0.03051369  0.29436746  1  0  0.10462  0  0.973099  0  0  0.112938  0  1.0372  0  0  0.116414  0  1.035506  0  0.087994  0  0.106848  0.110442  0  1.038528  0
H  H7  1  0.51584967  0.96948716  0.70563356  1  0  0.104621  0  0.973083  0  0  0.112908  0  1.037229  0  0  0.116384  0  1.035535  0  0.088013  0  0.10683  0.110413  0  1.038554  0
H  H8  1  0.05489114  0.62613577  0.04174413  1  0  0.080688  0  0.953524  0  0  0.088285  0  1.018121  0  0  0.091002  0  1.015949  0  0.082665  0  0.114057  0.086267  0  1.019766  0
H  H9  1  0.94511227  0.37386508  0.95825498  1  0  0.080652  0  0.953594  0  0  0.088249  0  1.018188  0  0  0.090963  0  1.016018  0  0.082624  0  0.114033  0.08623  0  1.019832  0
H  H10  1  0.70222347  0.11614913  0.02473956  1  0  0.110668  0  0.942357  0  0  0.124361  0  0.995891  0  0  0.126938  0  0.996023  0  0.082893  0  0.106832  0.122468  0  0.996008  0
H  H11  1  0.29777420  0.88384751  0.97525657  1  0  0.110629  0  0.942232  0  0  0.124325  0  0.995771  0  0  0.126901  0  0.995902  0  0.082923  0  0.106806  0.122431  0  0.995891  0
H  H12  1  0.13807133  0.05448464  0.29399279  1  0  0.087847  0  0.971099  0  0  0.097802  0  1.035701  0  0  0.100251  0  1.035151  0  0.049216  0  0.101693  0.09608  0  1.03617  0
H  H13  1  0.86193177  0.94551536  0.70600688  1  0  0.087873  0  0.971096  0  0  0.097827  0  1.035698  0  0  0.100277  0  1.035146  0  0.049238  0  0.101705  0.096105  0  1.036166  0
H  H14  1  0.70343244  0.14855982  0.35564105  1  0  0.095047  0  0.982904  0  0  0.103647  0  1.047673  0  0  0.105741  0  1.04829  0  0.071603  0  0.101654  0.10207  0  1.047484  0
H  H15  1  0.29656366  0.85144018  0.64435981  1  0  0.095056  0  0.982876  0  0  0.103646  0  1.047662  0  0  0.105744  0  1.048272  0  0.071607  0  0.101677  0.102064  0  1.04748  0
H  H16  1  0.25208952  0.87122914  0.21283987  1  0  0.086328  0  0.930669  0  0  0.096824  0  0.989025  0  0  0.099527  0  0.986651  0  0.118732  0  0.120926  0.094797  0  0.990849  0
H  H17  1  0.74791078  0.12877087  0.78716015  1  0  0.086325  0  0.930684  0  0  0.096824  0  0.989044  0  0  0.099528  0  0.98667  0  0.118728  0  0.12092  0.094798  0  0.990869  0
H  H18  1  0.38460005  0.64719641  0.38763415  1  0  0.099585  0  0.912693  0  0  0.111284  0  0.966089  0  0  0.114143  0  0.963436  0  0.143329  0  0.128453  0.109029  0  0.968222  0
H  H19  1  0.61540306  0.35280360  0.61236612  1  0  0.099568  0  0.91272  0  0  0.111279  0  0.966101  0  0  0.114129  0  0.963459  0  0.143326  0  0.128443  0.109022  0  0.968237  0
H  H20  1  0.53413441  0.17534683  0.89133711  1  0  0.101701  0  0.946939  0  0  0.107555  0  1.015244  0  0  0.110938  0  1.01269  0  0.128651  0  0.103898  0.105102  0  1.01716  0
H  H21  1  0.46586156  0.82464897  0.10865947  1  0  0.101584  0  0.946898  0  0  0.107477  0  1.015184  0  0  0.110861  0  1.012631  0  0.127563  0  0.103862  0.105023  0  1.017103  0
H  H22  1  0.47362855  0.56993422  0.23438696  1  0  0.081403  0  0.931645  0  0  0.089689  0  0.995862  0  0  0.092247  0  0.993387  0  0.11184  0  0.116874  0.087797  0  0.997681  0
H  H23  1  0.52636944  0.43006326  0.76561343  1  0  0.081418  0  0.931596  0  0  0.089706  0  0.995813  0  0  0.092265  0  0.993335  0  0.111876  0  0.116885  0.087817  0  0.997628  0
H  H24  1  0.76700323  0.92883703  0.55646970  1  0  0.110266  0  0.972044  0  0  0.117759  0  1.038713  0  0  0.120902  0  1.037637  0  0.101014  0  0.10588  0.115484  0  1.03967  0
H  H25  1  0.23299549  0.07116635  0.44353265  1  0  0.110284  0  0.971992  0  0  0.117717  0  1.038754  0  0  0.120862  0  1.037675  0  0.101017  0  0.105854  0.11544  0  1.039714  0
H  H26  1  0.65035025  0.49737331  0.14104792  1  0  0.120212  0  0.98396  0  0  0.129365  0  1.044864  0  0  0.133342  0  1.042744  0  0.139305  0  0.108327  0.126492  0  1.046533  0
H  H27  1  0.34964156  0.50261491  0.85895420  1  0  0.120219  0  0.983924  0  0  0.129408  0  1.044792  0  0  0.13339  0  1.042674  0  0.139254  0  0.10834  0.126534  0  1.046462  0
H  H28  1  0.21382043  0.55861026  0.93779262  1  0  0.117589  0  0.981369  0  0  0.124286  0  1.046115  0  0  0.128345  0  1.044041  0  0.118435  0  0.106865  0.121359  0  1.047733  0
H  H29  1  0.78618255  0.44138554  0.06220818  1  0  0.117518  0  0.981468  0  0  0.124226  0  1.046199  0  0  0.128285  0  1.044123  0  0.118051  0  0.106836  0.121298  0  1.047817  0
H  H30  1  0.20732769  0.12449713  0.12820204  1  0  0.10934  0  0.962171  0  0  0.117647  0  1.025647  0  0  0.120373  0  1.025493  0  0.081966  0  0.099752  0.115719  0  1.025875  0
H  H31  1  0.79267695  0.87550708  0.87179783  1  0  0.109355  0  0.962197  0  0  0.117657  0  1.025677  0  0  0.120384  0  1.025522  0  0.08192  0  0.099735  0.115729  0  1.025906  0
H  H32  1  0.62951856  0.79531607  0.47675154  1  0  0.124494  0  0.964955  0  0  0.133788  0  1.025153  0  0  0.137478  0  1.023085  0  0.142624  0  0.111865  0.131131  0  1.026835  0
H  H33  1  0.37048096  0.20468562  0.52324905  1  0  0.124461  0  0.965009  0  0  0.133778  0  1.025174  0  0  0.137469  0  1.023104  0  0.142612  0  0.111867  0.131123  0  1.026854  0
H  H34  1  0.98139401  0.09404741  0.64112877  1  0  0.071606  0  0.942524  0  0  0.081801  0  1.006444  0  0  0.08376  0  1.005269  0  0.082857  0  0.112276  0.080294  0  1.007443  0
H  H35  1  0.01861343  0.90595681  0.35887194  1  0  0.071585  0  0.942566  0  0  0.081808  0  1.00645  0  0  0.083778  0  1.005263  0  0.082871  0  0.112296  0.080288  0  1.007465  0
H  H36  1  0.91421677  0.30316667  0.44983021  1  0  0.082885  0  0.908991  0  0  0.094423  0  0.962526  0  0  0.096975  0  0.960678  0  0.106078  0  0.120942  0.092511  0  0.96398  0
H  H37  1  0.08578554  0.69683502  0.55016822  1  0  0.082847  0  0.909046  0  0  0.094423  0  0.962545  0  0  0.096975  0  0.960697  0  0.105938  0  0.12095  0.092512  0  0.963997  0
H  H38  1  0.04431867  0.18875464  0.99534248  1  0  0.095358  0  0.949566  0  0  0.106328  0  1.009016  0  0  0.109727  0  1.006289  0  0.066958  0  0.102492  0.103881  0  1.011007  0
H  H39  1  0.95568628  0.81125041  0.00465803  1  0  0.095449  0  0.949474  0  0  0.106389  0  1.008955  0  0  0.109793  0  1.006222  0  0.066987  0  0.102523  0.103942  0  1.010945  0
H  H40  1  0.54474498  0.35741735  0.30379261  1  0  0.409083  0  0.782226  0  0  0.395661  0  0.831493  0  0  0.404917  0  0.822057  0  0.634172  0  0.348425  0.388931  0  0.838559  0
H  H41  1  0.45525265  0.64258687  0.69620845  1  0  0.409114  0  0.782195  0  0  0.395692  0  0.831459  0  0  0.404949  0  0.822023  0  0.634176  0  0.348423  0.388962  0  0.838526  0
H  H42  1  0.94325421  0.69179036  0.36502408  1  0  0.379458  0  0.940906  0  0  0.338848  0  1.020464  0  0  0.350357  0  1.004088  0  0.631543  0  0.271682  0.330772  0  1.031921  0
H  H43  1  0.05674420  0.30821217  0.63497522  1  0  0.37947  0  0.940898  0  0  0.338847  0  1.020475  0  0  0.350356  0  1.004098  0  0.631653  0  0.271657  0.330772  0  1.03193  0
H  H44  1  0.82134408  0.70510812  0.27655628  1  0  0.399379  0  0.920079  0  0  0.367466  0  0.986923  0  0  0.379158  0  0.970073  0  0.628563  0  0.274555  0.359263  0  0.998704  0
H  H45  1  0.17865092  0.29489273  0.72344270  1  0  0.399353  0  0.920128  0  0  0.367427  0  0.986998  0  0  0.37912  0  0.970146  0  0.628587  0  0.274538  0.359222  0  0.998781  0
C  C46  1  0.57905589  0.92898599  0.39467052  1  0  0.097107  0  3.735361  0  0  0.11092  0  3.962395  0  0  0.115253  0  3.984012  0  0.009012  0  0.016379  0.108202  0  3.947639  0
C  C47  1  0.42094113  0.07101654  0.60533046  1  0  0.097103  0  3.735276  0  0  0.110902  0  3.962328  0  0  0.115243  0  3.983946  0  0.009132  0  0.016346  0.108183  0  3.947572  0
C  C48  1  0.03633350  0.41884870  0.24943884  1  0  0.626662  0  3.936173  0  0  0.57976  0  4.22579  0  0  0.613103  0  4.219786  0  1.554028  0  0.193907  0.557223  0  4.228915  0
C  C49  1  0.96366492  0.58115383  0.75056347  1  0  0.626654  0  3.9361  0  0  0.579738  0  4.225745  0  0  0.613084  0  4.219739  0  1.554054  0  0.193888  0.5572  0  4.228871  0
C  C50  1  0.44895836  0.52060617  0.02952622  1  0  0.096533  0  3.747301  0  0  0.109648  0  3.97374  0  0  0.113274  0  3.996308  0  -0.035338  0  0.012453  0.107397  0  3.958273  0
C  C51  1  0.55103950  0.47938710  0.97047469  1  0  0.096438  0  3.747288  0  0  0.109502  0  3.973788  0  0  0.11313  0  3.996357  0  -0.079848  0  0.012406  0.107252  0  3.958319  0
C  C52  1  0.18626295  0.22477588  0.85602045  1  0  0.642123  0  3.922649  0  0  0.589603  0  4.21994  0  0  0.623926  0  4.212798  0  1.541588  0  0.20598  0.566363  0  4.224031  0
C  C53  1  0.81373485  0.77522497  0.14397877  1  0  0.642177  0  3.92263  0  0  0.589653  0  4.219918  0  0  0.623977  0  4.212777  0  1.541567  0  0.205994  0.566415  0  4.224009  0
C  C54  1  0.79494030  0.24250540  0.19688060  1  0  -0.196085  0  3.733023  0  0  -0.229138  0  3.989416  0  0  -0.231846  0  4.006319  0  0.016436  0  -0.095649  -0.227202  0  3.978082  0
C  C55  1  0.20506250  0.75749377  0.80311963  1  0  -0.196057  0  3.733016  0  0  -0.229166  0  3.989376  0  0  -0.231877  0  4.006285  0  0.016467  0  -0.095664  -0.227214  0  3.978014  0
C  C56  1  0.85448296  0.05673850  0.22645498  1  0  -0.169413  0  3.713002  0  0  -0.196208  0  3.973996  0  0  -0.199478  0  3.990988  0  0.007852  0  -0.098393  -0.193891  0  3.962517  0
C  C57  1  0.14551813  0.94325983  0.77354569  1  0  -0.169447  0  3.712971  0  0  -0.196236  0  3.973953  0  0  -0.199511  0  3.990947  0  0.007179  0  -0.098408  -0.19392  0  3.962475  0
C  C58  1  0.10548943  0.22422546  0.27382368  1  0  -0.086305  0  3.746137  0  0  -0.073953  0  3.979737  0  0  -0.079884  0  4.001295  0  -0.063241  0  -0.014763  -0.069949  0  3.965322  0
C  C59  1  0.89451118  0.77577539  0.72617759  1  0  -0.086253  0  3.746015  0  0  -0.073802  0  3.979514  0  0  -0.079733  0  4.001067  0  -0.063244  0  -0.014776  -0.069823  0  3.965139  0
C  C60  1  0.47056548  0.94748391  0.31832691  1  0  -0.150935  0  3.707504  0  0  -0.172458  0  3.96209  0  0  -0.179719  0  3.982406  0  -0.016274  0  -0.080426  -0.167772  0  3.948485  0
C  C61  1  0.52943123  0.05251778  0.68167343  1  0  -0.150921  0  3.707472  0  0  -0.172421  0  3.962091  0  0  -0.17968  0  3.982404  0  -0.016312  0  -0.080398  -0.167736  0  3.948488  0
C  C62  1  0.27948461  0.18514579  0.93530839  1  0  -0.09158  0  3.776669  0  0  -0.071014  0  4.015641  0  0  -0.080978  0  4.040089  0  0.015497  0  -0.029105  -0.064611  0  3.999179  0
C  C63  1  0.72051429  0.81485422  0.06468911  1  0  -0.091727  0  3.776826  0  0  -0.071144  0  4.015795  0  0  -0.081111  0  4.04025  0  0.015536  0  -0.029182  -0.06474  0  3.999331  0
C  C64  1  0.98024448  0.29263214  0.23890948  1  0  -0.034043  0  3.736208  0  0  -0.018552  0  3.964462  0  0  -0.022597  0  3.985468  0  0.017017  0  -0.008974  -0.016035  0  3.950389  0
C  C65  1  0.01975412  0.70736702  0.76109219  1  0  -0.034017  0  3.736232  0  0  -0.018552  0  3.964495  0  0  -0.022599  0  3.985502  0  0.017026  0  -0.008943  -0.016028  0  3.950424  0
C  C66  1  0.71226676  0.02337088  0.44749923  1  0  0.084787  0  3.745651  0  0  0.096651  0  3.974228  0  0  0.098949  0  3.99657  0  -0.061403  0  0.009056  0.095255  0  3.958924  0
C  C67  1  0.28773244  0.97662997  0.55250252  1  0  0.084872  0  3.745605  0  0  0.096792  0  3.974087  0  0  0.099066  0  3.996474  0  -0.061533  0  0.009122  0.095397  0  3.958782  0
C  C68  1  0.18797509  0.59691228  0.06039831  1  0  0.128616  0  3.71343  0  0  0.099883  0  3.965159  0  0  0.106343  0  3.983374  0  0.486871  0  0.043214  0.095746  0  3.952694  0
C  C69  1  0.81202881  0.40308605  0.93960200  1  0  0.128594  0  3.713499  0  0  0.099865  0  3.965231  0  0  0.106328  0  3.983444  0  0.487186  0  0.043243  0.095727  0  3.952767  0
C  C70  1  0.55813078  0.13221224  0.01771544  1  0  -0.18791  0  3.768891  0  0  -0.20742  0  4.022432  0  0  -0.214212  0  4.043639  0  0.011348  0  -0.100581  -0.20288  0  4.008115  0
C  C71  1  0.44186861  0.86778524  0.98228266  1  0  -0.187951  0  3.768694  0  0  -0.207449  0  4.022287  0  0  -0.21424  0  4.043495  0  0.011476  0  -0.100549  -0.202908  0  4.007972  0
C  C72  1  0.04020355  0.10716486  0.26735448  1  0  -0.06933  0  3.764391  0  0  -0.090747  0  4.016664  0  0  -0.090803  0  4.03637  0  0.004148  0  -0.086533  -0.090652  0  4.003275  0
C  C73  1  0.95979846  0.89283599  0.73264631  1  0  -0.069421  0  3.764471  0  0  -0.090857  0  4.016716  0  0  -0.090913  0  4.03642  0  0.004165  0  -0.086558  -0.090755  0  4.003331  0
C  C74  1  0.30707318  0.27061963  0.31813903  1  0  0.672571  0  3.801986  0  0  0.620653  0  4.113855  0  0  0.65481  0  4.100859  0  1.553934  0  0.235882  0.597071  0  4.122581  0
C  C75  1  0.69292401  0.72937953  0.68186011  1  0  0.672569  0  3.802059  0  0  0.620556  0  4.114  0  0  0.654725  0  4.100986  0  1.554037  0  0.235888  0.59698  0  4.122723  0
C  C76  1  0.46248121  0.11717169  0.08303684  1  0  0.274753  0  3.792849  0  0  0.265314  0  4.053817  0  0  0.27612  0  4.069664  0  0.383376  0  0.083845  0.25799  0  4.042921  0
C  C77  1  0.53752019  0.88282747  0.91696026  1  0  0.274841  0  3.792836  0  0  0.265327  0  4.053925  0  0  0.276132  0  4.069771  0  0.383432  0  0.083809  0.258003  0  4.043027  0
C  C78  1  0.75881721  0.13122082  0.41866086  1  0  -0.145066  0  3.706262  0  0  -0.163851  0  3.956162  0  0  -0.170484  0  3.979311  0  -0.014979  0  -0.080545  -0.159445  0  3.940565  0
C  C79  1  0.24118261  0.86878171  0.58133917  1  0  -0.145099  0  3.706277  0  0  -0.163893  0  3.956184  0  0  -0.170522  0  3.979337  0  -0.015001  0  -0.08061  -0.159485  0  3.940593  0
C  C80  1  0.33913623  0.85889018  0.27203763  1  0  0.132336  0  3.703875  0  0  0.098414  0  3.963869  0  0  0.105741  0  3.98056  0  0.457705  0  0.04945  0.093629  0  3.952604  0
C  C81  1  0.66086297  0.14111067  0.72796292  1  0  0.132295  0  3.704  0  0  0.098352  0  3.964008  0  0  0.105677  0  3.9807  0  0.457766  0  0.049428  0.093566  0  3.952745  0
C  C82  1  0.41379547  0.73378203  0.36969786  1  0  0.144833  0  3.668228  0  0  0.113167  0  3.92006  0  0  0.120499  0  3.937215  0  0.452307  0  0.059564  0.108481  0  3.908384  0
C  C83  1  0.58620514  0.26621882  0.63030281  1  0  0.144861  0  3.66824  0  0  0.113186  0  3.920073  0  0  0.120523  0  3.937229  0  0.452404  0  0.059571  0.108498  0  3.908399  0
C  C84  1  0.46481413  0.16474666  0.94375998  1  0  -0.034054  0  3.739079  0  0  -0.062115  0  3.997383  0  0  -0.059064  0  4.016096  0  -0.074427  0  -0.080916  -0.063909  0  3.984581  0
C  C85  1  0.53518416  0.83525167  0.05623804  1  0  -0.033849  0  3.738889  0  0  -0.061934  0  3.997175  0  0  -0.058884  0  4.015887  0  -0.073281  0  -0.080855  -0.06373  0  3.984373  0
C  C86  1  0.42021253  0.56534488  0.16811743  1  0  0.149729  0  3.699473  0  0  0.115352  0  3.96017  0  0  0.122892  0  3.977741  0  0.498423  0  0.048871  0.110436  0  3.948259  0
C  C87  1  0.57978576  0.43465344  0.83188420  1  0  0.149672  0  3.699389  0  0  0.115308  0  3.960105  0  0  0.122847  0  3.977677  0  0.498237  0  0.04885  0.110391  0  3.948192  0
C  C88  1  0.73304884  0.12572421  0.19114355  1  0  0.269818  0  3.806259  0  0  0.25934  0  4.07488  0  0  0.269565  0  4.089187  0  0.389692  0  0.083005  0.252166  0  4.065153  0
C  C89  1  0.26695506  0.87427411  0.80885616  1  0  0.269808  0  3.806246  0  0  0.259343  0  4.07485  0  0  0.269567  0  4.089157  0  0.390254  0  0.083026  0.252171  0  4.065121  0
C  C90  1  0.79543908  0.00990247  0.52944752  1  0  -0.159656  0  3.711182  0  0  -0.179328  0  3.962523  0  0  -0.18611  0  3.985159  0  -0.041957  0  -0.08335  -0.174819  0  3.947227  0
C  C91  1  0.20455964  0.99010090  0.47055302  1  0  -0.159674  0  3.711101  0  0  -0.179339  0  3.962505  0  0  -0.186104  0  3.985122  0  -0.042211  0  -0.083329  -0.174831  0  3.947205  0
C  C92  1  0.51868352  0.52431350  0.11476423  1  0  -0.152406  0  3.666508  0  0  -0.171171  0  3.911913  0  0  -0.178843  0  3.932055  0  -0.039368  0  -0.082429  -0.166263  0  3.898507  0
C  C93  1  0.48131232  0.47567809  0.88523708  1  0  -0.15234  0  3.666472  0  0  -0.171136  0  3.911882  0  0  -0.178819  0  3.932033  0  -0.039236  0  -0.082418  -0.166231  0  3.898483  0
C  C94  1  0.27843631  0.55855808  0.00277612  1  0  -0.164762  0  3.699985  0  0  -0.182594  0  3.946323  0  0  -0.190796  0  3.967839  0  0.006518  0  -0.083314  -0.177207  0  3.931802  0
C  C95  1  0.72156558  0.44143856  0.99722640  1  0  -0.16461  0  3.699872  0  0  -0.182421  0  3.946174  0  0  -0.190623  0  3.967688  0  0.006666  0  -0.083251  -0.177034  0  3.931653  0
C  C96  1  0.27727845  0.13591789  0.07590084  1  0  -0.178863  0  3.751881  0  0  -0.19791  0  4.001644  0  0  -0.203546  0  4.021034  0  0.021507  0  -0.103367  -0.194215  0  3.988521  0
C  C97  1  0.72272698  0.86408465  0.92409967  1  0  -0.179102  0  3.751905  0  0  -0.198131  0  4.001702  0  0  -0.203768  0  4.021092  0  0.021541  0  -0.103427  -0.194436  0  3.988581  0
C  C98  1  0.55058434  0.81789162  0.41903494  1  0  -0.136297  0  3.650545  0  0  -0.156828  0  3.896954  0  0  -0.163736  0  3.917054  0  -0.038752  0  -0.071855  -0.15241  0  3.883478  0
C  C99  1  0.44941377  0.18211007  0.58096553  1  0  -0.136291  0  3.650566  0  0  -0.156841  0  3.896994  0  0  -0.163748  0  3.917088  0  -0.038893  0  -0.071849  -0.152423  0  3.883518  0
C  C100  1  0.91440020  0.10221699  0.57730492  1  0  0.114758  0  3.74586  0  0  0.085822  0  4.004248  0  0  0.090597  0  4.024313  0  0.497448  0  0.040689  0.08282  0  3.990545  0
C  C101  1  0.08560273  0.89778638  0.42269539  1  0  0.114712  0  3.745781  0  0  0.085763  0  4.00418  0  0  0.090529  0  4.024247  0  0.497622  0  0.040617  0.082769  0  3.990479  0
C  C102  1  0.87820461  0.21878019  0.47132986  1  0  0.127698  0  3.729657  0  0  0.098071  0  3.988145  0  0  0.103567  0  4.005582  0  0.525333  0  0.050259  0.09453  0  3.976175  0
C  C103  1  0.12179771  0.78122150  0.52867037  1  0  0.127682  0  3.729655  0  0  0.098015  0  3.988162  0  0  0.103511  0  4.005598  0  0.525396  0  0.050253  0.094474  0  3.976192  0
C  C104  1  0.18729582  0.17113033  0.00200361  1  0  -0.046287  0  3.751879  0  0  -0.068293  0  3.995491  0  0  -0.066252  0  4.015057  0  -0.084407  0  -0.083349  -0.069359  0  3.98211  0
C  C105  1  0.81270650  0.82887136  0.99799662  1  0  -0.046132  0  3.751846  0  0  -0.068102  0  3.995393  0  0  -0.066063  0  4.014963  0  -0.08451  0  -0.083257  -0.069166  0  3.982012  0
N  N106  1  0.25675146  0.60088640  0.14200784  1  0  -0.332906  0  3.266317  0  0  -0.259199  0  3.534464  0  0  -0.277452  0  3.551783  0  -1.252135  0  -0.323679  -0.246827  0  3.522525  0
N  N107  1  0.74325103  0.39911193  0.85799295  1  0  -0.332862  0  3.266349  0  0  -0.259163  0  3.534501  0  0  -0.277416  0  3.55182  0  -1.251908  0  -0.323687  -0.246792  0  3.522562  0
N  N108  1  0.30766289  0.75382263  0.29774676  1  0  -0.328736  0  3.318188  0  0  -0.249723  0  3.595755  0  0  -0.269075  0  3.612036  0  -1.230217  0  -0.323153  -0.23666  0  3.5845  0
N  N109  1  0.69233571  0.24617653  0.70225371  1  0  -0.32872  0  3.318276  0  0  -0.249688  0  3.595836  0  0  -0.269038  0  3.612113  0  -1.230239  0  -0.323136  -0.236625  0  3.584582  0
N  N110  1  0.95454690  0.20574270  0.55000037  1  0  -0.310638  0  3.153855  0  0  -0.250863  0  3.401362  0  0  -0.264102  0  3.417784  0  -1.221582  0  -0.305193  -0.241775  0  3.390028  0
N  N111  1  0.04545682  0.79425899  0.44999878  1  0  -0.31056  0  3.153772  0  0  -0.250782  0  3.401286  0  0  -0.264021  0  3.417714  0  -1.221336  0  -0.305141  -0.241691  0  3.389946  0
O  O112  1  0.88737247  0.65056120  0.30997485  1  0  -0.829006  0  1.901456  0  0  -0.767732  0  2.095593  0  0  -0.78884  0  2.059938  0  -1.27455  0  -0.597272  -0.752753  0  2.120204  0
O  O113  1  0.11262394  0.34943965  0.69002485  1  0  -0.829014  0  1.901482  0  0  -0.767723  0  2.09563  0  0  -0.788832  0  2.059974  0  -1.274624  0  -0.597251  -0.75274  0  2.120246  0
O  O114  1  0.93470654  0.47217192  0.19820477  1  0  -0.634443  0  2.056283  0  0  -0.563168  0  2.305953  0  0  -0.592434  0  2.295236  0  -1.177024  0  -0.323438  -0.542528  0  2.312416  0
O  O115  1  0.06528956  0.52782809  0.80179549  1  0  -0.634458  0  2.056229  0  0  -0.563154  0  2.305877  0  0  -0.592422  0  2.295162  0  -1.176965  0  -0.323419  -0.542516  0  2.312345  0
O  O116  1  0.17406794  0.46619306  0.30569315  1  0  -0.612575  0  1.895365  0  0  -0.568699  0  2.114395  0  0  -0.592804  0  2.105139  0  -1.167152  0  -0.322948  -0.551631  0  2.120022  0
O  O117  1  0.82592798  0.53381031  0.69430715  1  0  -0.612577  0  1.895277  0  0  -0.568703  0  2.114315  0  0  -0.592808  0  2.105059  0  -1.167248  0  -0.322943  -0.551633  0  2.119944  0
O  O118  1  0.04256349  0.27017610  0.85865197  1  0  -0.654322  0  2.079111  0  0  -0.585352  0  2.350739  0  0  -0.613458  0  2.336969  0  -1.188481  0  -0.32829  -0.565712  0  2.359483  0
O  O119  1  0.95743511  0.72982306  0.14134729  1  0  -0.654374  0  2.079037  0  0  -0.585433  0  2.350701  0  0  -0.61354  0  2.336931  0  -1.188449  0  -0.328295  -0.565793  0  2.359447  0
O  O120  1  0.25355284  0.21215246  0.79257196  1  0  -0.618293  0  1.979048  0  0  -0.563716  0  2.19984  0  0  -0.587981  0  2.191742  0  -1.18364  0  -0.316827  -0.546864  0  2.204968  0
O  O121  1  0.74644357  0.78784839  0.20742654  1  0  -0.618302  0  1.979076  0  0  -0.563727  0  2.19986  0  0  -0.587988  0  2.191758  0  -1.183634  0  -0.316849  -0.546876  0  2.204987  0
O  O122  1  0.54510390  0.07560588  0.15553612  1  0  -0.305758  0  2.34645  0  0  -0.235837  0  2.572341  0  0  -0.254156  0  2.575097  0  -1.105648  0  -0.155393  -0.22268  0  2.569928  0
O  O123  1  0.45490079  0.92439076  0.84446183  1  0  -0.305718  0  2.346537  0  0  -0.23578  0  2.572443  0  0  -0.254096  0  2.575196  0  -1.105748  0  -0.15539  -0.222625  0  2.57003  0
O  O124  1  0.41899323  0.32486778  0.26888233  1  0  -0.528221  0  2.050775  0  0  -0.487259  0  2.258249  0  0  -0.507369  0  2.244227  0  -1.134775  0  -0.325208  -0.473204  0  2.267745  0
O  O125  1  0.58100440  0.67513643  0.73111814  1  0  -0.528279  0  2.050766  0  0  -0.487306  0  2.258291  0  0  -0.50742  0  2.244263  0  -1.134786  0  -0.325227  -0.47325  0  2.267782  0
O  O126  1  0.37069629  0.25297175  0.38957194  1  0  -0.548058  0  1.915568  0  0  -0.515355  0  2.129004  0  0  -0.534152  0  2.119314  0  -1.156835  0  -0.287452  -0.502222  0  2.135477  0
O  O127  1  0.62930389  0.74702405  0.61042922  1  0  -0.548001  0  1.915731  0  0  -0.515276  0  2.129212  0  0  -0.534074  0  2.119516  0  -1.156931  0  -0.287403  -0.502147  0  2.135689  0
