# generated using pymatgen
data_ZnH6C11(NO2)2
_symmetry_space_group_name_H-M   'P 1'
_cell_length_a   11.00961358
_cell_length_b   11.00961479
_cell_length_c   17.43715683
_cell_angle_alpha   71.88362818
_cell_angle_beta   71.88346774
_cell_angle_gamma   87.53408463
_symmetry_Int_Tables_number   1
_chemical_formula_structural   ZnH6C11(NO2)2
_chemical_formula_sum   'Zn4 H24 C44 N8 O16'
_cell_volume   1905.85203969
_cell_formula_units_Z   4
loop_
 _symmetry_equiv_pos_site_id
 _symmetry_equiv_pos_as_xyz
  1  'x, y, z'
loop_
 _atom_site_type_symbol
 _atom_site_label
 _atom_site_symmetry_multiplicity
 _atom_site_fract_x
 _atom_site_fract_y
 _atom_site_fract_z
 _atom_site_occupancy
 _atom_site_hle17_bader_spin_density
 _atom_site_hle17_ddec_charge
 _atom_site_hle17_ddec_spin_density
 _atom_site_hle17_ddec_sum_bond_order
 _atom_site_hle17_magmom
 _atom_site_hse06_10hf_bader_spin_density
 _atom_site_hse06_10hf_ddec_charge
 _atom_site_hse06_10hf_ddec_spin_density
 _atom_site_hse06_10hf_ddec_sum_bond_order
 _atom_site_hse06_10hf_magmom
 _atom_site_hse06_bader_spin_density
 _atom_site_hse06_ddec_charge
 _atom_site_hse06_ddec_spin_density
 _atom_site_hse06_ddec_sum_bond_order
 _atom_site_hse06_magmom
 _atom_site_pbe_bader_spin_density
 _atom_site_pbe_cm5_charge
 _atom_site_pbe_ddec_charge
 _atom_site_pbe_ddec_spin_density
 _atom_site_pbe_ddec_sum_bond_order
 _atom_site_pbe_magmom
Zn  Zn0  1  0.99420816  0.09216335  0.65718741  1  0  1.052162  0  1.869433  0  0  0.884548  0  2.339714  0  0  0.935801  0  2.274764  0  0  0.674557  0.848926  0  2.384174  0
Zn  Zn1  1  0.90783744  0.00579223  0.84281317  1  0  1.052158  0  1.86944  0  0  0.884539  0  2.339724  0  0  0.935793  0  2.274775  0  0  0.674556  0.848915  0  2.384186  0
Zn  Zn2  1  0.00579229  0.90783726  0.34281336  1  0  1.052151  0  1.869463  0  0  0.884532  0  2.33975  0  0  0.935781  0  2.274807  0  0  0.67454  0.84891  0  2.384204  0
Zn  Zn3  1  0.09216206  0.99420839  0.15718664  1  0  1.052191  0  1.869393  0  0  0.884562  0  2.339681  0  0  0.935813  0  2.274733  0  0  0.674576  0.848944  0  2.384131  0
H  H4  1  0.93187860  0.29684207  0.49640096  1  0  0.104811  0  0.910102  0  0  0.117885  0  0.963902  0  0  0.12044  0  0.960828  0  0  0.147425  0.115859  0  0.9663  0
H  H5  1  0.70315822  0.06812082  0.00360012  1  0  0.104833  0  0.910113  0  0  0.117909  0  0.963913  0  0  0.120463  0  0.96084  0  0  0.14743  0.115882  0  0.96631  0
H  H6  1  0.06812084  0.70315758  0.50360019  1  0  0.104806  0  0.910116  0  0  0.117882  0  0.963917  0  0  0.120436  0  0.960843  0  0  0.147426  0.115857  0  0.966314  0
H  H7  1  0.29684223  0.93187979  0.99640065  1  0  0.104803  0  0.91006  0  0  0.117881  0  0.963857  0  0  0.120433  0  0.960785  0  0  0.147425  0.115855  0  0.966254  0
H  H8  1  0.20893586  0.02082907  0.50722534  1  0  0.111723  0  0.931681  0  0  0.124593  0  0.984404  0  0  0.127209  0  0.983037  0  0  0.125918  0.122644  0  0.985574  0
H  H9  1  0.97917214  0.79106489  0.99277452  1  0  0.111702  0  0.931702  0  0  0.124572  0  0.984425  0  0  0.127188  0  0.983058  0  0  0.125916  0.122623  0  0.985594  0
H  H10  1  0.79106460  0.97917154  0.49277485  1  0  0.111721  0  0.931688  0  0  0.12459  0  0.984413  0  0  0.127206  0  0.983046  0  0  0.125919  0.12264  0  0.985581  0
H  H11  1  0.02082832  0.20893573  0.00722452  1  0  0.11171  0  0.931702  0  0  0.124578  0  0.984426  0  0  0.127195  0  0.983058  0  0  0.125913  0.122627  0  0.985596  0
H  H12  1  0.24162584  0.15797464  0.33751073  1  0  0.124094  0  0.943646  0  0  0.135138  0  0.999717  0  0  0.137441  0  0.999003  0  0  0.130068  0.133429  0  1.000378  0
H  H13  1  0.84202619  0.75837388  0.16248950  1  0  0.124082  0  0.943657  0  0  0.135128  0  0.99973  0  0  0.137429  0  0.999017  0  0  0.130059  0.13342  0  1.000391  0
H  H14  1  0.75837461  0.84202598  0.66248946  1  0  0.124082  0  0.94365  0  0  0.135129  0  0.999722  0  0  0.13743  0  0.999008  0  0  0.130057  0.133421  0  1.000383  0
H  H15  1  0.15797517  0.24162579  0.83751071  1  0  0.1241  0  0.943653  0  0  0.135146  0  0.999723  0  0  0.137446  0  0.99901  0  0  0.13007  0.133437  0  1.000385  0
H  H16  1  0.07421999  0.50061581  0.37779762  1  0  0.120793  0  0.935457  0  0  0.128345  0  0.998188  0  0  0.132646  0  0.99489  0  0  0.112431  0.125182  0  1.000711  0
H  H17  1  0.49938545  0.92577815  0.12220211  1  0  0.120778  0  0.935472  0  0  0.128329  0  0.998206  0  0  0.132629  0  0.994907  0  0  0.112416  0.125164  0  1.000729  0
H  H18  1  0.92577861  0.49938576  0.62220218  1  0  0.120776  0  0.935479  0  0  0.128343  0  0.99819  0  0  0.132644  0  0.994891  0  0  0.112422  0.125174  0  1.000719  0
H  H19  1  0.50061571  0.07421769  0.87779773  1  0  0.120822  0  0.935439  0  0  0.128375  0  0.998169  0  0  0.132676  0  0.994871  0  0  0.112434  0.125211  0  1.000691  0
H  H20  1  0.05376554  0.62726458  0.12361904  1  0  0.103356  0  0.945646  0  0  0.113912  0  1.004653  0  0  0.117488  0  1.002323  0  0  0.106593  0.111335  0  1.00639  0
H  H21  1  0.37273502  0.94623378  0.37638090  1  0  0.103365  0  0.94565  0  0  0.11392  0  1.004659  0  0  0.117496  0  1.002327  0  0  0.10659  0.111342  0  1.006396  0
H  H22  1  0.94623492  0.37273604  0.87638058  1  0  0.103376  0  0.945636  0  0  0.113915  0  1.004659  0  0  0.117489  0  1.00233  0  0  0.106598  0.111337  0  1.006393  0
H  H23  1  0.62726539  0.05376589  0.62361834  1  0  0.103398  0  0.94564  0  0  0.113942  0  1.004659  0  0  0.117517  0  1.002328  0  0  0.106604  0.111362  0  1.006396  0
H  H24  1  0.05476443  0.39888576  0.12376722  1  0  0.106829  0  0.931157  0  0  0.117079  0  0.986221  0  0  0.120676  0  0.984386  0  0  0.108992  0.114499  0  0.987616  0
H  H25  1  0.60111265  0.94523483  0.37623277  1  0  0.106844  0  0.931153  0  0  0.117097  0  0.986208  0  0  0.120693  0  0.984374  0  0  0.109  0.114517  0  0.987603  0
H  H26  1  0.94523603  0.60111486  0.87623240  1  0  0.106828  0  0.9312  0  0  0.117085  0  0.986253  0  0  0.120682  0  0.984419  0  0  0.108993  0.114505  0  0.987649  0
H  H27  1  0.39888681  0.05476483  0.62376608  1  0  0.106828  0  0.931125  0  0  0.117073  0  0.986192  0  0  0.12067  0  0.984357  0  0  0.108991  0.114493  0  0.987588  0
C  C28  1  0.01217220  0.24037117  0.47761148  1  0  0.179641  0  3.628067  0  0  0.116313  0  3.892124  0  0  0.130806  0  3.903369  0  0  0.154594  0.107049  0  3.884243  0
C  C29  1  0.75962956  0.98782766  0.02238899  1  0  0.179589  0  3.628123  0  0  0.116248  0  3.892187  0  0  0.130741  0  3.903431  0  0  0.154561  0.106986  0  3.884305  0
C  C30  1  0.98782820  0.75962848  0.52238948  1  0  0.1797  0  3.628033  0  0  0.116367  0  3.892089  0  0  0.130861  0  3.903331  0  0  0.154615  0.107102  0  3.884209  0
C  C31  1  0.24036994  0.01217295  0.97761081  1  0  0.179687  0  3.627944  0  0  0.116356  0  3.892007  0  0  0.130849  0  3.903251  0  0  0.154622  0.107092  0  3.884127  0
C  C32  1  0.15729205  0.09929122  0.47940818  1  0  0.010081  0  3.723619  0  0  -0.026848  0  3.993288  0  0  -0.025395  0  4.013233  0  0  0.004587  -0.027837  0  3.979934  0
C  C33  1  0.90071065  0.84270798  0.02059123  1  0  0.010153  0  3.723507  0  0  -0.026771  0  3.993173  0  0  -0.025319  0  4.013118  0  0  0.004615  -0.02776  0  3.979821  0
C  C34  1  0.84270655  0.90071035  0.52059219  1  0  0.010077  0  3.723555  0  0  -0.026852  0  3.993231  0  0  -0.025399  0  4.013174  0  0  0.004577  -0.027839  0  3.979876  0
C  C35  1  0.09929076  0.15729264  0.97940820  1  0  0.010101  0  3.723582  0  0  -0.026826  0  3.993239  0  0  -0.025376  0  4.013183  0  0  0.004582  -0.027813  0  3.979884  0
C  C36  1  0.17478264  0.16625401  0.39579894  1  0  -0.036201  0  3.659495  0  0  -0.081138  0  3.923622  0  0  -0.078942  0  3.941977  0  0  0.008602  -0.082592  0  3.91133  0
C  C37  1  0.83374703  0.82521747  0.10420123  1  0  -0.036187  0  3.659514  0  0  -0.081136  0  3.923641  0  0  -0.07894  0  3.941995  0  0  0.008613  -0.082592  0  3.911351  0
C  C38  1  0.82521782  0.83374661  0.60420125  1  0  -0.036161  0  3.659529  0  0  -0.081103  0  3.923654  0  0  -0.078907  0  3.942008  0  0  0.008616  -0.082559  0  3.911363  0
C  C39  1  0.16625433  0.17478219  0.89579840  1  0  -0.036212  0  3.659465  0  0  -0.081147  0  3.923586  0  0  -0.078949  0  3.941939  0  0  0.008641  -0.082602  0  3.911295  0
C  C40  1  0.06754874  0.35161959  0.32256808  1  0  0.162577  0  3.750577  0  0  0.14748  0  4.003201  0  0  0.152533  0  4.025788  0  0  0.099037  0.143992  0  3.988009  0
C  C41  1  0.64838049  0.93244990  0.17743223  1  0  0.162574  0  3.75058  0  0  0.147507  0  4.003156  0  0  0.152559  0  4.025741  0  0  0.099026  0.144021  0  3.987963  0
C  C42  1  0.93245076  0.64838102  0.67743230  1  0  0.162577  0  3.7505  0  0  0.147465  0  4.003161  0  0  0.152516  0  4.025748  0  0  0.099008  0.143979  0  3.987969  0
C  C43  1  0.35161982  0.06754785  0.82256740  1  0  0.162492  0  3.750522  0  0  0.147416  0  4.003129  0  0  0.152467  0  4.025716  0  0  0.098999  0.143931  0  3.987938  0
C  C44  1  0.06644444  0.47807995  0.32284720  1  0  -0.145517  0  3.714333  0  0  -0.179586  0  3.967103  0  0  -0.18164  0  3.986294  0  0  -0.08128  -0.178077  0  3.954253  0
C  C45  1  0.52191967  0.93355381  0.17715281  1  0  -0.145531  0  3.714376  0  0  -0.179631  0  3.967119  0  0  -0.181677  0  3.986317  0  0  -0.081282  -0.17812  0  3.954267  0
C  C46  1  0.93355506  0.52192067  0.67715261  1  0  -0.145514  0  3.714354  0  0  -0.179601  0  3.967109  0  0  -0.181656  0  3.986301  0  0  -0.081279  -0.178087  0  3.95426  0
C  C47  1  0.47808069  0.06644490  0.82284662  1  0  -0.145571  0  3.7144  0  0  -0.179653  0  3.967157  0  0  -0.181709  0  3.986349  0  0  -0.081287  -0.178145  0  3.954305  0
C  C48  1  0.05883052  0.57753007  0.25184639  1  0  -0.033604  0  3.748885  0  0  -0.010016  0  3.980741  0  0  -0.016394  0  4.002996  0  0  -0.012806  -0.005978  0  3.965825  0
C  C49  1  0.42247011  0.94116704  0.24815373  1  0  -0.033603  0  3.749011  0  0  -0.009952  0  3.980773  0  0  -0.016357  0  4.003066  0  0  -0.012817  -0.005914  0  3.965856  0
C  C50  1  0.94116803  0.42247054  0.74815360  1  0  -0.033662  0  3.749021  0  0  -0.010032  0  3.980825  0  0  -0.016412  0  4.00308  0  0  -0.012845  -0.005994  0  3.965907  0
C  C51  1  0.57752940  0.05883358  0.75184550  1  0  -0.03362  0  3.749011  0  0  -0.010002  0  3.98083  0  0  -0.016379  0  4.003087  0  0  -0.012793  -0.005961  0  3.965912  0
C  C52  1  0.05616672  0.54882767  0.17951225  1  0  -0.073286  0  3.740342  0  0  -0.099457  0  3.990361  0  0  -0.100137  0  4.010592  0  0  -0.083133  -0.0989  0  3.976689  0
C  C53  1  0.45117186  0.94383179  0.32048722  1  0  -0.073324  0  3.740407  0  0  -0.099521  0  3.990412  0  0  -0.100191  0  4.01065  0  0  -0.083134  -0.098963  0  3.976741  0
C  C54  1  0.94383374  0.45117295  0.82048680  1  0  -0.073288  0  3.74036  0  0  -0.099459  0  3.990371  0  0  -0.100136  0  4.010603  0  0  -0.083116  -0.098901  0  3.976699  0
C  C55  1  0.54882855  0.05616787  0.67951145  1  0  -0.073318  0  3.740385  0  0  -0.09949  0  3.990394  0  0  -0.100169  0  4.010625  0  0  -0.083152  -0.098932  0  3.976722  0
C  C56  1  0.05718976  0.42240224  0.17956902  1  0  -0.061547  0  3.744207  0  0  -0.08256  0  3.99261  0  0  -0.084043  0  4.013019  0  0  -0.078331  -0.081583  0  3.978869  0
C  C57  1  0.57759798  0.94280829  0.32043087  1  0  -0.061493  0  3.744164  0  0  -0.082506  0  3.99256  0  0  -0.083989  0  4.012967  0  0  -0.078298  -0.08153  0  3.978821  0
C  C58  1  0.94280980  0.57759933  0.82043059  1  0  -0.061549  0  3.744214  0  0  -0.082555  0  3.992608  0  0  -0.084041  0  4.013018  0  0  -0.078316  -0.081578  0  3.978869  0
C  C59  1  0.42240237  0.05719042  0.67956856  1  0  -0.061549  0  3.744161  0  0  -0.082549  0  3.992555  0  0  -0.084034  0  4.012964  0  0  -0.078314  -0.081572  0  3.978815  0
C  C60  1  0.06010048  0.32119005  0.25143072  1  0  -0.100361  0  3.685867  0  0  -0.086908  0  3.926469  0  0  -0.092672  0  3.945327  0  0  -0.006433  -0.083191  0  3.913891  0
C  C61  1  0.67880912  0.93989849  0.24856969  1  0  -0.100353  0  3.685744  0  0  -0.08689  0  3.926341  0  0  -0.092652  0  3.9452  0  0  -0.006417  -0.083174  0  3.913766  0
C  C62  1  0.93989902  0.67881056  0.74856966  1  0  -0.10034  0  3.685779  0  0  -0.086899  0  3.926431  0  0  -0.09266  0  3.945288  0  0  -0.006451  -0.083185  0  3.913859  0
C  C63  1  0.32119028  0.06010021  0.75142993  1  0  -0.100308  0  3.68578  0  0  -0.086864  0  3.926405  0  0  -0.092624  0  3.945262  0  0  -0.00644  -0.083149  0  3.913832  0
C  C64  1  0.05062730  0.18562022  0.25029937  1  0  0.665547  0  3.900746  0  0  0.611993  0  4.200652  0  0  0.647795  0  4.191589  0  0  0.210473  0.587716  0  4.206043  0
C  C65  1  0.81438348  0.94937768  0.24969487  1  0  0.66564  0  3.900468  0  0  0.612007  0  4.200478  0  0  0.647808  0  4.191418  0  0  0.210491  0.58773  0  4.205866  0
C  C66  1  0.94937316  0.81438041  0.74969967  1  0  0.665664  0  3.900559  0  0  0.612088  0  4.200506  0  0  0.647889  0  4.191444  0  0  0.210509  0.587812  0  4.205898  0
C  C67  1  0.18562002  0.05062585  0.75030072  1  0  0.665663  0  3.900522  0  0  0.612077  0  4.200475  0  0  0.647878  0  4.191414  0  0  0.210555  0.587801  0  4.205865  0
C  C68  1  0.05580352  0.71354524  0.25318922  1  0  0.659725  0  3.890128  0  0  0.609396  0  4.179835  0  0  0.644929  0  4.172126  0  0  0.212429  0.585365  0  4.18423  0
C  C69  1  0.28645560  0.94419662  0.24680866  1  0  0.659697  0  3.890122  0  0  0.609365  0  4.179808  0  0  0.644905  0  4.172101  0  0  0.212431  0.585335  0  4.184202  0
C  C70  1  0.94419604  0.28645634  0.74680981  1  0  0.659697  0  3.890179  0  0  0.609356  0  4.179895  0  0  0.644889  0  4.172185  0  0  0.21244  0.585325  0  4.184288  0
C  C71  1  0.71354487  0.05580401  0.75318980  1  0  0.659719  0  3.890149  0  0  0.609367  0  4.179882  0  0  0.644899  0  4.172174  0  0  0.212429  0.585335  0  4.184275  0
N  N72  1  0.05578639  0.14655350  0.52958323  1  0  -0.350607  0  3.284517  0  0  -0.273646  0  3.580363  0  0  -0.293525  0  3.592969  0  0  -0.349496  -0.260203  0  3.571567  0
N  N73  1  0.85344560  0.94421337  0.97041746  1  0  -0.350607  0  3.284479  0  0  -0.273653  0  3.580342  0  0  -0.293532  0  3.592948  0  0  -0.349504  -0.260209  0  3.571545  0
N  N74  1  0.94421401  0.85344615  0.47041715  1  0  -0.3506  0  3.284422  0  0  -0.273641  0  3.580275  0  0  -0.293519  0  3.59288  0  0  -0.349487  -0.260197  0  3.571479  0
N  N75  1  0.14655385  0.05578629  0.02958197  1  0  -0.350686  0  3.284497  0  0  -0.273715  0  3.580346  0  0  -0.293589  0  3.592947  0  0  -0.349511  -0.260272  0  3.571551  0
N  N76  1  0.08220318  0.25543059  0.39546020  1  0  -0.086364  0  3.619457  0  0  0.002135  0  3.835734  0  0  -0.012634  0  3.861117  0  0  -0.222901  0.011934  0  3.818382  0
N  N77  1  0.74456979  0.91779543  0.10454054  1  0  -0.086413  0  3.619576  0  0  0.002104  0  3.835803  0  0  -0.012664  0  3.861186  0  0  -0.222894  0.011903  0  3.818452  0
N  N78  1  0.91779632  0.74457002  0.60454018  1  0  -0.086487  0  3.619575  0  0  0.002031  0  3.83584  0  0  -0.012738  0  3.861223  0  0  -0.222927  0.01183  0  3.81849  0
N  N79  1  0.25542956  0.08220231  0.89545985  1  0  -0.086316  0  3.619361  0  0  0.00217  0  3.835643  0  0  -0.012597  0  3.861025  0  0  -0.222944  0.011968  0  3.818294  0
O  O80  1  0.98510235  0.10357580  0.31886790  1  0  -0.624471  0  2.060327  0  0  -0.565684  0  2.316725  0  0  -0.593681  0  2.304175  0  0  -0.315053  -0.546172  0  2.324656  0
O  O81  1  0.89642161  0.01489583  0.18113435  1  0  -0.624441  0  2.060467  0  0  -0.565632  0  2.316915  0  0  -0.593624  0  2.304365  0  0  -0.315044  -0.546122  0  2.324846  0
O  O82  1  0.01489799  0.89642290  0.68113326  1  0  -0.624483  0  2.060332  0  0  -0.565695  0  2.316744  0  0  -0.59369  0  2.304194  0  0  -0.315052  -0.546182  0  2.324676  0
O  O83  1  0.10357784  0.98510382  0.81886623  1  0  -0.624462  0  2.060345  0  0  -0.565676  0  2.31678  0  0  -0.593671  0  2.30423  0  0  -0.31506  -0.546163  0  2.324709  0
O  O84  1  0.10802919  0.16604329  0.18013873  1  0  -0.621285  0  2.043228  0  0  -0.559215  0  2.294444  0  0  -0.587267  0  2.280544  0  0  -0.314486  -0.539689  0  2.303298  0
O  O85  1  0.83395644  0.89197009  0.31986420  1  0  -0.621409  0  2.042865  0  0  -0.559308  0  2.294102  0  0  -0.587362  0  2.280203  0  0  -0.314529  -0.539777  0  2.302952  0
O  O86  1  0.89197025  0.83395636  0.81986242  1  0  -0.621336  0  2.043067  0  0  -0.55925  0  2.294291  0  0  -0.587302  0  2.280388  0  0  -0.314477  -0.539721  0  2.303144  0
O  O87  1  0.16604401  0.10803052  0.68013714  1  0  -0.621373  0  2.043004  0  0  -0.559285  0  2.294221  0  0  -0.587338  0  2.280322  0  0  -0.314513  -0.539755  0  2.303073  0
O  O88  1  0.05797499  0.79958191  0.18412995  1  0  -0.642612  0  2.091869  0  0  -0.580533  0  2.354989  0  0  -0.610003  0  2.343234  0  0  -0.314629  -0.560053  0  2.362353  0
O  O89  1  0.20041837  0.94202502  0.31586986  1  0  -0.642573  0  2.091809  0  0  -0.580503  0  2.354925  0  0  -0.609971  0  2.343167  0  0  -0.314613  -0.560021  0  2.362286  0
O  O90  1  0.94202451  0.20041871  0.81586985  1  0  -0.642573  0  2.09183  0  0  -0.580494  0  2.35495  0  0  -0.609963  0  2.343193  0  0  -0.314624  -0.560013  0  2.362312  0
O  O91  1  0.79958300  0.05797465  0.68412919  1  0  -0.642613  0  2.09183  0  0  -0.580533  0  2.354962  0  0  -0.610003  0  2.343208  0  0  -0.314639  -0.560051  0  2.362324  0
O  O92  1  0.04966536  0.73160922  0.32283223  1  0  -0.625489  0  2.04311  0  0  -0.563221  0  2.292595  0  0  -0.591423  0  2.279138  0  0  -0.317162  -0.543654  0  2.301145  0
O  O93  1  0.26839062  0.95033454  0.17716821  1  0  -0.625484  0  2.043149  0  0  -0.563227  0  2.29264  0  0  -0.591427  0  2.279179  0  0  -0.317177  -0.543662  0  2.301192  0
O  O94  1  0.95033319  0.26839139  0.67716776  1  0  -0.625477  0  2.043155  0  0  -0.563218  0  2.292651  0  0  -0.591421  0  2.279194  0  0  -0.317173  -0.543652  0  2.3012  0
O  O95  1  0.73160888  0.04966608  0.82283159  1  0  -0.625461  0  2.043137  0  0  -0.563188  0  2.29263  0  0  -0.59139  0  2.279174  0  0  -0.317155  -0.543621  0  2.30118  0
