# generated using pymatgen
data_CuPH20C24IN2
_symmetry_space_group_name_H-M   'P 1'
_cell_length_a   9.86076051
_cell_length_b   10.79150242
_cell_length_c   12.64740293
_cell_angle_alpha   72.93403908
_cell_angle_beta   68.56267061
_cell_angle_gamma   72.35693399
_symmetry_Int_Tables_number   1
_chemical_formula_structural   CuPH20C24IN2
_chemical_formula_sum   'Cu2 P2 H40 C48 I2 N4'
_cell_volume   1168.21166107
_cell_formula_units_Z   2
loop_
 _symmetry_equiv_pos_site_id
 _symmetry_equiv_pos_as_xyz
  1  'x, y, z'
loop_
 _atom_site_type_symbol
 _atom_site_label
 _atom_site_symmetry_multiplicity
 _atom_site_fract_x
 _atom_site_fract_y
 _atom_site_fract_z
 _atom_site_occupancy
 _atom_site_pbe_bader_spin_density
 _atom_site_pbe_cm5_charge
 _atom_site_pbe_ddec_charge
 _atom_site_pbe_ddec_spin_density
 _atom_site_pbe_ddec_sum_bond_order
 _atom_site_pbe_magmom
Cu  Cu0  1  0.96460495  0.05818693  0.09640343  1  0  0.339807  0.093085  0  2.869396  0
Cu  Cu1  1  0.03539432  0.94180605  0.90359897  1  0  0.339804  0.093113  0  2.869385  0
P  P2  1  0.78197734  0.01761708  0.25859150  1  0  -0.038988  0.231004  0  4.237698  0
P  P3  1  0.21802497  0.98237676  0.74141148  1  0  -0.038974  0.230985  0  4.237689  0
H  H4  1  0.05705431  0.96636199  0.30853538  1  0  0.089195  0.08246  0  1.057651  0
H  H5  1  0.94295623  0.03362855  0.69147008  1  0  0.089179  0.082448  0  1.057642  0
H  H6  1  0.14849225  0.83195778  0.47645649  1  0  0.09503  0.090285  0  1.044343  0
H  H7  1  0.85150491  0.16803400  0.52355308  1  0  0.095058  0.090316  0  1.04426  0
H  H8  1  0.98670681  0.70032945  0.64360540  1  0  0.094462  0.090101  0  1.021198  0
H  H9  1  0.01328206  0.29967047  0.35640301  1  0  0.09454  0.090184  0  1.02117  0
H  H10  1  0.73368186  0.70171837  0.64183753  1  0  0.094416  0.09112  0  1.027713  0
H  H11  1  0.26630513  0.29828575  0.35816571  1  0  0.094435  0.091121  0  1.027779  0
H  H12  1  0.64257356  0.83712121  0.47634069  1  0  0.094484  0.095  0  1.052709  0
H  H13  1  0.35742930  0.16288079  0.52365402  1  0  0.094477  0.094999  0  1.052714  0
H  H14  1  0.82201260  0.76203773  0.21187443  1  0  0.092748  0.096262  0  1.026353  0
H  H15  1  0.17797460  0.23796536  0.78812977  1  0  0.092755  0.096272  0  1.026478  0
H  H16  1  0.65042034  0.64192282  0.20066800  1  0  0.0965  0.094194  0  1.014125  0
H  H17  1  0.34956549  0.35809252  0.79932517  1  0  0.096481  0.094108  0  1.014053  0
H  H18  1  0.37994022  0.74982204  0.23016049  1  0  0.092413  0.097195  0  1.023699  0
H  H19  1  0.62005129  0.25019851  0.76982051  1  0  0.092387  0.097184  0  1.02369  0
H  H20  1  0.28301386  0.97519200  0.27697566  1  0  0.097749  0.094823  0  1.027187  0
H  H21  1  0.71697784  0.02482611  0.72301690  1  0  0.097803  0.094966  0  1.027243  0
H  H22  1  0.45190995  0.09281623  0.29201310  1  0  0.094746  0.092512  0  1.055396  0
H  H23  1  0.54808584  0.90719274  0.70798434  1  0  0.094769  0.092508  0  1.055338  0
H  H24  1  0.68532872  0.09929562  0.48479414  1  0  0.095772  0.092015  0  1.055928  0
H  H25  1  0.31467987  0.90070392  0.51520828  1  0  0.095765  0.092019  0  1.056018  0
H  H26  1  0.54557407  0.31049771  0.54702180  1  0  0.093021  0.084761  0  1.0617  0
H  H27  1  0.45443227  0.68950316  0.45297381  1  0  0.093028  0.084767  0  1.061604  0
H  H28  1  0.44499592  0.50367532  0.40915741  1  0  0.100181  0.096675  0  1.019355  0
H  H29  1  0.55501377  0.49632561  0.59083412  1  0  0.100195  0.096655  0  1.019331  0
H  H30  1  0.48949487  0.48199141  0.20763826  1  0  0.096729  0.093269  0  1.043181  0
H  H31  1  0.51053103  0.51800522  0.79234988  1  0  0.096715  0.093309  0  1.043103  0
H  H32  1  0.63169933  0.27038453  0.14422820  1  0  0.087266  0.091523  0  1.06556  0
H  H33  1  0.36832467  0.72960493  0.85576914  1  0  0.087228  0.091517  0  1.065524  0
H  H34  1  0.89379104  0.33041805  0.13030803  1  0  0.109251  0.082149  0  1.01946  0
H  H35  1  0.10620458  0.66956303  0.86972487  1  0  0.10928  0.082208  0  1.019316  0
H  H36  1  0.03029382  0.49837675  0.11728906  1  0  0.108486  0.11762  0  1.000884  0
H  H37  1  0.96969817  0.50160654  0.88274037  1  0  0.108579  0.117624  0  1.000866  0
H  H38  1  0.44176271  0.20410820  0.03376619  1  0  0.108847  0.118777  0  1.015092  0
H  H39  1  0.55824110  0.79590125  0.96621317  1  0  0.108839  0.118803  0  1.015074  0
H  H40  1  0.28738242  0.04734332  0.05172657  1  0  0.102887  0.083366  0  1.028909  0
H  H41  1  0.71262374  0.95266002  0.94825667  1  0  0.102909  0.083376  0  1.028938  0
H  H42  1  0.26578708  0.55876314  0.08447300  1  0  0.096729  0.077677  0  1.064181  0
H  H43  1  0.73421102  0.44123468  0.91553182  1  0  0.096733  0.077629  0  1.064272  0
C  C44  1  0.98637786  0.90928223  0.38279001  1  0  -0.089393  -0.093877  0  3.987679  0
C  C45  1  0.01362790  0.09071543  0.61721279  1  0  -0.089361  -0.093852  0  3.987737  0
C  C46  1  0.03748570  0.83360720  0.47651307  1  0  -0.095006  -0.079349  0  3.998673  0
C  C47  1  0.96251327  0.16638661  0.52349319  1  0  -0.095033  -0.079345  0  3.998674  0
C  C48  1  0.94669023  0.75937255  0.57030839  1  0  -0.091331  -0.074229  0  3.995226  0
C  C49  1  0.05330324  0.24062135  0.42970011  1  0  -0.091447  -0.074338  0  3.995328  0
C  C50  1  0.80486590  0.76045398  0.56963919  1  0  -0.095043  -0.082607  0  4.003951  0
C  C51  1  0.19512993  0.23954514  0.43035962  1  0  -0.095062  -0.082641  0  4.003941  0
C  C52  1  0.75325425  0.83667795  0.47609229  1  0  -0.087179  -0.092549  0  3.964417  0
C  C53  1  0.24674784  0.16332186  0.52390864  1  0  -0.087152  -0.092498  0  3.964279  0
C  C54  1  0.84349901  0.91229812  0.38216945  1  0  -0.027761  -0.042639  0  3.964331  0
C  C55  1  0.15650504  0.08769766  0.61783264  1  0  -0.027773  -0.042701  0  3.964366  0
C  C56  1  0.64832113  0.93531464  0.25358543  1  0  -0.022973  -0.033226  0  3.960817  0
C  C57  1  0.35167149  0.06468824  0.74641974  1  0  -0.023049  -0.033369  0  3.960911  0
C  C58  1  0.70319092  0.80777662  0.22756428  1  0  -0.087224  -0.096443  0  3.965347  0
C  C59  1  0.29679414  0.19223159  0.77243620  1  0  -0.087136  -0.096294  0  3.965337  0
C  C60  1  0.60696111  0.74092152  0.22051393  1  0  -0.093576  -0.083479  0  4.016979  0
C  C61  1  0.39302710  0.25909271  0.77948043  1  0  -0.093623  -0.083459  0  4.0168  0
C  C62  1  0.45526630  0.80066746  0.23767428  1  0  -0.093617  -0.087836  0  4.00217  0
C  C63  1  0.54472001  0.19934595  0.76231760  1  0  -0.093512  -0.087687  0  4.00209  0
C  C64  1  0.40087028  0.92742486  0.26297132  1  0  -0.093847  -0.082511  0  4.008626  0
C  C65  1  0.59911880  0.07259035  0.73702259  1  0  -0.093907  -0.082847  0  4.008961  0
C  C66  1  0.49645195  0.99452111  0.27109327  1  0  -0.089946  -0.100987  0  3.976259  0
C  C67  1  0.50353965  0.00548689  0.72890709  1  0  -0.090005  -0.10091  0  3.976366  0
C  C68  1  0.66862330  0.16946429  0.31051456  1  0  -0.025833  -0.040458  0  3.952547  0
C  C69  1  0.33138771  0.83052927  0.68948853  1  0  -0.025839  -0.040451  0  3.952487  0
C  C70  1  0.64421758  0.18329578  0.42325241  1  0  -0.090064  -0.099879  0  3.973421  0
C  C71  1  0.35579135  0.81670299  0.57674455  1  0  -0.090043  -0.099839  0  3.973368  0
C  C72  1  0.56515839  0.30317231  0.45827495  1  0  -0.092836  -0.079647  0  4.003691  0
C  C73  1  0.43485269  0.69682635  0.54172304  1  0  -0.092834  -0.079662  0  4.003782  0
C  C74  1  0.50861929  0.41068571  0.38134966  1  0  -0.091118  -0.081545  0  3.995456  0
C  C75  1  0.49139390  0.58931416  0.61864117  1  0  -0.091157  -0.081538  0  3.995524  0
C  C76  1  0.53262507  0.39816016  0.26857612  1  0  -0.097776  -0.090531  0  4.010913  0
C  C77  1  0.46739834  0.60183739  0.73141565  1  0  -0.097666  -0.090449  0  4.011026  0
C  C78  1  0.61247983  0.27884537  0.23287187  1  0  -0.09367  -0.109141  0  3.977305  0
C  C79  1  0.38754159  0.72114622  0.76712333  1  0  -0.093713  -0.109243  0  3.97766  0
C  C80  1  0.01517254  0.30651248  0.10954036  1  0  0.034651  0.075571  0  3.949868  0
C  C81  1  0.98482404  0.69347605  0.89047720  1  0  0.034619  0.075544  0  3.94936  0
C  C82  1  0.09133305  0.39902036  0.10262911  1  0  -0.080808  -0.171034  0  3.954822  0
C  C83  1  0.90866301  0.60097002  0.89739134  1  0  -0.080872  -0.170979  0  3.954864  0
C  C84  1  0.24830574  0.36509034  0.07251351  1  0  0.003496  0.098868  0  4.016822  0
C  C85  1  0.75169489  0.63490666  0.92748527  1  0  0.003442  0.098708  0  4.017073  0
C  C86  1  0.32050255  0.23517145  0.05593374  1  0  -0.070608  -0.143558  0  3.912045  0
C  C87  1  0.67950152  0.76483072  0.94405586  1  0  -0.070523  -0.143397  0  3.912023  0
C  C88  1  0.23575799  0.14844424  0.06561511  1  0  0.040518  0.087398  0  3.923503  0
C  C89  1  0.76424495  0.85155294  0.93437747  1  0  0.040417  0.08727  0  3.923531  0
C  C90  1  0.32909527  0.46488249  0.05616719  1  0  0.071033  0.043859  0  3.901403  0
C  C91  1  0.67089796  0.53511872  0.94383027  1  0  0.07105  0.043923  0  3.901685  0
I  I92  1  0.15595672  0.82706706  0.07436645  1  0  -0.215197  -0.390159  0  1.865226  0
I  I93  1  0.84403989  0.17292789  0.92563782  1  0  -0.215194  -0.390123  0  1.865109  0
N  N94  1  0.08540810  0.18271653  0.09020496  1  0  -0.355993  -0.17  0  3.626137  0
N  N95  1  0.91459283  0.81727823  0.90980056  1  0  -0.355988  -0.17003  0  3.62597  0
N  N96  1  0.47205818  0.44637895  0.00442101  1  0  -0.210595  -0.165856  0  3.321123  0
N  N97  1  0.52793574  0.55363064  0.99556255  1  0  -0.21066  -0.165937  0  3.321373  0
