# generated using pymatgen
data_AlH10C14NO5
_symmetry_space_group_name_H-M   'P 1'
_cell_length_a   6.68264649
_cell_length_b   11.07011694
_cell_length_c   16.82996120
_cell_angle_alpha   77.43967899
_cell_angle_beta   84.11097525
_cell_angle_gamma   73.43695622
_symmetry_Int_Tables_number   1
_chemical_formula_structural   AlH10C14NO5
_chemical_formula_sum   'Al2 H20 C28 N2 O10'
_cell_volume   1163.72225856
_cell_formula_units_Z   2
loop_
 _symmetry_equiv_pos_site_id
 _symmetry_equiv_pos_as_xyz
  1  'x, y, z'
loop_
 _atom_site_type_symbol
 _atom_site_label
 _atom_site_symmetry_multiplicity
 _atom_site_fract_x
 _atom_site_fract_y
 _atom_site_fract_z
 _atom_site_occupancy
 _atom_site_pbe_bader_charge
 _atom_site_pbe_bader_spin_density
 _atom_site_pbe_cm5_charge
 _atom_site_pbe_ddec_charge
 _atom_site_pbe_ddec_spin_density
 _atom_site_pbe_ddec_sum_bond_order
 _atom_site_pbe_magmom
Al  Al0  1  0.49116638  0.50503919  0.49557517  1  2.503362  0  0.397852  1.638378  0  2.585204  0
Al  Al1  1  0.99081104  0.50440410  0.49610201  1  2.502719  0  0.39857  1.636434  0  2.58064  0
H  H2  1  0.17785648  0.66269275  0.44119477  1  0.631004  0  0.353656  0.42967  0  0.852936  0
H  H3  1  0.80739663  0.34477255  0.54346634  1  0.645933  0  0.342984  0.414038  0  0.888781  0
H  H4  1  0.92135669  0.41542852  0.74284346  1  0.085739  0  0.107884  0.109405  0  1.010041  0
H  H5  1  0.84763312  0.42281131  0.89127326  1  0.090737  0  0.106129  0.109934  0  1.016091  0
H  H6  1  0.37588259  0.57258331  0.88677195  1  0.075959  0  0.106438  0.113527  0  1.004848  0
H  H7  1  0.61372326  0.43329559  0.10549313  1  0.076892  0  0.106252  0.112627  0  1.006613  0
H  H8  1  0.13877717  0.58574464  0.10173821  1  0.113103  0  0.106513  0.109284  0  1.015922  0
H  H9  1  0.06259845  0.59371561  0.24996645  1  0.074354  0  0.108624  0.110711  0  1.007532  0
H  H10  1  0.90759275  0.74456567  0.60319881  1  0.073641  0  0.1069  0.114543  0  1.036543  0
H  H11  1  0.08740433  0.84351887  0.68093952  1  0.042127  0  0.103307  0.101282  0  0.999909  0
H  H12  1  0.64318512  0.21048971  0.60990992  1  0.078361  0  0.10725  0.107921  0  1.032615  0
H  H13  1  0.95397330  0.07751767  0.68476533  1  0.065795  0  0.105651  0.103599  0  0.982891  0
H  H14  1  0.16569011  0.13249318  0.44592736  1  0.062212  0  0.113092  0.119416  0  0.980736  0
H  H15  1  0.28666531  0.89631918  0.44860611  1  0.095792  0  0.110045  0.11312  0  0.991647  0
H  H16  1  0.57907079  0.61497433  0.77050154  1  0.029938  0  0.089016  0.127053  0  1.008162  0
H  H17  1  0.44628207  0.66539874  0.67735341  1  0.042233  0  0.093601  0.133405  0  1.004993  0
H  H18  1  0.61308609  0.51029878  0.70005101  1  0.092241  0  0.101569  0.151993  0  1.00448  0
H  H19  1  0.37277975  0.49493516  0.29164209  1  0.07859  0  0.100456  0.149662  0  1.008756  0
H  H20  1  0.54221479  0.34065999  0.31485034  1  0.046303  0  0.096293  0.140237  0  0.987095  0
H  H21  1  0.41080252  0.38973515  0.22134239  1  0.026114  0  0.089438  0.126577  0  1.007326  0
C  C22  1  0.62902982  0.72973575  0.50474154  1  1.578338  0  0.275489  0.656139  0  4.070924  0
C  C23  1  0.77398151  0.52113205  0.34961046  1  1.560004  0  0.266533  0.646155  0  4.089599  0
C  C24  1  0.35212125  0.27535851  0.50171504  1  1.607708  0  0.2735  0.652293  0  4.08102  0
C  C25  1  0.20952506  0.48732893  0.64282217  1  1.549485  0  0.263558  0.637994  0  4.096893  0
C  C26  1  0.18650406  0.49114695  0.73143421  1  -0.01452  0  -0.013987  -0.107833  0  3.908841  0
C  C27  1  0.01930308  0.44987854  0.77553144  1  -0.035846  0  -0.07928  -0.075247  0  4.009057  0
C  C28  1  0.97783449  0.45381540  0.85724677  1  -0.008829  0  -0.089899  -0.155871  0  3.972436  0
C  C29  1  0.10737614  0.50034300  0.89669761  1  0.315118  0  0.088759  0.180564  0  4.063727  0
C  C30  1  0.27767123  0.53833028  0.85373089  1  -0.047386  0  -0.083483  -0.210641  0  3.90215  0
C  C31  1  0.32067045  0.53580909  0.77084346  1  0.035957  0  0.004818  0.176641  0  3.93357  0
C  C32  1  0.71055882  0.46834104  0.13865266  1  -0.047139  0  -0.083476  -0.210758  0  3.900659  0
C  C33  1  0.88047632  0.50708799  0.09590550  1  0.327957  0  0.086907  0.178027  0  4.066565  0
C  C34  1  0.00865801  0.55435026  0.13554766  1  -0.037469  0  -0.088783  -0.154386  0  3.971694  0
C  C35  1  0.96582756  0.55857470  0.21717861  1  0.004955  0  -0.080241  -0.076296  0  4.007247  0
C  C36  1  0.79875823  0.51677562  0.26103506  1  -0.007863  0  -0.012678  -0.104903  0  3.901808  0
C  C37  1  0.66629651  0.47101409  0.22148299  1  -0.01017  0  0.007658  0.179921  0  3.928819  0
C  C38  1  0.55965503  0.86678215  0.51415042  1  -0.114287  0  -0.006905  -0.087082  0  3.937607  0
C  C39  1  0.67516672  0.92167094  0.55694640  1  0.001757  0  0.001221  0.059157  0  3.942575  0
C  C40  1  0.37517097  0.94139054  0.47826135  1  0.020242  0  -0.079466  -0.089912  0  4.006506  0
C  C41  1  0.85244783  0.84712501  0.60242683  1  -0.013164  0  -0.088834  -0.128707  0  3.957216  0
C  C42  1  0.95240268  0.90271439  0.64624773  1  -0.006677  0  -0.089801  -0.075974  0  4.029387  0
C  C43  1  0.42048530  0.13235966  0.51320288  1  -0.052743  0  -0.005433  -0.079238  0  3.935387  0
C  C44  1  0.30642601  0.07382702  0.47713353  1  -0.005636  0  -0.079048  -0.091878  0  3.999726  0
C  C45  1  0.60152955  0.05722378  0.55746842  1  0.024473  0  0.002038  0.061678  0  3.945913  0
C  C46  1  0.70531758  0.10994299  0.60539798  1  -0.112366  0  -0.092351  -0.141367  0  3.988995  0
C  C47  1  0.87749443  0.03486968  0.64825866  1  0.020169  0  -0.089053  -0.076236  0  4.041113  0
C  C48  1  0.49975781  0.58399132  0.72789203  1  -0.064084  0  -0.241105  -0.419292  0  3.947844  0
C  C49  1  0.48806377  0.42165437  0.26415064  1  -0.047903  0  -0.240189  -0.417372  0  3.950923  0
N  N50  1  0.07954297  0.51242209  0.97925287  1  -0.48396  0  -0.149674  -0.137503  0  3.270654  0
N  N51  1  0.90911511  0.49489242  0.01342216  1  -0.482553  0  -0.14858  -0.133388  0  3.274292  0
O  O52  1  0.48516538  0.67465764  0.50536329  1  -1.268578  0  -0.234693  -0.600118  0  2.355716  0
O  O53  1  0.93900571  0.51438403  0.38445987  1  -1.257899  0  -0.239525  -0.599378  0  2.346637  0
O  O54  1  0.15635579  0.32927883  0.50310489  1  -1.260307  0  -0.231521  -0.59097  0  2.337196  0
O  O55  1  0.39063003  0.47453811  0.60783677  1  -1.257657  0  -0.235433  -0.591035  0  2.374575  0
O  O56  1  0.49440383  0.33401390  0.48946944  1  -1.266973  0  -0.233437  -0.598571  0  2.37809  0
O  O57  1  0.04315155  0.49585302  0.60823806  1  -1.255983  0  -0.23984  -0.59708  0  2.357347  0
O  O58  1  0.82362412  0.67799470  0.49437467  1  -1.264874  0  -0.23205  -0.59281  0  2.353005  0
O  O59  1  0.59255209  0.53260495  0.38423248  1  -1.268176  0  -0.235215  -0.592572  0  2.366921  0
O  O60  1  0.21889125  0.57021127  0.45984980  1  -1.434293  0  -0.447504  -0.983119  0  2.185357  0
O  O61  1  0.76309248  0.43813502  0.53227772  1  -1.451975  0  -0.450518  -0.981847  0  2.191546  0
