# generated using pymatgen
data_Sn2PH5C6SO7
_symmetry_space_group_name_H-M   'P 1'
_cell_length_a   6.91060110
_cell_length_b   8.39875878
_cell_length_c   9.96746994
_cell_angle_alpha   82.34540625
_cell_angle_beta   87.90981900
_cell_angle_gamma   75.35424061
_symmetry_Int_Tables_number   1
_chemical_formula_structural   Sn2PH5C6SO7
_chemical_formula_sum   'Sn4 P2 H10 C12 S2 O14'
_cell_volume   554.72925812
_cell_formula_units_Z   2
loop_
 _symmetry_equiv_pos_site_id
 _symmetry_equiv_pos_as_xyz
  1  'x, y, z'
loop_
 _atom_site_type_symbol
 _atom_site_label
 _atom_site_symmetry_multiplicity
 _atom_site_fract_x
 _atom_site_fract_y
 _atom_site_fract_z
 _atom_site_occupancy
 _atom_site_hle17_bader_spin_density
 _atom_site_hle17_ddec_charge
 _atom_site_hle17_ddec_spin_density
 _atom_site_hle17_ddec_sum_bond_order
 _atom_site_hle17_magmom
 _atom_site_hse06_10hf_bader_spin_density
 _atom_site_hse06_10hf_ddec_charge
 _atom_site_hse06_10hf_ddec_spin_density
 _atom_site_hse06_10hf_ddec_sum_bond_order
 _atom_site_hse06_10hf_magmom
 _atom_site_hse06_bader_spin_density
 _atom_site_hse06_ddec_charge
 _atom_site_hse06_ddec_spin_density
 _atom_site_hse06_ddec_sum_bond_order
 _atom_site_hse06_magmom
 _atom_site_pbe_bader_spin_density
 _atom_site_pbe_cm5_charge
 _atom_site_pbe_ddec_charge
 _atom_site_pbe_ddec_spin_density
 _atom_site_pbe_ddec_sum_bond_order
 _atom_site_pbe_magmom
Sn  Sn0  1  0.81472103  0.84369183  0.58017792  1  0  1.223046  0  1.842275  0  0  1.055336  0  2.27155  0  0  1.094447  0  2.240843  0  0  0.571508  1.026929  0  2.292326  0
Sn  Sn1  1  0.18530267  0.15629660  0.41982615  1  0  1.223058  0  1.84226  0  0  1.055329  0  2.271553  0  0  1.094437  0  2.24085  0  0  0.571509  1.026901  0  2.292352  0
Sn  Sn2  1  0.63217487  0.61721589  0.35138726  1  0  1.212051  0  1.847353  0  0  1.047704  0  2.260461  0  0  1.086296  0  2.232754  0  0  0.567882  1.018663  0  2.279756  0
Sn  Sn3  1  0.36781968  0.38281092  0.64860116  1  0  1.212061  0  1.847321  0  0  1.047692  0  2.260548  0  0  1.086277  0  2.23283  0  0  0.567867  1.018649  0  2.279831  0
P  P4  1  0.12431875  0.57459659  0.34487697  1  0  1.454177  0  4.82561  0  0  1.288599  0  5.301726  0  0  1.340779  0  5.2633  0  0  0.376187  1.252355  0  5.327777  0
P  P5  1  0.87567402  0.42539805  0.65512245  1  0  1.454331  0  4.825583  0  0  1.288764  0  5.301683  0  0  1.340958  0  5.263231  0  0  0.376236  1.252527  0  5.327719  0
H  H6  1  0.44030114  0.80738248  0.54911508  1  0  0.408419  0  0.891089  0  0  0.382134  0  0.957625  0  0  0.39319  0  0.94173  0  0  0.29643  0.374162  0  0.969062  0
H  H7  1  0.55971705  0.19261961  0.45088954  1  0  0.40838  0  0.891092  0  0  0.382082  0  0.957672  0  0  0.393128  0  0.94179  0  0  0.29644  0.374107  0  0.96911  0
H  H8  1  0.23765880  0.45929162  0.08310861  1  0  0.116237  0  0.935032  0  0  0.12561  0  0.992333  0  0  0.129167  0  0.990414  0  0  0.110005  0.123229  0  0.993569  0
H  H9  1  0.76235072  0.54070055  0.91689452  1  0  0.116207  0  0.935063  0  0  0.125663  0  0.992278  0  0  0.129213  0  0.990367  0  0  0.110007  0.123283  0  0.993514  0
H  H10  1  0.33127117  0.60252576  0.86409779  1  0  0.060077  0  1.018882  0  0  0.061397  0  1.104077  0  0  0.062704  0  1.105989  0  0  0.095027  0.061696  0  1.10097  0
H  H11  1  0.66873183  0.39746891  0.13590627  1  0  0.060097  0  1.01884  0  0  0.061413  0  1.104029  0  0  0.062724  0  1.105932  0  0  0.095024  0.061712  0  1.100927  0
H  H12  1  0.23393010  0.05840345  0.03996562  1  0  0.120644  0  0.936489  0  0  0.130155  0  0.993623  0  0  0.133769  0  0.991399  0  0  0.111763  0.127585  0  0.995338  0
H  H13  1  0.76607175  0.94158993  0.96003463  1  0  0.120654  0  0.93649  0  0  0.130172  0  0.99362  0  0  0.13379  0  0.99139  0  0  0.111787  0.127598  0  0.995347  0
H  H14  1  0.12974076  0.91816006  0.25617145  1  0  0.060468  0  1.013467  0  0  0.064711  0  1.096775  0  0  0.066418  0  1.097864  0  0  0.096156  0.064116  0  1.095304  0
H  H15  1  0.87025310  0.08183583  0.74382878  1  0  0.060447  0  1.013491  0  0  0.064691  0  1.09679  0  0  0.066397  0  1.097883  0  0  0.096169  0.064098  0  1.095309  0
C  C16  1  0.18238556  0.67899726  0.18436722  1  0  -0.2625  0  3.809478  0  0  -0.221592  0  4.050277  0  0  -0.231118  0  4.073648  0  0  -0.024062  -0.214764  0  4.034596  0
C  C17  1  0.81761444  0.32099736  0.81563194  1  0  -0.262542  0  3.809576  0  0  -0.22166  0  4.050424  0  0  -0.231186  0  4.07379  0  0  -0.024064  -0.214829  0  4.034738  0
C  C18  1  0.23588613  0.59048216  0.07288872  1  0  -0.038739  0  3.724812  0  0  -0.057935  0  3.96525  0  0  -0.059285  0  3.986461  0  0  -0.075149  -0.05724  0  3.950818  0
C  C19  1  0.76411834  0.40950753  0.92711489  1  0  -0.038739  0  3.724934  0  0  -0.05798  0  3.965353  0  0  -0.059326  0  3.986571  0  0  -0.075141  -0.057287  0  3.950923  0
C  C20  1  0.28890905  0.67048248  0.95089452  1  0  -0.049562  0  3.734983  0  0  -0.069062  0  3.978633  0  0  -0.069309  0  3.999414  0  0  -0.079374  -0.069313  0  3.964319  0
C  C21  1  0.71109313  0.32951463  0.04910527  1  0  -0.049529  0  3.73501  0  0  -0.069048  0  3.978701  0  0  -0.069294  0  3.999479  0  0  -0.079347  -0.069303  0  3.964396  0
C  C22  1  0.29019857  0.83778368  0.94095523  1  0  -0.101082  0  3.696944  0  0  -0.073232  0  3.936601  0  0  -0.079155  0  3.957017  0  0  -0.010869  -0.069068  0  3.923063  0
C  C23  1  0.70980258  0.16221221  0.05904674  1  0  -0.10113  0  3.696931  0  0  -0.073254  0  3.936578  0  0  -0.079177  0  3.956993  0  0  -0.01088  -0.069091  0  3.923048  0
C  C24  1  0.23303268  0.92807810  0.04980148  1  0  -0.045246  0  3.707626  0  0  -0.071192  0  3.959396  0  0  -0.070814  0  3.978293  0  0  -0.076967  -0.071572  0  3.946694  0
C  C25  1  0.76697097  0.07191902  0.95019925  1  0  -0.045352  0  3.707822  0  0  -0.071319  0  3.959594  0  0  -0.070942  0  3.978494  0  0  -0.077054  -0.071702  0  3.946895  0
C  C26  1  0.17789399  0.84804870  0.17111897  1  0  -0.025991  0  3.742018  0  0  -0.049688  0  3.993757  0  0  -0.050795  0  4.01519  0  0  -0.075605  -0.049344  0  3.979464  0
C  C27  1  0.82210463  0.15194596  0.82888325  1  0  -0.025868  0  3.742187  0  0  -0.049547  0  3.993917  0  0  -0.050654  0  4.015351  0  0  -0.075563  -0.049201  0  3.979616  0
S  S28  1  0.37324785  0.93549747  0.78806057  1  0  1.333528  0  5.538417  0  0  1.231965  0  6.049701  0  0  1.281029  0  6.02529  0  0  0.53187  1.197549  0  6.066234  0
S  S29  1  0.62674707  0.06450462  0.21193987  1  0  1.333782  0  5.538055  0  0  1.232173  0  6.049365  0  0  1.281242  0  6.024938  0  0  0.531951  1.197762  0  6.065901  0
O  O30  1  0.92549204  0.68089465  0.39848862  1  0  -0.830118  0  2.121462  0  0  -0.712528  0  2.373299  0  0  -0.74101  0  2.35592  0  0  -0.311855  -0.691947  0  2.384882  0
O  O31  1  0.07450018  0.31911110  0.60150445  1  0  -0.830132  0  2.121353  0  0  -0.712537  0  2.373181  0  0  -0.741084  0  2.355931  0  0  -0.311844  -0.691952  0  2.384748  0
O  O32  1  0.09413641  0.40758964  0.31537020  1  0  -0.820365  0  2.054153  0  0  -0.720597  0  2.315326  0  0  -0.747541  0  2.297505  0  0  -0.329654  -0.701864  0  2.327415  0
O  O33  1  0.90585500  0.59240504  0.68463427  1  0  -0.820454  0  2.05409  0  0  -0.720727  0  2.315346  0  0  -0.747645  0  2.297459  0  0  -0.329705  -0.702003  0  2.327443  0
O  O34  1  0.29592560  0.56248080  0.44484561  1  0  -0.856549  0  2.054147  0  0  -0.746948  0  2.308168  0  0  -0.775786  0  2.291838  0  0  -0.323484  -0.726748  0  2.318938  0
O  O35  1  0.70405953  0.43752504  0.55515573  1  0  -0.85657  0  2.054097  0  0  -0.746931  0  2.308052  0  0  -0.775791  0  2.291766  0  0  -0.323499  -0.726735  0  2.31882  0
O  O36  1  0.25611411  0.90611622  0.67661916  1  0  -0.735672  0  2.025041  0  0  -0.679724  0  2.286512  0  0  -0.704406  0  2.277265  0  0  -0.329402  -0.661964  0  2.292122  0
O  O37  1  0.74388153  0.09388338  0.32338056  1  0  -0.735629  0  2.02496  0  0  -0.679697  0  2.286449  0  0  -0.704379  0  2.277203  0  0  -0.329391  -0.661941  0  2.292068  0
O  O38  1  0.58788638  0.84742944  0.77663605  1  0  -0.685612  0  2.011708  0  0  -0.613896  0  2.268539  0  0  -0.637256  0  2.255084  0  0  -0.316775  -0.596867  0  2.277123  0
O  O39  1  0.41211024  0.15258131  0.22336128  1  0  -0.68577  0  2.011646  0  0  -0.613961  0  2.26839  0  0  -0.637322  0  2.254938  0  0  -0.316839  -0.596932  0  2.276973  0
O  O40  1  0.34320230  0.11004299  0.80698004  1  0  -0.667093  0  2.026392  0  0  -0.6064  0  2.285093  0  0  -0.630199  0  2.275614  0  0  -0.313704  -0.589597  0  2.291608  0
O  O41  1  0.65678103  0.88995912  0.19302081  1  0  -0.667192  0  2.026305  0  0  -0.606473  0  2.28496  0  0  -0.630305  0  2.275538  0  0  -0.313689  -0.589668  0  2.291475  0
O  O42  1  0.55347807  0.80374314  0.48515853  1  0  -0.870087  0  1.902152  0  0  -0.764787  0  2.131537  0  0  -0.791075  0  2.106759  0  0  -0.489911  -0.745956  0  2.148611  0
O  O43  1  0.44652460  0.19627627  0.51483551  1  0  -0.870142  0  1.902294  0  0  -0.764876  0  2.131876  0  0  -0.791107  0  2.107059  0  0  -0.489987  -0.746036  0  2.148944  0
