# generated using pymatgen
data_CuH16C10S2N2Cl
_symmetry_space_group_name_H-M   'P 1'
_cell_length_a   9.84309610
_cell_length_b   10.64343152
_cell_length_c   14.14699153
_cell_angle_alpha   77.96280772
_cell_angle_beta   69.62892937
_cell_angle_gamma   62.45415080
_symmetry_Int_Tables_number   1
_chemical_formula_structural   CuH16C10S2N2Cl
_chemical_formula_sum   'Cu4 H64 C40 S8 N8 Cl4'
_cell_volume   1229.88584324
_cell_formula_units_Z   4
loop_
 _symmetry_equiv_pos_site_id
 _symmetry_equiv_pos_as_xyz
  1  'x, y, z'
loop_
 _atom_site_type_symbol
 _atom_site_label
 _atom_site_symmetry_multiplicity
 _atom_site_fract_x
 _atom_site_fract_y
 _atom_site_fract_z
 _atom_site_occupancy
 _atom_site_hle17_bader_spin_density
 _atom_site_hle17_ddec_charge
 _atom_site_hle17_ddec_spin_density
 _atom_site_hle17_ddec_sum_bond_order
 _atom_site_hle17_magmom
 _atom_site_hse06_10hf_bader_spin_density
 _atom_site_hse06_10hf_ddec_charge
 _atom_site_hse06_10hf_ddec_spin_density
 _atom_site_hse06_10hf_ddec_sum_bond_order
 _atom_site_hse06_10hf_magmom
 _atom_site_hse06_bader_spin_density
 _atom_site_hse06_ddec_charge
 _atom_site_hse06_ddec_spin_density
 _atom_site_hse06_ddec_sum_bond_order
 _atom_site_hse06_magmom
 _atom_site_pbe_bader_spin_density
 _atom_site_pbe_cm5_charge
 _atom_site_pbe_ddec_charge
 _atom_site_pbe_ddec_spin_density
 _atom_site_pbe_ddec_sum_bond_order
 _atom_site_pbe_magmom
Cu  Cu0  1  0.14562985  0.39667817  0.96056732  1  0  0.32021  0  2.239435  0  0  0.261151  0  2.736785  0  0  0.260206  0  2.694157  0  0  0.303668  0.263868  0  2.763674  0
Cu  Cu1  1  0.50271645  0.10332937  0.53947679  1  0  0.320042  0  2.239717  0  0  0.260962  0  2.736967  0  0  0.259979  0  2.69438  0  0  0.303688  0.26375  0  2.763772  0
Cu  Cu2  1  0.85436901  0.60332316  0.03943341  1  0  0.320153  0  2.239469  0  0  0.261091  0  2.736799  0  0  0.260121  0  2.694167  0  0  0.303643  0.263807  0  2.763683  0
Cu  Cu3  1  0.49728262  0.89667302  0.46052319  1  0  0.320024  0  2.239756  0  0  0.260937  0  2.737019  0  0  0.259982  0  2.694443  0  0  0.303679  0.263729  0  2.763822  0
H  H4  1  0.49314184  0.19042512  0.87527202  1  0  0.108137  0  0.97326  0  0  0.120016  0  1.037835  0  0  0.123664  0  1.035523  0  0  0.086377  0.117363  0  1.039501  0
H  H5  1  0.55849810  0.30932924  0.62492053  1  0  0.10826  0  0.973345  0  0  0.119906  0  1.038248  0  0  0.123636  0  1.035855  0  0  0.086485  0.117249  0  1.039873  0
H  H6  1  0.50685730  0.80957619  0.12472413  1  0  0.108202  0  0.973219  0  0  0.120064  0  1.03779  0  0  0.123714  0  1.035471  0  0  0.086411  0.117405  0  1.039464  0
H  H7  1  0.44149982  0.69067313  0.37507628  1  0  0.108239  0  0.973378  0  0  0.119901  0  1.038259  0  0  0.123632  0  1.035867  0  0  0.08649  0.117246  0  1.039883  0
H  H8  1  0.49964374  0.13672081  0.76281652  1  0  0.107383  0  0.94513  0  0  0.120619  0  1.013123  0  0  0.123474  0  1.011878  0  0  0.098736  0.118255  0  1.014414  0
H  H9  1  0.39852890  0.36332541  0.73726046  1  0  0.107131  0  0.944491  0  0  0.120201  0  1.012963  0  0  0.123062  0  1.011712  0  0  0.09878  0.117882  0  1.014158  0
H  H10  1  0.50035378  0.86327945  0.23718180  1  0  0.107397  0  0.945089  0  0  0.12062  0  1.013081  0  0  0.123476  0  1.011831  0  0  0.098721  0.118254  0  1.014368  0
H  H11  1  0.60147360  0.63667377  0.26273560  1  0  0.107106  0  0.94446  0  0  0.120161  0  1.01296  0  0  0.123021  0  1.011713  0  0  0.098765  0.117852  0  1.014154  0
H  H12  1  0.74593257  0.95120154  0.77251591  1  0  0.075429  0  0.976876  0  0  0.089699  0  1.044764  0  0  0.0908  0  1.045299  0  0  0.088179  0.088844  0  1.044633  0
H  H13  1  0.46948205  0.54860067  0.72753230  1  0  0.076156  0  0.977361  0  0  0.090145  0  1.045169  0  0  0.091297  0  1.045665  0  0  0.087766  0.089195  0  1.045198  0
H  H14  1  0.25406597  0.04879977  0.22748192  1  0  0.07543  0  0.976895  0  0  0.089655  0  1.044813  0  0  0.090787  0  1.04532  0  0  0.088171  0.088793  0  1.044686  0
H  H15  1  0.53051883  0.45139747  0.27246593  1  0  0.076134  0  0.977354  0  0  0.090099  0  1.045201  0  0  0.091253  0  1.045694  0  0  0.087739  0.08915  0  1.045223  0
H  H16  1  0.69709752  0.95397328  0.90587880  1  0  0.065543  0  0.972811  0  0  0.082132  0  1.036404  0  0  0.082571  0  1.037898  0  0  0.082051  0.081771  0  1.035431  0
H  H17  1  0.55703753  0.54561037  0.59417416  1  0  0.066958  0  0.971748  0  0  0.083441  0  1.035183  0  0  0.083903  0  1.036694  0  0  0.082004  0.083027  0  1.03424  0
H  H18  1  0.30290133  0.04602910  0.09411925  1  0  0.065564  0  0.972874  0  0  0.082159  0  1.036441  0  0  0.082602  0  1.037942  0  0  0.082058  0.081798  0  1.035469  0
H  H19  1  0.44296193  0.45439095  0.40582490  1  0  0.06695  0  0.971765  0  0  0.083432  0  1.035191  0  0  0.083894  0  1.036704  0  0  0.082012  0.083019  0  1.034248  0
H  H20  1  0.61371783  0.80619615  0.78793533  1  0  0.059378  0  0.966463  0  0  0.072276  0  1.035997  0  0  0.072298  0  1.037606  0  0  0.093029  0.071724  0  1.035662  0
H  H21  1  0.20777113  0.69377171  0.71192045  1  0  0.059851  0  0.967234  0  0  0.07269  0  1.036921  0  0  0.072706  0  1.038527  0  0  0.093189  0.072111  0  1.036642  0
H  H22  1  0.38628203  0.19380410  0.21206280  1  0  0.059367  0  0.966475  0  0  0.072287  0  1.036002  0  0  0.072309  0  1.03761  0  0  0.093048  0.071738  0  1.035665  0
H  H23  1  0.79222824  0.30622856  0.28808033  1  0  0.05984  0  0.967275  0  0  0.072666  0  1.036963  0  0  0.072681  0  1.038569  0  0  0.093189  0.072086  0  1.036685  0
H  H24  1  0.63689630  0.75893119  0.91258323  1  0  0.072484  0  0.975198  0  0  0.080488  0  1.052336  0  0  0.082423  0  1.050814  0  0  0.092017  0.079524  0  1.052217  0
H  H25  1  0.30870404  0.74092454  0.58731748  1  0  0.072748  0  0.973822  0  0  0.080513  0  1.051576  0  0  0.082532  0  1.049937  0  0  0.092121  0.079572  0  1.051431  0
H  H26  1  0.36310337  0.24107119  0.08741508  1  0  0.07244  0  0.97516  0  0  0.080467  0  1.052315  0  0  0.082394  0  1.050799  0  0  0.092009  0.079506  0  1.052196  0
H  H27  1  0.69129635  0.25907679  0.41268281  1  0  0.072777  0  0.973827  0  0  0.080533  0  1.051576  0  0  0.082552  0  1.049932  0  0  0.092132  0.079587  0  1.051439  0
H  H28  1  0.19982358  0.91484456  0.98286608  1  0  0.072391  0  0.964865  0  0  0.08726  0  1.031944  0  0  0.088261  0  1.031615  0  0  0.105047  0.086228  0  1.032836  0
H  H29  1  0.09761863  0.58540859  0.51692392  1  0  0.072595  0  0.96704  0  0  0.087601  0  1.0337  0  0  0.088578  0  1.033415  0  0  0.105382  0.086611  0  1.034439  0
H  H30  1  0.80017763  0.08515359  0.01713505  1  0  0.072411  0  0.964862  0  0  0.087282  0  1.031942  0  0  0.088275  0  1.031608  0  0  0.105046  0.086249  0  1.032834  0
H  H31  1  0.90237799  0.41459275  0.48307796  1  0  0.07257  0  0.967076  0  0  0.087533  0  1.033776  0  0  0.088508  0  1.033495  0  0  0.105367  0.086545  0  1.034516  0
H  H32  1  0.37589650  0.75319576  0.98522631  1  0  0.097754  0  0.921583  0  0  0.11183  0  0.983237  0  0  0.11346  0  0.982363  0  0  0.111505  0.111185  0  0.982793  0
H  H33  1  0.11443509  0.74700885  0.51469749  1  0  0.099527  0  0.920807  0  0  0.113547  0  0.982336  0  0  0.115113  0  0.98154  0  0  0.111893  0.112899  0  0.981878  0
H  H34  1  0.62410766  0.24680238  0.01477297  1  0  0.097763  0  0.921598  0  0  0.111869  0  0.983219  0  0  0.113493  0  0.982337  0  0  0.111519  0.111225  0  0.982774  0
H  H35  1  0.88556061  0.25299566  0.48530258  1  0  0.099492  0  0.92089  0  0  0.113534  0  0.982386  0  0  0.115097  0  0.981591  0  0  0.111878  0.112888  0  0.98193  0
H  H36  1  0.42705554  0.73537936  0.79891548  1  0  0.076316  0  0.961161  0  0  0.090647  0  1.029231  0  0  0.091561  0  1.029011  0  0  0.108216  0.089649  0  1.030166  0
H  H37  1  0.96161606  0.76450290  0.70102157  1  0  0.075875  0  0.9619  0  0  0.090535  0  1.029785  0  0  0.091479  0  1.029534  0  0  0.108067  0.089592  0  1.030633  0
H  H38  1  0.57294413  0.26461879  0.20108610  1  0  0.07635  0  0.961107  0  0  0.090664  0  1.029195  0  0  0.091577  0  1.028974  0  0  0.108197  0.089664  0  1.030133  0
H  H39  1  0.03838045  0.23549843  0.29897934  1  0  0.075894  0  0.961874  0  0  0.090578  0  1.029755  0  0  0.091523  0  1.02951  0  0  0.108085  0.089637  0  1.0306  0
H  H40  1  0.25533517  0.71352753  0.88071143  1  0  0.093033  0  0.937941  0  0  0.107134  0  1.001906  0  0  0.108522  0  1.001118  0  0  0.105864  0.106272  0  1.002162  0
H  H41  1  0.84967817  0.78643024  0.61933426  1  0  0.093229  0  0.93767  0  0  0.107332  0  1.001755  0  0  0.108728  0  1.000933  0  0  0.105778  0.106426  0  1.002051  0
H  H42  1  0.74466349  0.28647275  0.11929006  1  0  0.093063  0  0.937933  0  0  0.107164  0  1.001889  0  0  0.108553  0  1.0011  0  0  0.105863  0.106302  0  1.002144  0
H  H43  1  0.15031701  0.21356897  0.38066693  1  0  0.093221  0  0.937655  0  0  0.107342  0  1.001752  0  0  0.108743  0  1.000927  0  0  0.105804  0.106437  0  1.00205  0
H  H44  1  0.99986491  0.04044348  0.88653264  1  0  0.057718  0  0.953727  0  0  0.070942  0  1.024251  0  0  0.07193  0  1.02384  0  0  0.093092  0.069121  0  1.025958  0
H  H45  1  0.92700390  0.45937661  0.61349181  1  0  0.058081  0  0.95278  0  0  0.071139  0  1.0234  0  0  0.07212  0  1.023008  0  0  0.093207  0.06939  0  1.024945  0
H  H46  1  0.00013548  0.95955466  0.11346823  1  0  0.057699  0  0.953736  0  0  0.070919  0  1.024261  0  0  0.071906  0  1.023852  0  0  0.093077  0.069101  0  1.025969  0
H  H47  1  0.07299230  0.54062366  0.38650889  1  0  0.05811  0  0.952712  0  0  0.071129  0  1.023365  0  0  0.072108  0  1.022971  0  0  0.093209  0.06938  0  1.02491  0
H  H48  1  0.99357037  0.88493521  0.86307359  1  0  0.067923  0  0.966906  0  0  0.077648  0  1.043956  0  0  0.078575  0  1.044137  0  0  0.094684  0.076568  0  1.044426  0
H  H49  1  0.74186090  0.61507973  0.63685707  1  0  0.068224  0  0.966662  0  0  0.078299  0  1.042918  0  0  0.079232  0  1.043108  0  0  0.094966  0.077248  0  1.04331  0
H  H50  1  0.00643195  0.11506187  0.13692592  1  0  0.067953  0  0.966868  0  0  0.077666  0  1.043927  0  0  0.078593  0  1.044107  0  0  0.094701  0.076585  0  1.044398  0
H  H51  1  0.25813492  0.38492056  0.36314725  1  0  0.068224  0  0.966702  0  0  0.0783  0  1.042939  0  0  0.07923  0  1.043129  0  0  0.094968  0.077252  0  1.043332  0
H  H52  1  0.87268635  0.14179095  0.75235245  1  0  0.082701  0  0.940251  0  0  0.104141  0  0.990013  0  0  0.105194  0  0.990539  0  0  0.097295  0.103472  0  0.989464  0
H  H53  1  0.76662756  0.35839750  0.74773432  1  0  0.081439  0  0.941074  0  0  0.103329  0  0.990807  0  0  0.104405  0  0.991335  0  0  0.097199  0.102637  0  0.990291  0
H  H54  1  0.12731322  0.85820719  0.24764816  1  0  0.082689  0  0.940303  0  0  0.104178  0  0.990011  0  0  0.105235  0  0.990536  0  0  0.097322  0.103506  0  0.989467  0
H  H55  1  0.23337264  0.64160173  0.25226941  1  0  0.081471  0  0.941065  0  0  0.103374  0  0.990764  0  0  0.104447  0  0.991296  0  0  0.097213  0.102683  0  0.990253  0
H  H56  1  0.96706150  0.97858090  0.69508637  1  0  0.080816  0  0.946006  0  0  0.096096  0  1.009391  0  0  0.097542  0  1.009495  0  0  0.091075  0.095174  0  1.009134  0
H  H57  1  0.64065702  0.52171123  0.80487113  1  0  0.080701  0  0.945416  0  0  0.096013  0  1.00929  0  0  0.097485  0  1.009374  0  0  0.091085  0.095118  0  1.008997  0
H  H58  1  0.03294050  0.02141511  0.30491292  1  0  0.080835  0  0.945992  0  0  0.096101  0  1.009419  0  0  0.097545  0  1.009529  0  0  0.091092  0.09518  0  1.00916  0
H  H59  1  0.35934553  0.47828482  0.19513301  1  0  0.080682  0  0.945507  0  0  0.096007  0  1.009355  0  0  0.097479  0  1.00944  0  0  0.091083  0.095116  0  1.009059  0
H  H60  1  0.14908215  0.07401158  0.58591782  1  0  0.111557  0  0.969405  0  0  0.123404  0  1.034488  0  0  0.127693  0  1.031244  0  0  0.087192  0.12054  0  1.036086  0
H  H61  1  0.80866761  0.42634191  0.91412186  1  0  0.112067  0  0.969844  0  0  0.123375  0  1.035281  0  0  0.127711  0  1.031991  0  0  0.086991  0.120549  0  1.036851  0
H  H62  1  0.85091824  0.92598975  0.41408247  1  0  0.111569  0  0.96941  0  0  0.12341  0  1.034496  0  0  0.127699  0  1.031253  0  0  0.087191  0.120546  0  1.036088  0
H  H63  1  0.19133839  0.57365306  0.08588047  1  0  0.112115  0  0.9698  0  0  0.123416  0  1.035229  0  0  0.12776  0  1.031937  0  0  0.087012  0.12059  0  1.036796  0
H  H64  1  0.12037643  0.17750052  0.68101613  1  0  0.097368  0  0.958139  0  0  0.114194  0  1.021287  0  0  0.116739  0  1.021006  0  0  0.089948  0.111938  0  1.022531  0
H  H65  1  0.97857736  0.32248629  0.81918496  1  0  0.097976  0  0.958325  0  0  0.114607  0  1.02131  0  0  0.11717  0  1.021033  0  0  0.089841  0.11241  0  1.0225  0
H  H66  1  0.87962223  0.82249975  0.31898536  1  0  0.097377  0  0.958195  0  0  0.114204  0  1.021329  0  0  0.11675  0  1.021047  0  0  0.089952  0.111951  0  1.022569  0
H  H67  1  0.02142915  0.67751185  0.18081414  1  0  0.097976  0  0.958236  0  0  0.114598  0  1.021231  0  0  0.117169  0  1.020951  0  0  0.089829  0.1124  0  1.022418  0
C  C68  1  0.36307883  0.06576359  0.89336140  1  0  0.289059  0  3.656941  0  0  0.2663  0  3.943572  0  0  0.288647  0  3.952772  0  0  0.146263  0.251493  0  3.936402  0
C  C69  1  0.32206680  0.43422638  0.60655250  1  0  0.287759  0  3.659203  0  0  0.264693  0  3.945579  0  0  0.287002  0  3.954804  0  0  0.146025  0.249897  0  3.93851  0
C  C70  1  0.63691799  0.93424304  0.10663646  1  0  0.289109  0  3.657068  0  0  0.26642  0  3.943541  0  0  0.288765  0  3.952736  0  0  0.146342  0.251612  0  3.936365  0
C  C71  1  0.67793185  0.56577494  0.39344630  1  0  0.287729  0  3.659159  0  0  0.26465  0  3.945554  0  0  0.28697  0  3.954771  0  0  0.145982  0.249851  0  3.938479  0
C  C72  1  0.50292310  0.10159978  0.84136998  1  0  -0.208996  0  3.676452  0  0  -0.243177  0  3.916982  0  0  -0.248674  0  3.925851  0  0  -0.163546  -0.239491  0  3.911125  0
C  C73  1  0.44554749  0.39826046  0.65870362  1  0  -0.207113  0  3.676843  0  0  -0.241447  0  3.917664  0  0  -0.246969  0  3.926522  0  0  -0.163443  -0.237684  0  3.911603  0
C  C74  1  0.49707890  0.89840046  0.15862604  1  0  -0.209151  0  3.676458  0  0  -0.243302  0  3.916907  0  0  -0.248784  0  3.925765  0  0  -0.163614  -0.239599  0  3.91105  0
C  C75  1  0.55445257  0.60174086  0.34129376  1  0  -0.20708  0  3.676869  0  0  -0.241442  0  3.91771  0  0  -0.246967  0  3.926572  0  0  -0.16344  -0.237687  0  3.911655  0
C  C76  1  0.65096312  0.96161381  0.84364091  1  0  -0.107793  0  3.6387  0  0  -0.147644  0  3.888116  0  0  -0.148685  0  3.901371  0  0  -0.166363  -0.146733  0  3.879029  0
C  C77  1  0.45616517  0.53811879  0.65639572  1  0  -0.11213  0  3.639353  0  0  -0.151048  0  3.888151  0  0  -0.152225  0  3.90153  0  0  -0.166158  -0.150008  0  3.87902  0
C  C78  1  0.34903898  0.03838644  0.15635608  1  0  -0.107798  0  3.638801  0  0  -0.147603  0  3.888196  0  0  -0.148683  0  3.901457  0  0  -0.16634  -0.146693  0  3.879113  0
C  C79  1  0.54383246  0.46188466  0.34360298  1  0  -0.112024  0  3.639314  0  0  -0.150953  0  3.888105  0  0  -0.152139  0  3.901489  0  0  -0.166111  -0.149923  0  3.87897  0
C  C80  1  0.59027954  0.84779231  0.85972090  1  0  -0.007051  0  3.590847  0  0  -0.064033  0  3.843237  0  0  -0.061352  0  3.856133  0  0  -0.067149  -0.065217  0  3.833468  0
C  C81  1  0.29787562  0.65210193  0.64017068  1  0  -0.00669  0  3.588768  0  0  -0.064502  0  3.841544  0  0  -0.061869  0  3.854384  0  0  -0.067347  -0.065674  0  3.831776  0
C  C82  1  0.40971911  0.15220901  0.14027790  1  0  -0.006941  0  3.590747  0  0  -0.064003  0  3.843206  0  0  -0.061316  0  3.856124  0  0  -0.067163  -0.065185  0  3.833437  0
C  C83  1  0.70212345  0.34790046  0.35982930  1  0  -0.00678  0  3.588849  0  0  -0.064528  0  3.841517  0  0  -0.061886  0  3.854353  0  0  -0.067393  -0.065699  0  3.831746  0
C  C84  1  0.31888040  0.84558708  0.93752216  1  0  -0.01873  0  3.615116  0  0  -0.079261  0  3.866997  0  0  -0.075748  0  3.877347  0  0  -0.053042  -0.081373  0  3.859537  0
C  C85  1  0.10214578  0.65453910  0.56231559  1  0  -0.021786  0  3.619932  0  0  -0.083028  0  3.872059  0  0  -0.079465  0  3.882352  0  0  -0.053533  -0.085043  0  3.864439  0
C  C86  1  0.68111826  0.15441320  0.06247933  1  0  -0.018809  0  3.615191  0  0  -0.079369  0  3.867062  0  0  -0.075816  0  3.877357  0  0  -0.053089  -0.081479  0  3.859601  0
C  C87  1  0.89785023  0.34546329  0.43768528  1  0  -0.021694  0  3.620009  0  0  -0.082875  0  3.872108  0  0  -0.079306  0  3.882398  0  0  -0.053468  -0.084909  0  3.864506  0
C  C88  1  0.30699947  0.79087486  0.84983451  1  0  -0.024587  0  3.632346  0  0  -0.087226  0  3.888351  0  0  -0.083778  0  3.898969  0  0  -0.054364  -0.089919  0  3.881684  0
C  C89  1  0.94788293  0.70906817  0.65013261  1  0  -0.02461  0  3.632954  0  0  -0.087986  0  3.889004  0  0  -0.084566  0  3.899654  0  0  -0.05477  -0.090668  0  3.882245  0
C  C90  1  0.69300174  0.20912328  0.15016662  1  0  -0.024698  0  3.632425  0  0  -0.087321  0  3.888397  0  0  -0.083886  0  3.899012  0  0  -0.054384  -0.090016  0  3.881732  0
C  C91  1  0.05211276  0.29093316  0.34986805  1  0  -0.024522  0  3.632873  0  0  -0.087996  0  3.889042  0  0  -0.084584  0  3.899691  0  0  -0.054751  -0.090675  0  3.882286  0
C  C92  1  0.03630984  0.96736554  0.82824058  1  0  -0.006728  0  3.612524  0  0  -0.06815  0  3.873197  0  0  -0.064591  0  3.884231  0  0  -0.062378  -0.070433  0  3.866632  0
C  C93  1  0.83212349  0.53261130  0.67171503  1  0  -0.008807  0  3.609719  0  0  -0.069994  0  3.87037  0  0  -0.066452  0  3.881425  0  0  -0.063096  -0.072269  0  3.863754  0
C  C94  1  0.96369054  0.03263260  0.17176030  1  0  -0.006726  0  3.612505  0  0  -0.06814  0  3.873161  0  0  -0.064581  0  3.884194  0  0  -0.062363  -0.070425  0  3.866596  0
C  C95  1  0.16787548  0.46738686  0.32828726  1  0  -0.008819  0  3.609708  0  0  -0.069966  0  3.87032  0  0  -0.066413  0  3.881358  0  0  -0.063112  -0.072242  0  3.863713  0
C  C96  1  0.98520387  0.04599998  0.73418363  1  0  -0.110705  0  3.645085  0  0  -0.150845  0  3.902394  0  0  -0.151829  0  3.91389  0  0  -0.158576  -0.149955  0  3.893644  0
C  C97  1  0.76530892  0.45416508  0.76581661  1  0  -0.107309  0  3.640855  0  0  -0.149063  0  3.89977  0  0  -0.150061  0  3.911361  0  0  -0.15843  -0.148214  0  3.89109  0
C  C98  1  0.01479855  0.95399710  0.26581685  1  0  -0.110748  0  3.645093  0  0  -0.15093  0  3.90243  0  0  -0.15192  0  3.913931  0  0  -0.158655  -0.150045  0  3.893681  0
C  C99  1  0.23469381  0.54583306  0.23418408  1  0  -0.10735  0  3.640856  0  0  -0.149126  0  3.899733  0  0  -0.150124  0  3.91133  0  0  -0.158413  -0.148289  0  3.891059  0
C  C100  1  0.12880867  0.07555370  0.66713777  1  0  -0.207647  0  3.686557  0  0  -0.244982  0  3.929551  0  0  -0.250359  0  3.937604  0  0  -0.16519  -0.241073  0  3.924556  0
C  C101  1  0.87129087  0.42454186  0.83290810  1  0  -0.210731  0  3.686954  0  0  -0.246493  0  3.92964  0  0  -0.252059  0  3.937905  0  0  -0.165261  -0.242625  0  3.924684  0
C  C102  1  0.87119243  0.92444444  0.33286239  1  0  -0.20766  0  3.686643  0  0  -0.244986  0  3.929625  0  0  -0.250362  0  3.937679  0  0  -0.165181  -0.241069  0  3.924616  0
C  C103  1  0.12871441  0.57545416  0.16709225  1  0  -0.210757  0  3.68683  0  0  -0.246485  0  3.929408  0  0  -0.252078  0  3.937705  0  0  -0.165261  -0.242601  0  3.924438  0
C  C104  1  0.26778684  0.95955346  0.69996693  1  0  0.280941  0  3.625311  0  0  0.260501  0  3.908318  0  0  0.283881  0  3.916146  0  0  0.142241  0.24429  0  3.902626  0
C  C105  1  0.92751658  0.54031234  0.79997904  1  0  0.282313  0  3.626005  0  0  0.260916  0  3.909166  0  0  0.284408  0  3.91688  0  0  0.14227  0.244719  0  3.903631  0
C  C106  1  0.73221417  0.04044681  0.30003437  1  0  0.280984  0  3.625282  0  0  0.260537  0  3.908267  0  0  0.283914  0  3.916101  0  0  0.142261  0.244327  0  3.902566  0
C  C107  1  0.07248678  0.45968475  0.20002267  1  0  0.282325  0  3.626069  0  0  0.26097  0  3.909135  0  0  0.284468  0  3.916856  0  0  0.142278  0.244774  0  3.903597  0
S  S108  1  0.16958394  0.18288352  0.93154318  1  0  -0.375437  0  2.320077  0  0  -0.36541  0  2.725342  0  0  -0.378791  0  2.711535  0  0  -0.185998  -0.354816  0  2.734136  0
S  S109  1  0.28382396  0.31717471  0.56836166  1  0  -0.375014  0  2.321916  0  0  -0.365018  0  2.727241  0  0  -0.378382  0  2.713421  0  0  -0.185557  -0.35434  0  2.736002  0
S  S110  1  0.83041809  0.81711463  0.06845822  1  0  -0.375492  0  2.319999  0  0  -0.365483  0  2.725219  0  0  -0.378868  0  2.711407  0  0  -0.186041  -0.354891  0  2.734015  0
S  S111  1  0.71617093  0.68282981  0.43163815  1  0  -0.374997  0  2.321852  0  0  -0.364981  0  2.727158  0  0  -0.378358  0  2.713349  0  0  -0.185521  -0.354304  0  2.735917  0
S  S112  1  0.00686383  0.59137747  0.86482458  1  0  -0.329211  0  2.562415  0  0  -0.320396  0  3.011195  0  0  -0.325515  0  2.985848  0  0  -0.189184  -0.319316  0  3.028978  0
S  S113  1  0.46306794  0.90846988  0.63510281  1  0  -0.328698  0  2.561225  0  0  -0.320125  0  3.009945  0  0  -0.325222  0  2.984649  0  0  -0.189134  -0.318964  0  3.02758  0
S  S114  1  0.99313780  0.40862175  0.13517775  1  0  -0.329229  0  2.562394  0  0  -0.320429  0  3.011131  0  0  -0.32555  0  2.985788  0  0  -0.18917  -0.319352  0  3.028916  0
S  S115  1  0.53693175  0.09153145  0.36489819  1  0  -0.328702  0  2.561261  0  0  -0.320146  0  3.009997  0  0  -0.325236  0  2.984701  0  0  -0.189123  -0.318986  0  3.027634  0
N  N116  1  0.41579429  0.92466030  0.90234435  1  0  -0.11271  0  3.409642  0  0  -0.017367  0  3.629263  0  0  -0.035411  0  3.653665  0  0  -0.256518  -0.005517  0  3.612327  0
N  N117  1  0.24294741  0.57534618  0.59744188  1  0  -0.111424  0  3.41173  0  0  -0.014388  0  3.629502  0  0  -0.032335  0  3.653795  0  0  -0.256991  -0.002718  0  3.612697  0
N  N118  1  0.58420630  0.07533891  0.09765577  1  0  -0.112635  0  3.409852  0  0  -0.017306  0  3.62947  0  0  -0.03536  0  3.653859  0  0  -0.256468  -0.005455  0  3.612532  0
N  N119  1  0.75704962  0.42465728  0.40255850  1  0  -0.111452  0  3.411767  0  0  -0.014434  0  3.629529  0  0  -0.032387  0  3.653816  0  0  -0.257033  -0.002756  0  3.61272  0
N  N120  1  0.21208554  0.90174485  0.78988877  1  0  -0.119397  0  3.41955  0  0  -0.025495  0  3.639887  0  0  -0.042521  0  3.663532  0  0  -0.260531  -0.013458  0  3.623844  0
N  N121  1  0.90399636  0.59814197  0.71005067  1  0  -0.1185  0  3.417654  0  0  -0.023422  0  3.636588  0  0  -0.04041  0  3.660181  0  0  -0.259301  -0.011532  0  3.620627  0
N  N122  1  0.78791576  0.09825435  0.21011064  1  0  -0.119372  0  3.419692  0  0  -0.025449  0  3.639981  0  0  -0.042473  0  3.66363  0  0  -0.260518  -0.013411  0  3.623937  0
N  N123  1  0.09600414  0.40185618  0.28995117  1  0  -0.118582  0  3.417697  0  0  -0.023516  0  3.636632  0  0  -0.040505  0  3.660221  0  0  -0.259359  -0.011627  0  3.620676  0
Cl  Cl124  1  0.36882892  0.43441413  0.93374048  1  0  -0.587556  0  1.001838  0  0  -0.522591  0  1.273484  0  0  -0.540346  0  1.252879  0  0  -0.33366  -0.510187  0  1.285271  0
Cl  Cl125  1  0.73685248  0.06565850  0.56627380  1  0  -0.587695  0  1.001254  0  0  -0.522622  0  1.27284  0  0  -0.540356  0  1.252171  0  0  -0.333707  -0.510322  0  1.284662  0
Cl  Cl126  1  0.63117116  0.56558614  0.06625960  1  0  -0.587543  0  1.001853  0  0  -0.522555  0  1.273484  0  0  -0.540306  0  1.252878  0  0  -0.333655  -0.510152  0  1.285269  0
Cl  Cl127  1  0.26314771  0.93434177  0.43372725  1  0  -0.587694  0  1.001287  0  0  -0.522607  0  1.272857  0  0  -0.540351  0  1.252203  0  0  -0.333702  -0.510308  0  1.284681  0
