# generated using pymatgen
data_YbH6C6NO8
_symmetry_space_group_name_H-M   'P 1'
_cell_length_a   6.65200738
_cell_length_b   7.80677924
_cell_length_c   9.09370308
_cell_angle_alpha   95.94328862
_cell_angle_beta   110.69701976
_cell_angle_gamma   94.49273903
_symmetry_Int_Tables_number   1
_chemical_formula_structural   YbH6C6NO8
_chemical_formula_sum   'Yb2 H12 C12 N2 O16'
_cell_volume   436.02602978
_cell_formula_units_Z   2
loop_
 _symmetry_equiv_pos_site_id
 _symmetry_equiv_pos_as_xyz
  1  'x, y, z'
loop_
 _atom_site_type_symbol
 _atom_site_label
 _atom_site_symmetry_multiplicity
 _atom_site_fract_x
 _atom_site_fract_y
 _atom_site_fract_z
 _atom_site_occupancy
 _atom_site_hle17_bader_spin_density
 _atom_site_hle17_ddec_charge
 _atom_site_hle17_ddec_spin_density
 _atom_site_hle17_ddec_sum_bond_order
 _atom_site_hle17_magmom
 _atom_site_hse06_10hf_bader_spin_density
 _atom_site_hse06_10hf_ddec_charge
 _atom_site_hse06_10hf_ddec_spin_density
 _atom_site_hse06_10hf_ddec_sum_bond_order
 _atom_site_hse06_10hf_magmom
 _atom_site_hse06_bader_spin_density
 _atom_site_hse06_ddec_charge
 _atom_site_hse06_ddec_spin_density
 _atom_site_hse06_ddec_sum_bond_order
 _atom_site_hse06_magmom
 _atom_site_pbe_bader_spin_density
 _atom_site_pbe_cm5_charge
 _atom_site_pbe_ddec_charge
 _atom_site_pbe_ddec_spin_density
 _atom_site_pbe_ddec_sum_bond_order
 _atom_site_pbe_magmom
Yb  Yb0  1  0.37635258  0.76401368  0.21465511  1  0  2.190459  0  1.79232  0  0  2.135249  0  2.10737  0  0  2.178129  0  2.067144  0  0  1.595131  2.089324  0  2.147263  0
Yb  Yb1  1  0.62364410  0.23598545  0.78534527  1  0  2.190467  0  1.792217  0  0  2.135182  0  2.107367  0  0  2.178127  0  2.067033  0  0  1.595171  2.089279  0  2.147217  0
H  H2  1  0.24219682  0.74272364  0.61561953  1  0  0.126934  0  0.882302  0  0  0.139781  0  0.937761  0  0  0.142222  0  0.936175  0  0  0.131981  0.137697  0  0.939658  0
H  H3  1  0.75780532  0.25727536  0.38437970  1  0  0.126936  0  0.882314  0  0  0.139785  0  0.937784  0  0  0.142223  0  0.936197  0  0  0.131983  0.137702  0  0.939679  0
H  H4  1  0.02996165  0.77164139  0.43940756  1  0  0.129953  0  0.924593  0  0  0.140766  0  0.983612  0  0  0.143406  0  0.982468  0  0  0.130583  0.138189  0  0.985622  0
H  H5  1  0.97004060  0.22835890  0.56059168  1  0  0.12995  0  0.924577  0  0  0.140792  0  0.983563  0  0  0.143427  0  0.98242  0  0  0.130588  0.138197  0  0.985593  0
H  H6  1  0.97729684  0.16215658  0.22741951  1  0  0.129629  0  0.918748  0  0  0.13956  0  0.980433  0  0  0.141428  0  0.979667  0  0  0.1248  0.137541  0  0.982243  0
H  H7  1  0.02270865  0.83784631  0.77257976  1  0  0.129653  0  0.918681  0  0  0.139561  0  0.980363  0  0  0.141445  0  0.979607  0  0  0.124817  0.137543  0  0.982171  0
H  H8  1  0.22541421  0.28769112  0.26160203  1  0  0.139846  0  0.9047  0  0  0.15233  0  0.959801  0  0  0.155388  0  0.957665  0  0  0.135242  0.149459  0  0.962666  0
H  H9  1  0.77459268  0.71230843  0.73840078  1  0  0.139876  0  0.904699  0  0  0.152289  0  0.959842  0  0  0.155361  0  0.957722  0  0  0.13523  0.14942  0  0.962705  0
H  H10  1  0.93397431  0.57484821  0.09514135  1  0  0.433508  0  0.859744  0  0  0.409794  0  0.913607  0  0  0.418278  0  0.901081  0  0  0.310906  0.402431  0  0.924209  0
H  H11  1  0.06602341  0.42515204  0.90485786  1  0  0.43353  0  0.859695  0  0  0.409788  0  0.913634  0  0  0.418275  0  0.901102  0  0  0.310888  0.402422  0  0.924241  0
H  H12  1  0.89423855  0.77134078  0.11837852  1  0  0.452932  0  0.834335  0  0  0.425101  0  0.891855  0  0  0.435707  0  0.876262  0  0  0.306054  0.415749  0  0.905527  0
H  H13  1  0.10576184  0.22865983  0.88162307  1  0  0.452851  0  0.834425  0  0  0.42501  0  0.891967  0  0  0.435618  0  0.876372  0  0  0.306011  0.415658  0  0.905639  0
C  C14  1  0.15724073  0.53529554  0.42825417  1  0  0.577885  0  3.741899  0  0  0.528208  0  4.03879  0  0  0.55854  0  4.03509  0  0  0.271073  0.505765  0  4.041681  0
C  C15  1  0.84275376  0.46470211  0.57174501  1  0  0.577943  0  3.741718  0  0  0.528224  0  4.038692  0  0  0.558558  0  4.034987  0  0  0.271083  0.505782  0  4.04158  0
C  C16  1  0.09304003  0.67729849  0.52084133  1  0  -0.134426  0  3.636379  0  0  -0.193436  0  3.890928  0  0  -0.193997  0  3.897827  0  0  -0.039318  -0.194142  0  3.888754  0
C  C17  1  0.90696269  0.32270069  0.47915909  1  0  -0.134436  0  3.636319  0  0  -0.193477  0  3.890913  0  0  -0.194012  0  3.897763  0  0  -0.039312  -0.194171  0  3.888746  0
C  C18  1  0.12337865  0.23195200  0.32100180  1  0  -0.161386  0  3.578531  0  0  -0.217304  0  3.819394  0  0  -0.218126  0  3.825508  0  0  -0.048629  -0.218312  0  3.818837  0
C  C19  1  0.87662568  0.76804848  0.67899863  1  0  -0.161482  0  3.578539  0  0  -0.217241  0  3.819288  0  0  -0.218161  0  3.82552  0  0  -0.04868  -0.218248  0  3.818741  0
C  C20  1  0.24738566  0.10416941  0.42515246  1  0  0.780288  0  3.779735  0  0  0.739055  0  4.076902  0  0  0.772524  0  4.064917  0  0  0.248664  0.712724  0  4.085891  0
C  C21  1  0.75261272  0.89583444  0.57485386  1  0  0.780286  0  3.779806  0  0  0.738996  0  4.077015  0  0  0.772507  0  4.065003  0  0  0.248657  0.71265  0  4.086029  0
C  C22  1  0.61085054  0.96681802  0.01713900  1  0  0.556736  0  3.936606  0  0  0.512174  0  4.245041  0  0  0.541203  0  4.23438  0  0  0.212888  0.489837  0  4.251067  0
C  C23  1  0.38915714  0.03318839  0.98285793  1  0  0.556617  0  3.9366  0  0  0.512158  0  4.2449  0  0  0.541189  0  4.234234  0  0  0.212789  0.489821  0  4.250924  0
C  C24  1  0.41413834  0.52540081  0.92568277  1  0  0.54538  0  3.964315  0  0  0.503795  0  4.269089  0  0  0.532189  0  4.25931  0  0  0.201958  0.481853  0  4.274936  0
C  C25  1  0.58585976  0.47459696  0.07430816  1  0  0.545529  0  3.964313  0  0  0.503805  0  4.269283  0  0  0.53219  0  4.25952  0  0  0.202045  0.481861  0  4.275131  0
N  N26  1  0.06543282  0.37281645  0.41009421  1  0  -0.129358  0  3.436731  0  0  -0.050318  0  3.670221  0  0  -0.069358  0  3.691519  0  0  -0.253831  -0.038567  0  3.657815  0
N  N27  1  0.93456943  0.62718384  0.58990503  1  0  -0.129405  0  3.436625  0  0  -0.050389  0  3.670117  0  0  -0.069411  0  3.691443  0  0  -0.253857  -0.038638  0  3.657714  0
O  O28  1  0.29465598  0.57562927  0.36739055  1  0  -0.675249  0  2.080987  0  0  -0.646906  0  2.345711  0  0  -0.668458  0  2.334325  0  0  -0.388628  -0.626256  0  2.350024  0
O  O29  1  0.70534523  0.42437195  0.63260632  1  0  -0.675271  0  2.081017  0  0  -0.646884  0  2.345731  0  0  -0.668459  0  2.334366  0  0  -0.388623  -0.626239  0  2.350042  0
O  O30  1  0.26122411  0.96021419  0.35487690  1  0  -0.741162  0  2.102655  0  0  -0.706506  0  2.365728  0  0  -0.730583  0  2.352425  0  0  -0.413255  -0.684292  0  2.37218  0
O  O31  1  0.73876879  0.03977797  0.64511988  1  0  -0.741079  0  2.102747  0  0  -0.706413  0  2.365853  0  0  -0.73048  0  2.352487  0  0  -0.413225  -0.684195  0  2.372303  0
O  O32  1  0.32495374  0.14846894  0.57424985  1  0  -0.739495  0  2.084241  0  0  -0.708465  0  2.347917  0  0  -0.73145  0  2.334344  0  0  -0.424962  -0.686622  0  2.354607  0
O  O33  1  0.67504402  0.85152711  0.42574698  1  0  -0.739559  0  2.084163  0  0  -0.708528  0  2.347854  0  0  -0.73151  0  2.334266  0  0  -0.424964  -0.686677  0  2.354561  0
O  O34  1  0.27518703  0.98008261  0.05768027  1  0  -0.623542  0  2.069947  0  0  -0.59179  0  2.316997  0  0  -0.612451  0  2.306973  0  0  -0.37092  -0.573461  0  2.322036  0
O  O35  1  0.72481401  0.01992161  0.94232844  1  0  -0.62355  0  2.070161  0  0  -0.591743  0  2.317239  0  0  -0.612411  0  2.307209  0  0  -0.370926  -0.573421  0  2.322276  0
O  O36  1  0.66067186  0.86259690  0.11958323  1  0  -0.663295  0  2.103273  0  0  -0.617646  0  2.337275  0  0  -0.642229  0  2.329028  0  0  -0.343919  -0.598055  0  2.341943  0
O  O37  1  0.33933259  0.13740281  0.88042075  1  0  -0.663265  0  2.103445  0  0  -0.617616  0  2.337393  0  0  -0.642205  0  2.329145  0  0  -0.34388  -0.598026  0  2.342061  0
O  O38  1  0.27642481  0.61743683  0.95097344  1  0  -0.684552  0  2.102645  0  0  -0.645121  0  2.344723  0  0  -0.668355  0  2.336703  0  0  -0.373234  -0.625669  0  2.348398  0
O  O39  1  0.72356907  0.38256485  0.04902693  1  0  -0.684559  0  2.1029  0  0  -0.645103  0  2.345072  0  0  -0.66834  0  2.337057  0  0  -0.373261  -0.625654  0  2.348746  0
O  O40  1  0.58003740  0.53083481  0.20730024  1  0  -0.616606  0  2.049023  0  0  -0.588444  0  2.299261  0  0  -0.608282  0  2.289532  0  0  -0.36158  -0.57116  0  2.304113  0
O  O41  1  0.41995278  0.46916538  0.79269892  1  0  -0.616529  0  2.049192  0  0  -0.588414  0  2.299407  0  0  -0.608258  0  2.289669  0  0  -0.361546  -0.571135  0  2.304257  0
O  O42  1  0.99803235  0.30564362  0.89313813  1  0  -0.894454  0  1.887414  0  0  -0.85978  0  2.074767  0  0  -0.875656  0  2.043643  0  0  -0.650961  -0.843933  0  2.098395  0
O  O43  1  0.00196606  0.69435809  0.10686227  1  0  -0.894527  0  1.887433  0  0  -0.859879  0  2.074781  0  0  -0.875744  0  2.043666  0  0  -0.65103  -0.844031  0  2.098414  0
