# generated using pymatgen
data_ZnH10C11(N2O)2
_symmetry_space_group_name_H-M   'P 1'
_cell_length_a   9.43359626
_cell_length_b   9.79441764
_cell_length_c   19.91102837
_cell_angle_alpha   100.03576200
_cell_angle_beta   103.70756230
_cell_angle_gamma   90.01611982
_symmetry_Int_Tables_number   1
_chemical_formula_structural   ZnH10C11(N2O)2
_chemical_formula_sum   'Zn4 H40 C44 N16 O8'
_cell_volume   1758.30184747
_cell_formula_units_Z   4
loop_
 _symmetry_equiv_pos_site_id
 _symmetry_equiv_pos_as_xyz
  1  'x, y, z'
loop_
 _atom_site_type_symbol
 _atom_site_label
 _atom_site_symmetry_multiplicity
 _atom_site_fract_x
 _atom_site_fract_y
 _atom_site_fract_z
 _atom_site_occupancy
 _atom_site_pbe_bader_charge
 _atom_site_pbe_bader_spin_density
 _atom_site_pbe_cm5_charge
 _atom_site_pbe_ddec_charge
 _atom_site_pbe_ddec_spin_density
 _atom_site_pbe_ddec_sum_bond_order
 _atom_site_pbe_magmom
Zn  Zn0  1  0.97628326  0.91008914  0.57238042  1  1.226418  0  0.719513  0.708856  0  2.476499  0
Zn  Zn1  1  0.40395825  0.59010835  0.42770291  1  1.226986  0  0.719149  0.708527  0  2.474744  0
Zn  Zn2  1  0.02371786  0.08991412  0.42761936  1  1.22656  0  0.719548  0.708883  0  2.476452  0
Zn  Zn3  1  0.59604281  0.40989283  0.57229782  1  1.226971  0  0.719153  0.708504  0  2.474774  0
H  H4  1  0.16984703  0.69444204  0.60168209  1  0.095139  0  0.106199  0.160494  0  0.998991  0
H  H5  1  0.30994033  0.60855473  0.56902950  1  0.127356  0  0.103757  0.171856  0  1.027753  0
H  H6  1  0.12565963  0.54992347  0.53120403  1  0.048446  0  0.097052  0.142116  0  0.996293  0
H  H7  1  0.16018687  0.94187487  0.32830351  1  0.08658  0  0.104343  0.158382  0  1.004524  0
H  H8  1  0.25368587  0.78253602  0.31669316  1  0.115182  0  0.106769  0.170574  0  1.01636  0
H  H9  1  0.34879028  0.93430676  0.36903319  1  0.071926  0  0.104608  0.15497  0  0.981395  0
H  H10  1  0.41421961  0.13177557  0.77865566  1  0.101146  0  0.102625  0.107084  0  1.009444  0
H  H11  1  0.08452868  0.83600016  0.78653893  1  0.099159  0  0.102941  0.105285  0  1.011666  0
H  H12  1  0.20522275  0.83451229  0.91339172  1  0.068497  0  0.108987  0.111112  0  0.989988  0
H  H13  1  0.53664953  0.12778353  0.90511383  1  0.076946  0  0.101649  0.098859  0  1.048719  0
H  H14  1  0.56918212  0.80526979  0.39823836  1  0.092713  0  0.106041  0.160735  0  0.997215  0
H  H15  1  0.74213011  0.89080634  0.43109055  1  0.142992  0  0.103517  0.171459  0  1.028025  0
H  H16  1  0.59563977  0.94993734  0.46872058  1  0.05363  0  0.096998  0.142159  0  0.994626  0
H  H17  1  0.83240737  0.55801914  0.67188312  1  0.080644  0  0.104111  0.157816  0  1.003672  0
H  H18  1  0.93757645  0.71731835  0.68334363  1  0.117498  0  0.106749  0.170667  0  1.016038  0
H  H19  1  0.98003362  0.56553256  0.63099085  1  0.090333  0  0.104727  0.155324  0  0.982852  0
H  H20  1  0.63547247  0.36857191  0.22148516  1  0.10263  0  0.102509  0.106559  0  1.010927  0
H  H21  1  0.29776862  0.66404987  0.21336407  1  0.071764  0  0.103087  0.105216  0  1.011836  0
H  H22  1  0.29162601  0.66526897  0.08651492  1  0.09221  0  0.109276  0.111613  0  0.990552  0
H  H23  1  0.63154835  0.37238291  0.09504537  1  0.09778  0  0.101616  0.098722  0  1.049048  0
H  H24  1  0.83015251  0.30555706  0.39831919  1  0.095145  0  0.106179  0.160476  0  0.998999  0
H  H25  1  0.69005972  0.39144645  0.43097022  1  0.12734  0  0.10379  0.171898  0  1.027799  0
H  H26  1  0.87434043  0.45007771  0.46879568  1  0.048413  0  0.097045  0.142104  0  0.996317  0
H  H27  1  0.83981056  0.05812217  0.67169557  1  0.086936  0  0.104334  0.158389  0  1.004523  0
H  H28  1  0.74631256  0.21746101  0.68330693  1  0.115201  0  0.106739  0.170564  0  1.016359  0
H  H29  1  0.65120604  0.06568821  0.63096469  1  0.071953  0  0.104633  0.154981  0  0.981347  0
H  H30  1  0.58577906  0.86822665  0.22134491  1  0.101193  0  0.102615  0.107086  0  1.009339  0
H  H31  1  0.91547137  0.16399999  0.21346182  1  0.099112  0  0.102939  0.105279  0  1.011715  0
H  H32  1  0.79478269  0.16548889  0.08660902  1  0.068573  0  0.108976  0.11109  0  0.990004  0
H  H33  1  0.46335724  0.87221558  0.09488597  1  0.076998  0  0.101627  0.098823  0  1.048808  0
H  H34  1  0.43082129  0.19472931  0.60176243  1  0.092656  0  0.106087  0.160837  0  0.997232  0
H  H35  1  0.25787380  0.10919276  0.56891074  1  0.14301  0  0.103517  0.171447  0  1.027982  0
H  H36  1  0.40436120  0.05006177  0.53127995  1  0.053932  0  0.096983  0.142142  0  0.994664  0
H  H37  1  0.16759844  0.44197997  0.32811680  1  0.080442  0  0.104136  0.157809  0  1.00372  0
H  H38  1  0.06242738  0.28267972  0.31665644  1  0.11748  0  0.106743  0.170663  0  1.016028  0
H  H39  1  0.01997168  0.43446551  0.36900959  1  0.090412  0  0.104697  0.155302  0  0.982793  0
H  H40  1  0.36451864  0.63142512  0.77851416  1  0.102574  0  0.102508  0.106551  0  1.010892  0
H  H41  1  0.70222951  0.33595236  0.78663487  1  0.071736  0  0.103113  0.105267  0  1.011838  0
H  H42  1  0.70837466  0.33473533  0.91348446  1  0.092257  0  0.109266  0.111617  0  0.990497  0
H  H43  1  0.36844520  0.62761412  0.90495421  1  0.097908  0  0.101601  0.098687  0  1.049025  0
C  C44  1  0.18389648  0.73912782  0.50264665  1  0.96474  0  0.225422  0.402052  0  3.991944  0
C  C45  1  0.20192680  0.83842076  0.41595833  1  0.993501  0  0.228104  0.406572  0  3.970234  0
C  C46  1  0.19839635  0.64299772  0.55344115  1  -0.055059  0  -0.23666  -0.482909  0  3.924534  0
C  C47  1  0.24278492  0.87636184  0.35378678  1  -0.082703  0  -0.231717  -0.479988  0  3.910249  0
C  C48  1  0.17420573  0.98545726  0.69926630  1  1.533361  0  0.198066  0.561007  0  4.224055  0
C  C49  1  0.24343334  0.98271209  0.77487475  1  -0.064524  0  -0.014402  -0.026816  0  3.955124  0
C  C50  1  0.37077592  0.06572121  0.80852632  1  0.011551  0  -0.079629  -0.077772  0  3.961457  0
C  C51  1  0.18374354  0.89907992  0.81263424  1  -0.043964  0  -0.085635  -0.091055  0  3.986064  0
C  C52  1  0.25024305  0.89770114  0.88273136  1  0.018343  0  -0.078436  -0.138238  0  3.956122  0
C  C53  1  0.43850259  0.06380608  0.87818022  1  -0.021  0  -0.082117  -0.136278  0  3.940254  0
C  C54  1  0.37887128  0.97864771  0.91563367  1  0.312911  0  0.089503  0.17289  0  4.032759  0
C  C55  1  0.68171622  0.76067238  0.49742601  1  0.977012  0  0.225733  0.402478  0  3.992901  0
C  C56  1  0.78625162  0.66142624  0.58415909  1  0.972288  0  0.228241  0.406464  0  3.973022  0
C  C57  1  0.64588483  0.85666166  0.44655396  1  -0.072159  0  -0.236503  -0.482942  0  3.921812  0
C  C58  1  0.88937671  0.62348668  0.64630484  1  -0.088204  0  -0.231563  -0.480054  0  3.910987  0
C  C59  1  0.47488001  0.51495083  0.30079879  1  1.544218  0  0.19769  0.559301  0  4.225441  0
C  C60  1  0.46846147  0.51756198  0.22517963  1  -0.060357  0  -0.014331  -0.025308  0  3.951717  0
C  C61  1  0.56212967  0.43451596  0.19156437  1  0.005195  0  -0.079124  -0.076699  0  3.960787  0
C  C62  1  0.37095059  0.60099819  0.18732550  1  -0.021169  0  -0.085894  -0.091802  0  3.985249  0
C  C63  1  0.36738642  0.60224195  0.11721622  1  -0.013047  0  -0.078695  -0.13894  0  3.957689  0
C  C64  1  0.56026936  0.43633691  0.12191249  1  -0.084225  0  -0.082189  -0.137059  0  3.941  0
C  C65  1  0.46319039  0.52136222  0.08437603  1  0.369492  0  0.089032  0.173447  0  4.034763  0
C  C66  1  0.81610688  0.26087129  0.49735301  1  0.964859  0  0.225427  0.402127  0  3.991978  0
C  C67  1  0.79807320  0.16157938  0.58404130  1  0.993503  0  0.228073  0.406575  0  3.970282  0
C  C68  1  0.80160229  0.35700451  0.44655829  1  -0.055061  0  -0.236678  -0.48294  0  3.924527  0
C  C69  1  0.75721352  0.12363623  0.64621227  1  -0.083082  0  -0.231721  -0.480023  0  3.910173  0
C  C70  1  0.82579780  0.01456056  0.30072894  1  1.532782  0  0.198119  0.560934  0  4.223457  0
C  C71  1  0.75656237  0.01728805  0.22512711  1  -0.064359  0  -0.014539  -0.026924  0  3.955468  0
C  C72  1  0.62922865  0.93428309  0.19147369  1  0.01186  0  -0.079632  -0.077778  0  3.961568  0
C  C73  1  0.81625910  0.10092437  0.18736602  1  -0.044038  0  -0.085574  -0.091006  0  3.985764  0
C  C74  1  0.74975787  0.10229797  0.11726804  1  0.018227  0  -0.078438  -0.138215  0  3.956136  0
C  C75  1  0.56150082  0.93619303  0.12182056  1  -0.021494  0  -0.082067  -0.136175  0  3.940288  0
C  C76  1  0.62113365  0.02135347  0.08436656  1  0.31304  0  0.089494  0.172864  0  4.032749  0
C  C77  1  0.31828857  0.23932569  0.50257393  1  0.977049  0  0.225726  0.402397  0  3.99307  0
C  C78  1  0.21375174  0.33857183  0.41584161  1  0.9723  0  0.228283  0.406483  0  3.973078  0
C  C79  1  0.35411958  0.14333744  0.55344783  1  -0.072482  0  -0.236474  -0.48296  0  3.921747  0
C  C80  1  0.11062914  0.37651346  0.35369517  1  -0.088074  0  -0.231567  -0.480053  0  3.910997  0
C  C81  1  0.52511434  0.48505347  0.69920083  1  1.544377  0  0.197613  0.559108  0  4.225619  0
C  C82  1  0.53153310  0.48243609  0.77481991  1  -0.060425  0  -0.014225  -0.025017  0  3.95135  0
C  C83  1  0.43786149  0.56548211  0.80843504  1  0.005292  0  -0.079075  -0.076683  0  3.960577  0
C  C84  1  0.62904515  0.39900507  0.81267327  1  -0.021138  0  -0.085975  -0.092005  0  3.985434  0
C  C85  1  0.63261318  0.39776028  0.88278309  1  -0.013011  0  -0.078682  -0.138928  0  3.957595  0
C  C86  1  0.43972568  0.56366116  0.87808643  1  -0.084494  0  -0.082267  -0.137128  0  3.941048  0
C  C87  1  0.53680570  0.47863793  0.91562296  1  0.369548  0  0.089069  0.173508  0  4.034705  0
N  N88  1  0.09751019  0.84698049  0.50323028  1  -0.809347  0  -0.260923  -0.255892  0  3.508128  0
N  N89  1  0.10894045  0.90988033  0.44817014  1  -0.807681  0  -0.262569  -0.257882  0  3.51361  0
N  N90  1  0.25168315  0.73059381  0.44885142  1  -1.23167  0  -0.35225  -0.432133  0  3.393017  0
N  N91  1  0.43863207  0.96813582  0.98650231  1  -0.509192  0  -0.148015  -0.134484  0  3.275549  0
N  N92  1  0.59458458  0.65290950  0.49684423  1  -0.807548  0  -0.261207  -0.25743  0  3.510728  0
N  N93  1  0.66094465  0.59004782  0.55195100  1  -0.79733  0  -0.262017  -0.256103  0  3.514332  0
N  N94  1  0.80326243  0.76917899  0.55124531  1  -1.246505  0  -0.352681  -0.432551  0  3.395062  0
N  N95  1  0.45212320  0.53184083  0.01349460  1  -0.46609  0  -0.147735  -0.134555  0  3.277796  0
N  N96  1  0.90249079  0.15301966  0.49676922  1  -0.809564  0  -0.260916  -0.255949  0  3.508172  0
N  N97  1  0.89106071  0.09012293  0.55183077  1  -0.807676  0  -0.262583  -0.257878  0  3.513593  0
N  N98  1  0.74831690  0.26940738  0.55114830  1  -1.2317  0  -0.352226  -0.432139  0  3.393066  0
N  N99  1  0.56137231  0.03186433  0.01349732  1  -0.463574  0  -0.147979  -0.134454  0  3.275548  0
N  N100  1  0.40541781  0.34708856  0.50315658  1  -0.807583  0  -0.261245  -0.257427  0  3.510775  0
N  N101  1  0.33905682  0.40995128  0.44805003  1  -0.797316  0  -0.262009  -0.256085  0  3.514286  0
N  N102  1  0.19674139  0.23081908  0.44875476  1  -1.246467  0  -0.352694  -0.432522  0  3.395228  0
N  N103  1  0.54787492  0.46816035  0.98650536  1  -0.510545  0  -0.147691  -0.134559  0  3.277788  0
O  O104  1  0.05655240  0.90430558  0.67163458  1  -1.175078  0  -0.344279  -0.573504  0  2.365285  0
O  O105  1  0.22699425  0.05995978  0.66579681  1  -1.174014  0  -0.322762  -0.544815  0  2.13733  0
O  O106  1  0.38513640  0.59632010  0.32846004  1  -1.17662  0  -0.343546  -0.572424  0  2.366379  0
O  O107  1  0.56101312  0.44034960  0.33429336  1  -1.181616  0  -0.32317  -0.544966  0  2.136205  0
O  O108  1  0.94343894  0.09569456  0.32836728  1  -1.175442  0  -0.344124  -0.57315  0  2.365704  0
O  O109  1  0.77298271  0.94003823  0.33421347  1  -1.173215  0  -0.32297  -0.545142  0  2.135874  0
O  O110  1  0.61486163  0.40367901  0.67153973  1  -1.17655  0  -0.343532  -0.572398  0  2.366316  0
O  O111  1  0.43898867  0.55964640  0.66570677  1  -1.181839  0  -0.323119  -0.544858  0  2.136509  0
