# generated using pymatgen
data_Cd3H10C10N15Cl
_symmetry_space_group_name_H-M   'P 1'
_cell_length_a   10.46796582
_cell_length_b   13.36858566
_cell_length_c   17.54366711
_cell_angle_alpha   90.00006603
_cell_angle_beta   107.36187129
_cell_angle_gamma   89.99996483
_symmetry_Int_Tables_number   1
_chemical_formula_structural   Cd3H10C10N15Cl
_chemical_formula_sum   'Cd12 H40 C40 N60 Cl4'
_cell_volume   2343.23782209
_cell_formula_units_Z   4
loop_
 _symmetry_equiv_pos_site_id
 _symmetry_equiv_pos_as_xyz
  1  'x, y, z'
loop_
 _atom_site_type_symbol
 _atom_site_label
 _atom_site_symmetry_multiplicity
 _atom_site_fract_x
 _atom_site_fract_y
 _atom_site_fract_z
 _atom_site_occupancy
 _atom_site_pbe_bader_charge
 _atom_site_pbe_bader_spin_density
 _atom_site_pbe_cm5_charge
 _atom_site_pbe_ddec_charge
 _atom_site_pbe_ddec_spin_density
 _atom_site_pbe_ddec_sum_bond_order
 _atom_site_pbe_magmom
Cd  Cd0  1  0.43056287  0.52371115  0.86129311  1  1.196753  0  0.811559  0.70643  0  2.360197  0
Cd  Cd1  1  0.35841251  0.75463227  0.71657760  1  1.215813  0  0.734458  0.676875  0  2.455065  0
Cd  Cd2  1  0.31592557  0.01500573  0.63172410  1  1.211006  0  0.691779  0.706993  0  2.497328  0
Cd  Cd3  1  0.26501261  0.27296115  0.53036039  1  1.212466  0  0.726886  0.714049  0  2.430748  0
Cd  Cd4  1  0.56943899  0.02371227  0.13870856  1  1.196758  0  0.811546  0.706359  0  2.360243  0
Cd  Cd5  1  0.64158624  0.25463208  0.28342145  1  1.215827  0  0.734456  0.676879  0  2.455047  0
Cd  Cd6  1  0.68407629  0.51500673  0.36827699  1  1.211012  0  0.691777  0.706994  0  2.497284  0
Cd  Cd7  1  0.73498714  0.77296078  0.46963942  1  1.212462  0  0.72688  0.714028  0  2.430815  0
Cd  Cd8  1  0.89539509  0.24514973  0.79091034  1  1.199898  0  0.797343  0.707016  0  2.31821  0
Cd  Cd9  1  0.10460567  0.74515076  0.20908962  1  1.199924  0  0.79734  0.706985  0  2.318207  0
Cd  Cd10  1  0.98503164  0.78626093  0.96998666  1  1.231488  0  0.779247  0.678165  0  2.428099  0
Cd  Cd11  1  0.01496812  0.28626142  0.03001373  1  1.231497  0  0.779253  0.678145  0  2.42813  0
H  H12  1  0.21362539  0.61473138  0.96937480  1  0.124373  0  0.126494  0.088137  0  1.016995  0
H  H13  1  0.08906661  0.82740298  0.78604013  1  0.123405  0  0.129763  0.094746  0  0.990669  0
H  H14  1  0.59482595  0.68225050  0.60890433  1  0.138448  0  0.121215  0.092583  0  1.012733  0
H  H15  1  0.54630985  0.97559187  0.51953458  1  0.122954  0  0.125458  0.090941  0  1.003978  0
H  H16  1  0.00236807  0.33680948  0.62494731  1  0.120764  0  0.131908  0.100316  0  0.97876  0
H  H17  1  0.10224515  0.06626335  0.75133234  1  0.122703  0  0.123759  0.08617  0  1.013943  0
H  H18  1  0.61067948  0.40136002  0.76898860  1  0.114182  0  0.126427  0.084981  0  1.027696  0
H  H19  1  0.69865368  0.39021914  0.01847808  1  0.136658  0  0.134094  0.104469  0  0.978707  0
H  H20  1  0.78637443  0.11473074  0.03062545  1  0.124375  0  0.126508  0.088133  0  1.016985  0
H  H21  1  0.91093112  0.32740406  0.21395823  1  0.123365  0  0.129754  0.094743  0  0.990678  0
H  H22  1  0.40517283  0.18225059  0.39109523  1  0.138474  0  0.121201  0.092576  0  1.012762  0
H  H23  1  0.45368882  0.47559208  0.48046522  1  0.122958  0  0.125471  0.09098  0  1.003999  0
H  H24  1  0.99762965  0.83681108  0.37505163  1  0.121276  0  0.131911  0.100371  0  0.97876  0
H  H25  1  0.89775969  0.56626182  0.24866989  1  0.122659  0  0.123766  0.086172  0  1.013982  0
H  H26  1  0.38932221  0.90136020  0.23100938  1  0.114238  0  0.126408  0.084937  0  1.027751  0
H  H27  1  0.30134401  0.89021975  0.98151919  1  0.136612  0  0.134133  0.104471  0  0.978646  0
H  H28  1  0.24432127  0.11458127  0.03055956  1  0.12823  0  0.126517  0.088026  0  1.016583  0
H  H29  1  0.30298476  0.32733689  0.21382915  1  0.121971  0  0.129492  0.0948  0  0.991084  0
H  H30  1  0.98529578  0.18232151  0.39110021  1  0.14203  0  0.121193  0.092438  0  1.013094  0
H  H31  1  0.02674662  0.47570064  0.48034416  1  0.119496  0  0.125897  0.092158  0  1.003365  0
H  H32  1  0.37784095  0.83684489  0.37502333  1  0.116942  0  0.131896  0.099853  0  0.979406  0
H  H33  1  0.35084847  0.56624400  0.24872826  1  0.112944  0  0.124132  0.086458  0  1.014315  0
H  H34  1  0.84154384  0.90118805  0.23098042  1  0.111193  0  0.126538  0.084806  0  1.02835  0
H  H35  1  0.68055267  0.89043359  0.98146469  1  0.133949  0  0.13416  0.104594  0  0.978688  0
H  H36  1  0.75567753  0.61458239  0.96943880  1  0.128261  0  0.126532  0.088012  0  1.016626  0
H  H37  1  0.69701697  0.82733776  0.78617162  1  0.121884  0  0.129498  0.094787  0  0.991104  0
H  H38  1  0.01470302  0.68232245  0.60890163  1  0.14209  0  0.121211  0.092453  0  1.013075  0
H  H39  1  0.97325405  0.97569948  0.51965542  1  0.119518  0  0.125881  0.092163  0  1.003362  0
H  H40  1  0.62215979  0.33684598  0.62497785  1  0.116926  0  0.131891  0.099848  0  0.979455  0
H  H41  1  0.64915236  0.06624527  0.75127098  1  0.113009  0  0.12417  0.086512  0  1.014334  0
H  H42  1  0.15845487  0.40118808  0.76901932  1  0.111195  0  0.126537  0.084799  0  1.028341  0
H  H43  1  0.31944706  0.39043241  0.01853692  1  0.133916  0  0.134159  0.104582  0  0.978699  0
H  H44  1  0.35596085  0.34498908  0.71242633  1  0.106575  0  0.130368  0.095201  0  1.001809  0
H  H45  1  0.27170002  0.57646148  0.54361939  1  0.118446  0  0.134607  0.099416  0  0.971667  0
H  H46  1  0.64403787  0.84498848  0.28757279  1  0.106539  0  0.130395  0.095247  0  1.001865  0
H  H47  1  0.72829980  0.07646301  0.45637854  1  0.118474  0  0.134625  0.099444  0  0.971637  0
H  H48  1  0.02559927  0.01565614  0.05140783  1  0.136599  0  0.133126  0.10135  0  0.984504  0
H  H49  1  0.90129215  0.98045788  0.80273963  1  0.104406  0  0.133824  0.097051  0  0.978354  0
H  H50  1  0.97439858  0.51565638  0.94859256  1  0.136542  0  0.133115  0.101299  0  0.984522  0
H  H51  1  0.09870852  0.48045708  0.19725995  1  0.104409  0  0.133832  0.097084  0  0.97833  0
C  C52  1  0.20401636  0.65874722  0.91606051  1  0.954584  0  0.123532  0.124404  0  4.034221  0
C  C53  1  0.14033132  0.76622824  0.82341695  1  0.957421  0  0.13063  0.137744  0  3.999745  0
C  C54  1  0.56237319  0.75943219  0.59740766  1  0.938088  0  0.124187  0.1273  0  4.009293  0
C  C55  1  0.53880588  0.90787718  0.55205122  1  0.955223  0  0.124815  0.127704  0  4.017832  0
C  C56  1  0.04841493  0.26554989  0.64733974  1  0.916492  0  0.12389  0.122834  0  4.01172  0
C  C57  1  0.09757489  0.12846287  0.71081474  1  0.9723  0  0.123846  0.127222  0  4.013345  0
C  C58  1  0.65974203  0.38696736  0.83173118  1  0.997516  0  0.125697  0.132077  0  4.018953  0
C  C59  1  0.70406566  0.38150314  0.95792898  1  0.984174  0  0.131301  0.133145  0  3.994024  0
C  C60  1  0.79598344  0.15874741  0.08393977  1  0.954591  0  0.123545  0.124429  0  4.034206  0
C  C61  1  0.85966844  0.26622854  0.17658285  1  0.957229  0  0.130603  0.1377  0  3.999652  0
C  C62  1  0.43762355  0.25943303  0.40258990  1  0.938048  0  0.124195  0.127312  0  4.009441  0
C  C63  1  0.46119282  0.40787658  0.44794852  1  0.955092  0  0.124749  0.127611  0  4.017892  0
C  C64  1  0.95158582  0.76555073  0.35265966  1  0.916006  0  0.123866  0.122758  0  4.01178  0
C  C65  1  0.90242693  0.62846214  0.28918644  1  0.972239  0  0.123845  0.127234  0  4.013335  0
C  C66  1  0.34025667  0.88696747  0.16826626  1  0.997239  0  0.125612  0.131923  0  4.019121  0
C  C67  1  0.29593204  0.88150308  0.04206943  1  0.984427  0  0.131287  0.13313  0  3.993878  0
C  C68  1  0.28797801  0.15865776  0.08384922  1  0.960855  0  0.125158  0.126794  0  4.030464  0
C  C69  1  0.31694522  0.26616434  0.17647166  1  0.966105  0  0.130905  0.137914  0  4.00132  0
C  C70  1  0.96446628  0.25953688  0.40255886  1  0.946976  0  0.123664  0.125087  0  4.010011  0
C  C71  1  0.98659554  0.40801035  0.44783497  1  0.958458  0  0.123111  0.123526  0  4.019084  0
C  C72  1  0.40143541  0.76556807  0.35264613  1  0.90493  0  0.124062  0.123604  0  4.013758  0
C  C73  1  0.38683179  0.62841963  0.28925050  1  0.97964  0  0.123457  0.12632  0  4.015866  0
C  C74  1  0.82795563  0.88687983  0.16823973  1  0.989094  0  0.125445  0.132327  0  4.016304  0
C  C75  1  0.74647618  0.88164659  0.04201543  1  0.9744  0  0.131006  0.133066  0  3.992672  0
C  C76  1  0.71202378  0.65865883  0.91615028  1  0.960849  0  0.125132  0.126867  0  4.030459  0
C  C77  1  0.68305352  0.76616453  0.82352683  1  0.966045  0  0.130939  0.138011  0  4.001294  0
C  C78  1  0.03553448  0.75953704  0.59744112  1  0.946926  0  0.123668  0.125127  0  4.009898  0
C  C79  1  0.01340517  0.90800971  0.55216569  1  0.958475  0  0.123127  0.123555  0  4.019101  0
C  C80  1  0.59856435  0.26556920  0.64735368  1  0.904918  0  0.124035  0.123592  0  4.013757  0
C  C81  1  0.61317002  0.12842086  0.71074954  1  0.979596  0  0.123478  0.126334  0  4.015891  0
C  C82  1  0.17204508  0.38687921  0.83176034  1  0.989107  0  0.125427  0.132325  0  4.016227  0
C  C83  1  0.25352454  0.38164762  0.95798521  1  0.974386  0  0.130972  0.13301  0  3.992805  0
C  C84  1  0.34207611  0.41833190  0.68455819  1  0.970171  0  0.119874  0.109219  0  4.05872  0
C  C85  1  0.29956331  0.53505474  0.59947366  1  0.930034  0  0.128745  0.131556  0  4.005209  0
C  C86  1  0.65792258  0.91832984  0.31544099  1  0.97013  0  0.119869  0.10917  0  4.058886  0
C  C87  1  0.70043753  0.03505620  0.40052499  1  0.930171  0  0.128742  0.131609  0  4.00511  0
C  C88  1  0.99377350  0.03095741  0.98771356  1  0.935592  0  0.127847  0.122826  0  4.022736  0
C  C89  1  0.93107325  0.01273700  0.86229570  1  0.964331  0  0.128434  0.123355  0  4.032079  0
C  C90  1  0.00622636  0.53095745  0.01228719  1  0.935673  0  0.127873  0.122927  0  4.02276  0
C  C91  1  0.06892660  0.51273645  0.13770447  1  0.964329  0  0.128421  0.123305  0  4.032092  0
N  N92  1  0.28101509  0.64649381  0.86862930  1  -0.765117  0  -0.267641  -0.210543  0  3.494984  0
N  N93  1  0.24015145  0.71562076  0.80876272  1  -0.738205  0  -0.25522  -0.19332  0  3.429415  0
N  N94  1  0.11359758  0.73298918  0.89012026  1  -1.231769  0  -0.367458  -0.336196  0  3.493961  0
N  N95  1  0.47383213  0.80385877  0.62741264  1  -0.758835  0  -0.262781  -0.207347  0  3.463034  0
N  N96  1  0.45876485  0.89948667  0.59819108  1  -0.747715  0  -0.262634  -0.205074  0  3.465666  0
N  N97  1  0.60642366  0.82202664  0.54999247  1  -1.229044  0  -0.369083  -0.334982  0  3.511593  0
N  N98  1  0.14505075  0.22343469  0.62301799  1  -0.744516  0  -0.251411  -0.207214  0  3.425223  0
N  N99  1  0.17581681  0.13510600  0.66361501  1  -0.756579  0  -0.254755  -0.191256  0  3.451028  0
N  N100  1  0.01497812  0.20866509  0.70272516  1  -1.216409  0  -0.371714  -0.349259  0  3.508856  0
N  N101  1  0.77674500  0.34014864  0.85891285  1  -0.764297  0  -0.262987  -0.212028  0  3.466823  0
N  N102  1  0.80568437  0.33667936  0.94034958  1  -0.799144  0  -0.256882  -0.206364  0  3.437491  0
N  N103  1  0.60981837  0.41429566  0.89148213  1  -1.247182  0  -0.367963  -0.336468  0  3.497103  0
N  N104  1  0.71898471  0.14649336  0.13137041  1  -0.765142  0  -0.267645  -0.210524  0  3.495057  0
N  N105  1  0.75984732  0.21562187  0.19123630  1  -0.737927  0  -0.255199  -0.193267  0  3.429303  0
N  N106  1  0.88640218  0.23299011  0.10987894  1  -1.231804  0  -0.367477  -0.336208  0  3.493893  0
N  N107  1  0.52616660  0.30385952  0.37258587  1  -0.758839  0  -0.262813  -0.207388  0  3.463024  0
N  N108  1  0.54123486  0.39948671  0.40180883  1  -0.747694  0  -0.262609  -0.205022  0  3.465614  0
N  N109  1  0.39357306  0.32202683  0.45000571  1  -1.228939  0  -0.369013  -0.334948  0  3.511724  0
N  N110  1  0.85495003  0.72343637  0.37698253  1  -0.744525  0  -0.251382  -0.207181  0  3.425149  0
N  N111  1  0.82418500  0.63510613  0.33638618  1  -0.756548  0  -0.254749  -0.19125  0  3.450994  0
N  N112  1  0.98502366  0.70866583  0.29727552  1  -1.216396  0  -0.371723  -0.349278  0  3.508868  0
N  N113  1  0.22325572  0.84014802  0.14108547  1  -0.764329  0  -0.262942  -0.211958  0  3.466944  0
N  N114  1  0.19431535  0.83667863  0.05964914  1  -0.799429  0  -0.256891  -0.206318  0  3.43745  0
N  N115  1  0.39017931  0.91429566  0.10851516  1  -1.246857  0  -0.367911  -0.336342  0  3.496892  0
N  N116  1  0.41240296  0.14640666  0.13128459  1  -0.772284  0  -0.267959  -0.210877  0  3.491602  0
N  N117  1  0.43143049  0.21555687  0.19113427  1  -0.745004  0  -0.255497  -0.193683  0  3.431133  0
N  N118  1  0.22350775  0.23291921  0.10977429  1  -1.235011  0  -0.368141  -0.337681  0  3.495141  0
N  N119  1  0.84598227  0.30404795  0.37258961  1  -0.764451  0  -0.262981  -0.206322  0  3.463147  0
N  N120  1  0.86034449  0.39969010  0.40176893  1  -0.755553  0  -0.261107  -0.201419  0  3.467035  0
N  N121  1  0.05610003  0.32208152  0.44991072  1  -1.230412  0  -0.368168  -0.332691  0  3.511749  0
N  N122  1  0.52233052  0.72337661  0.37696085  1  -0.729691  0  -0.251368  -0.206754  0  3.425806  0
N  N123  1  0.51231926  0.63500298  0.33641194  1  -0.767025  0  -0.255123  -0.190847  0  3.455089  0
N  N124  1  0.31246527  0.70870190  0.29731056  1  -1.210789  0  -0.371357  -0.349121  0  3.509565  0
N  N125  1  0.91787565  0.84007604  0.14114005  1  -0.777188  0  -0.263162  -0.212365  0  3.464879  0
N  N126  1  0.86562882  0.83673009  0.05968956  1  -0.765299  0  -0.256502  -0.2059  0  3.437173  0
N  N127  1  0.71845870  0.91434645  0.10841292  1  -1.245982  0  -0.367702  -0.336591  0  3.4953  0
N  N128  1  0.58759784  0.64640547  0.86871472  1  -0.772256  0  -0.267955  -0.210876  0  3.491515  0
N  N129  1  0.56856929  0.71555560  0.80886492  1  -0.7449  0  -0.255527  -0.193762  0  3.431141  0
N  N130  1  0.77649201  0.73292020  0.89022491  1  -1.23502  0  -0.368161  -0.337788  0  3.495243  0
N  N131  1  0.15401748  0.80404810  0.62741136  1  -0.764454  0  -0.26297  -0.206311  0  3.463086  0
N  N132  1  0.13965622  0.89968946  0.59823173  1  -0.755581  0  -0.261144  -0.201483  0  3.467113  0
N  N133  1  0.94389871  0.82208192  0.55008952  1  -1.230417  0  -0.368155  -0.332717  0  3.511658  0
N  N134  1  0.47766925  0.22337702  0.62303949  1  -0.729682  0  -0.251345  -0.206732  0  3.425754  0
N  N135  1  0.48768255  0.13500345  0.66358868  1  -0.766986  0  -0.255144  -0.190843  0  3.455053  0
N  N136  1  0.68753651  0.20870307  0.70268955  1  -1.210833  0  -0.371402  -0.349221  0  3.50964  0
N  N137  1  0.08212509  0.34007475  0.85886056  1  -0.777288  0  -0.263213  -0.212453  0  3.464927  0
N  N138  1  0.13437292  0.33673114  0.94031123  1  -0.765176  0  -0.256446  -0.20583  0  3.437238  0
N  N139  1  0.28154101  0.41434586  0.89158758  1  -1.245988  0  -0.367652  -0.3365  0  3.495286  0
N  N140  1  0.36280744  0.50382938  0.72585060  1  -0.797922  0  -0.273191  -0.213604  0  3.480534  0
N  N141  1  0.33531932  0.57999895  0.67085001  1  -0.718068  0  -0.250661  -0.208417  0  3.376908  0
N  N142  1  0.30220828  0.43360048  0.60487848  1  -1.224587  0  -0.357117  -0.343958  0  3.414906  0
N  N143  1  0.63718941  0.00382544  0.27414903  1  -0.797917  0  -0.273197  -0.213518  0  3.480756  0
N  N144  1  0.66467849  0.07999733  0.32914701  1  -0.718006  0  -0.250677  -0.208524  0  3.377031  0
N  N145  1  0.69779242  0.93360076  0.39512220  1  -1.224758  0  -0.357119  -0.343971  0  3.414855  0
N  N146  1  0.93789376  0.11136225  0.87597585  1  -0.793193  0  -0.265334  -0.20275  0  3.462375  0
N  N147  1  0.97865880  0.12330972  0.95748786  1  -0.73703  0  -0.248184  -0.211969  0  3.369649  0
N  N148  1  0.96520575  0.95906827  0.93056629  1  -1.216488  0  -0.361267  -0.337944  0  3.469956  0
N  N149  1  0.06210705  0.61136169  0.12402457  1  -0.792962  0  -0.265326  -0.20275  0  3.462273  0
N  N150  1  0.02134102  0.62330905  0.04251297  1  -0.737251  0  -0.248196  -0.211973  0  3.369639  0
N  N151  1  0.03479394  0.45906805  0.06943424  1  -1.216511  0  -0.361285  -0.337974  0  3.46999  0
Cl  Cl152  1  0.39031596  0.94140674  0.78051357  1  -0.70051  0  -0.400553  -0.570927  0  1.051513  0
Cl  Cl153  1  0.23901604  0.08489335  0.47821066  1  -0.694756  0  -0.375828  -0.552129  0  1.07067  0
Cl  Cl154  1  0.60968472  0.44140722  0.21948598  1  -0.700517  0  -0.400566  -0.570946  0  1.051507  0
Cl  Cl155  1  0.76098379  0.58489380  0.52178957  1  -0.694765  0  -0.375814  -0.552116  0  1.070672  0
