# generated using pymatgen
data_CuH5C6SO
_symmetry_space_group_name_H-M   'P 1'
_cell_length_a   3.99016520
_cell_length_b   5.32089698
_cell_length_c   27.18265525
_cell_angle_alpha   90.00138167
_cell_angle_beta   90.00058704
_cell_angle_gamma   90.00059174
_symmetry_Int_Tables_number   1
_chemical_formula_structural   CuH5C6SO
_chemical_formula_sum   'Cu4 H20 C24 S4 O4'
_cell_volume   577.12196553
_cell_formula_units_Z   4
loop_
 _symmetry_equiv_pos_site_id
 _symmetry_equiv_pos_as_xyz
  1  'x, y, z'
loop_
 _atom_site_type_symbol
 _atom_site_label
 _atom_site_symmetry_multiplicity
 _atom_site_fract_x
 _atom_site_fract_y
 _atom_site_fract_z
 _atom_site_occupancy
 _atom_site_hle17_bader_spin_density
 _atom_site_hle17_ddec_charge
 _atom_site_hle17_ddec_spin_density
 _atom_site_hle17_ddec_sum_bond_order
 _atom_site_hle17_magmom
 _atom_site_hse06_10hf_bader_spin_density
 _atom_site_hse06_10hf_ddec_charge
 _atom_site_hse06_10hf_ddec_spin_density
 _atom_site_hse06_10hf_ddec_sum_bond_order
 _atom_site_hse06_10hf_magmom
 _atom_site_hse06_bader_spin_density
 _atom_site_hse06_ddec_charge
 _atom_site_hse06_ddec_spin_density
 _atom_site_hse06_ddec_sum_bond_order
 _atom_site_hse06_magmom
 _atom_site_pbe_bader_spin_density
 _atom_site_pbe_cm5_charge
 _atom_site_pbe_ddec_charge
 _atom_site_pbe_ddec_spin_density
 _atom_site_pbe_ddec_sum_bond_order
 _atom_site_pbe_magmom
Cu  Cu0  1  0.50972525  0.24265214  0.98151129  1  0  0.346596  0  2.035354  0  0  0.284148  0  2.504051  0  0  0.282856  0  2.458515  0  0  0.327443  0.285493  0  2.535846  0
Cu  Cu1  1  0.49028546  0.25735245  0.48149192  1  0  0.346658  0  2.035317  0  0  0.284349  0  2.504163  0  0  0.282996  0  2.458697  0  0  0.327475  0.28572  0  2.535943  0
Cu  Cu2  1  0.99034495  0.74265121  0.01850709  1  0  0.346591  0  2.035447  0  0  0.284129  0  2.50421  0  0  0.282785  0  2.45876  0  0  0.327416  0.28549  0  2.535986  0
Cu  Cu3  1  0.00974665  0.75735836  0.51848865  1  0  0.34662  0  2.035274  0  0  0.284298  0  2.504098  0  0  0.28298  0  2.458538  0  0  0.3275  0.285664  0  2.535894  0
H  H4  1  0.78523921  0.35623599  0.85325226  1  0  0.108142  0  0.964159  0  0  0.12134  0  1.021232  0  0  0.123938  0  1.020592  0  0  0.102637  0.119511  0  1.021714  0
H  H5  1  0.21476249  0.14378997  0.35324253  1  0  0.108151  0  0.964023  0  0  0.121369  0  1.021074  0  0  0.123919  0  1.020498  0  0  0.10257  0.119531  0  1.021562  0
H  H6  1  0.71475287  0.85623206  0.14675762  1  0  0.108168  0  0.964432  0  0  0.121403  0  1.021407  0  0  0.123971  0  1.020808  0  0  0.102601  0.11958  0  1.021879  0
H  H7  1  0.28526502  0.64375049  0.64675133  1  0  0.108262  0  0.964336  0  0  0.121447  0  1.021371  0  0  0.124032  0  1.020742  0  0  0.102651  0.119615  0  1.021863  0
H  H8  1  0.70898904  0.60103226  0.93029620  1  0  0.074839  0  1.001921  0  0  0.082994  0  1.07828  0  0  0.089009  0  1.070161  0  0  0.077643  0.078406  0  1.08456  0
H  H9  1  0.29103336  0.89898188  0.43028097  1  0  0.074912  0  1.001875  0  0  0.083024  0  1.078284  0  0  0.08904  0  1.070162  0  0  0.077665  0.078433  0  1.084569  0
H  H10  1  0.79110226  0.10101433  0.06971856  1  0  0.074872  0  1.001767  0  0  0.082994  0  1.078204  0  0  0.089016  0  1.070078  0  0  0.077607  0.078398  0  1.08449  0
H  H11  1  0.20899017  0.39900636  0.56969917  1  0  0.074757  0  1.001671  0  0  0.082926  0  1.078076  0  0  0.088946  0  1.069953  0  0  0.077607  0.078331  0  1.084368  0
H  H12  1  0.36449528  0.17338373  0.87357983  1  0  0.087737  0  0.975905  0  0  0.098218  0  1.042059  0  0  0.101115  0  1.039918  0  0  0.094096  0.096144  0  1.043578  0
H  H13  1  0.63549702  0.32665245  0.37356184  1  0  0.0878  0  0.975758  0  0  0.098283  0  1.041904  0  0  0.101186  0  1.039721  0  0  0.094118  0.096215  0  1.043436  0
H  H14  1  0.13553118  0.67335541  0.12643571  1  0  0.08772  0  0.975645  0  0  0.098211  0  1.041805  0  0  0.10112  0  1.039605  0  0  0.094109  0.09614  0  1.043343  0
H  H15  1  0.86446855  0.82667706  0.62641937  1  0  0.08758  0  0.976481  0  0  0.098111  0  1.042501  0  0  0.101024  0  1.040312  0  0  0.094114  0.096015  0  1.04408  0
H  H16  1  0.42644103  0.93519245  0.79542574  1  0  0.11185  0  0.940134  0  0  0.123149  0  0.998237  0  0  0.126755  0  0.996346  0  0  0.103103  0.120513  0  0.999772  0
H  H17  1  0.57353399  0.56482973  0.29541509  1  0  0.112064  0  0.940132  0  0  0.123327  0  0.998245  0  0  0.12693  0  0.996357  0  0  0.103218  0.120689  0  0.99978  0
H  H18  1  0.07351688  0.43517080  0.20458409  1  0  0.111949  0  0.940005  0  0  0.123269  0  0.998086  0  0  0.126873  0  0.996199  0  0  0.10315  0.120636  0  0.999613  0
H  H19  1  0.92643247  0.06478921  0.70457882  1  0  0.111769  0  0.940102  0  0  0.123119  0  0.998175  0  0  0.126725  0  0.996287  0  0  0.10306  0.120489  0  0.999709  0
H  H20  1  0.35125089  0.52198498  0.75842965  1  0  0.381212  0  0.914142  0  0  0.35284  0  0.986048  0  0  0.363893  0  0.974054  0  0  0.305231  0.345113  0  0.994346  0
H  H21  1  0.64866622  0.97801705  0.25842687  1  0  0.381065  0  0.914297  0  0  0.352583  0  0.986391  0  0  0.363637  0  0.974403  0  0  0.305117  0.344852  0  0.994685  0
H  H22  1  0.14868420  0.02195933  0.24157063  1  0  0.381243  0  0.914112  0  0  0.352781  0  0.986165  0  0  0.363839  0  0.974172  0  0  0.305195  0.345052  0  0.994458  0
H  H23  1  0.85127044  0.47798511  0.74157659  1  0  0.3812  0  0.913982  0  0  0.352782  0  0.985985  0  0  0.363838  0  0.974  0  0  0.305164  0.345049  0  0.994283  0
C  C24  1  0.11228835  0.62777995  0.82020232  1  0  0.310945  0  3.812647  0  0  0.301096  0  4.077308  0  0  0.310818  0  4.094283  0  0  0.069502  0.294368  0  4.065816  0
C  C25  1  0.88768455  0.87221188  0.32019658  1  0  0.310303  0  3.812659  0  0  0.300694  0  4.076974  0  0  0.310425  0  4.093937  0  0  0.069328  0.293973  0  4.065463  0
C  C26  1  0.38769621  0.12774900  0.17980242  1  0  0.310677  0  3.813053  0  0  0.301102  0  4.077324  0  0  0.310834  0  4.094287  0  0  0.069458  0.294379  0  4.065826  0
C  C27  1  0.61227030  0.37221318  0.67979653  1  0  0.310861  0  3.812058  0  0  0.301061  0  4.076719  0  0  0.310784  0  4.09369  0  0  0.069567  0.294338  0  4.065226  0
C  C28  1  0.90831698  0.53692846  0.85795942  1  0  -0.180473  0  3.764005  0  0  -0.200251  0  4.012172  0  0  -0.205816  0  4.035015  0  0  -0.108118  -0.196518  0  3.9967  0
C  C29  1  0.09166747  0.96307833  0.35795491  1  0  -0.180172  0  3.764014  0  0  -0.200003  0  4.012035  0  0  -0.205528  0  4.034897  0  0  -0.107854  -0.196281  0  3.996586  0
C  C30  1  0.59169269  0.03689914  0.14204994  1  0  -0.180093  0  3.764092  0  0  -0.199937  0  4.012087  0  0  -0.205485  0  4.034957  0  0  -0.107781  -0.196203  0  3.996603  0
C  C31  1  0.40830488  0.46310258  0.64204130  1  0  -0.180664  0  3.764676  0  0  -0.200419  0  4.012801  0  0  -0.205981  0  4.035668  0  0  -0.108091  -0.196676  0  3.99731  0
C  C32  1  0.87067735  0.67331721  0.90113592  1  0  -0.090588  0  3.784978  0  0  -0.102178  0  4.021574  0  0  -0.104546  0  4.044333  0  0  -0.098934  -0.100254  0  4.006177  0
C  C33  1  0.12933753  0.82667018  0.40112650  1  0  -0.090711  0  3.785747  0  0  -0.102277  0  4.02235  0  0  -0.104646  0  4.045096  0  0  -0.099014  -0.100359  0  4.006948  0
C  C34  1  0.62934282  0.17332154  0.09887788  1  0  -0.090957  0  3.784901  0  0  -0.102532  0  4.021552  0  0  -0.104904  0  4.044312  0  0  -0.099086  -0.100626  0  4.006208  0
C  C35  1  0.37072207  0.32668456  0.59886896  1  0  -0.090458  0  3.785294  0  0  -0.102052  0  4.021827  0  0  -0.104441  0  4.044631  0  0  -0.098855  -0.100115  0  4.006397  0
C  C36  1  0.03896446  0.90166672  0.90744885  1  0  0.081138  0  3.757373  0  0  0.104157  0  3.99397  0  0  0.102301  0  4.021757  0  0  -0.02652  0.105063  0  3.975226  0
C  C37  1  0.96103815  0.59836764  0.40742602  1  0  0.081413  0  3.757751  0  0  0.104384  0  3.994422  0  0  0.102526  0  4.022225  0  0  -0.026425  0.105306  0  3.975651  0
C  C38  1  0.46106585  0.40164770  0.09256952  1  0  0.081286  0  3.757736  0  0  0.104288  0  3.994395  0  0  0.102428  0  4.022191  0  0  -0.026541  0.105234  0  3.975528  0
C  C39  1  0.53901630  0.09834901  0.59255972  1  0  0.081047  0  3.757904  0  0  0.104054  0  3.994543  0  0  0.102187  0  4.022346  0  0  -0.02664  0.104975  0  3.975782  0
C  C40  1  0.23496136  0.99498220  0.86881014  1  0  -0.084409  0  3.761983  0  0  -0.101836  0  4.007991  0  0  -0.103107  0  4.031172  0  0  -0.095367  -0.100723  0  3.99213  0
C  C41  1  0.76503579  0.50502916  0.36879266  1  0  -0.084494  0  3.762589  0  0  -0.101937  0  4.008655  0  0  -0.103187  0  4.031808  0  0  -0.095384  -0.100826  0  3.992772  0
C  C42  1  0.26505186  0.49495488  0.13120257  1  0  -0.084304  0  3.762234  0  0  -0.101781  0  4.008407  0  0  -0.103025  0  4.031559  0  0  -0.095394  -0.100692  0  3.992588  0
C  C43  1  0.73497310  0.00500280  0.63118550  1  0  -0.083801  0  3.763141  0  0  -0.101239  0  4.009093  0  0  -0.102494  0  4.032256  0  0  -0.095181  -0.100137  0  3.993238  0
C  C44  1  0.26948487  0.86125981  0.82493103  1  0  -0.195553  0  3.761145  0  0  -0.21755  0  4.018103  0  0  -0.222406  0  4.03807  0  0  -0.110226  -0.214316  0  4.004673  0
C  C45  1  0.73045815  0.63872919  0.32492059  1  0  -0.195493  0  3.761555  0  0  -0.217555  0  4.018445  0  0  -0.2224  0  4.038389  0  0  -0.110249  -0.214326  0  4.005023  0
C  C46  1  0.23049451  0.36124115  0.17507685  1  0  -0.195659  0  3.76137  0  0  -0.217794  0  4.018322  0  0  -0.222645  0  4.038269  0  0  -0.110231  -0.214564  0  4.004897  0
C  C47  1  0.76949184  0.13869753  0.67506350  1  0  -0.195635  0  3.760922  0  0  -0.217745  0  4.017986  0  0  -0.222608  0  4.037955  0  0  -0.110315  -0.214509  0  4.004545  0
S  S48  1  0.01082440  0.07042837  0.96414027  1  0  -0.399767  0  3.116448  0  0  -0.35541  0  3.677827  0  0  -0.355148  0  3.634022  0  0  -0.280955  -0.355551  0  3.708547  0
S  S49  1  0.98920305  0.42956776  0.46412277  1  0  -0.400214  0  3.116127  0  0  -0.355999  0  3.677786  0  0  -0.35571  0  3.633955  0  0  -0.281194  -0.356162  0  3.708527  0
S  S50  1  0.48924198  0.57043759  0.03587848  1  0  -0.400083  0  3.116461  0  0  -0.355722  0  3.677882  0  0  -0.355449  0  3.634072  0  0  -0.281106  -0.355879  0  3.708615  0
S  S51  1  0.51084540  0.92958420  0.53585743  1  0  -0.399903  0  3.115984  0  0  -0.355676  0  3.677557  0  0  -0.355384  0  3.633711  0  0  -0.281034  -0.355839  0  3.7083  0
O  O52  1  0.15103996  0.47559957  0.77943076  1  0  -0.551608  0  2.190251  0  0  -0.490611  0  2.404319  0  0  -0.50954  0  2.394195  0  0  -0.359503  -0.47714  0  2.410875  0
O  O53  1  0.84888377  0.02443695  0.27942172  1  0  -0.55134  0  2.189981  0  0  -0.490321  0  2.40393  0  0  -0.509279  0  2.393863  0  0  -0.359395  -0.476847  0  2.410468  0
O  O54  1  0.34887864  0.97557900  0.22057301  1  0  -0.551465  0  2.190392  0  0  -0.490486  0  2.404346  0  0  -0.509441  0  2.394267  0  0  -0.359436  -0.477012  0  2.410888  0
O  O55  1  0.65101674  0.52440613  0.72057788  1  0  -0.551585  0  2.189732  0  0  -0.490622  0  2.403789  0  0  -0.509555  0  2.393669  0  0  -0.359517  -0.47716  0  2.41035  0
