# generated using pymatgen
data_Zn4H28C36N4O21
_symmetry_space_group_name_H-M   'P 1'
_cell_length_a   17.74706916
_cell_length_b   18.68157613
_cell_length_c   23.28829540
_cell_angle_alpha   66.40069370
_cell_angle_beta   69.77815496
_cell_angle_gamma   89.95166437
_symmetry_Int_Tables_number   1
_chemical_formula_structural   Zn4H28C36N4O21
_chemical_formula_sum   'Zn8 H56 C72 N8 O42'
_cell_volume   6553.75344523
_cell_formula_units_Z   2
loop_
 _symmetry_equiv_pos_site_id
 _symmetry_equiv_pos_as_xyz
  1  'x, y, z'
loop_
 _atom_site_type_symbol
 _atom_site_label
 _atom_site_symmetry_multiplicity
 _atom_site_fract_x
 _atom_site_fract_y
 _atom_site_fract_z
 _atom_site_occupancy
 _atom_site_pbe_bader_charge
 _atom_site_pbe_bader_spin_density
 _atom_site_pbe_cm5_charge
 _atom_site_pbe_ddec_charge
 _atom_site_pbe_ddec_spin_density
 _atom_site_pbe_ddec_sum_bond_order
 _atom_site_pbe_magmom
Zn  Zn0  1  0.12004295  0.52836858  0.94355184  1  1.313864  0  0.676343  0.966578  0  2.357285  0
Zn  Zn1  1  0.97128900  0.56203238  0.04882975  1  1.313575  0  0.674547  0.960764  0  2.380623  0
Zn  Zn2  1  0.98082809  0.38878260  0.04942620  1  1.311936  0  0.674786  0.960313  0  2.383596  0
Zn  Zn3  1  0.93550472  0.52958952  0.93754936  1  1.31387  0  0.677672  0.973458  0  2.327253  0
Zn  Zn4  1  0.38461751  0.97474845  0.04803466  1  1.315472  0  0.675606  0.965485  0  2.358438  0
Zn  Zn5  1  0.52937176  0.11637485  0.93915672  1  1.311621  0  0.675974  0.962112  0  2.381492  0
Zn  Zn6  1  0.52223440  0.94426472  0.93840916  1  1.305916  0  0.675564  0.961194  0  2.380699  0
Zn  Zn7  1  0.57197988  0.97587665  0.04782152  1  1.318413  0  0.67718  0.973443  0  2.322485  0
H  H8  1  0.43551557  0.80004562  0.38801112  1  0.128088  0  0.127592  0.144471  0  0.957542  0
H  H9  1  0.19740632  0.82111492  0.37663016  1  0.116604  0  0.128375  0.144951  0  0.959943  0
H  H10  1  0.31680171  0.70342348  0.61364529  1  0.136672  0  0.128497  0.145553  0  0.959433  0
H  H11  1  0.08055544  0.69331055  0.59908884  1  0.110781  0  0.128383  0.145979  0  0.957909  0
H  H12  1  0.70395008  0.07975297  0.60632907  1  0.121799  0  0.128435  0.145612  0  0.958858  0
H  H13  1  0.68985775  0.31189167  0.60523794  1  0.091598  0  0.128936  0.145996  0  0.959864  0
H  H14  1  0.80303083  0.19334237  0.38108035  1  0.09847  0  0.128863  0.145935  0  0.95976  0
H  H15  1  0.81549401  0.42396303  0.38319061  1  0.107726  0  0.128658  0.145853  0  0.959934  0
H  H16  1  0.20376418  0.30275694  0.90645110  1  0.021782  0  0.092453  0.088018  0  0.975633  0
H  H17  1  0.12900718  0.23224884  0.98229367  1  0.042131  0  0.093844  0.09312  0  0.985271  0
H  H18  1  0.21513769  0.13772620  0.98323940  1  0.033906  0  0.094188  0.091683  0  0.977542  0
H  H19  1  0.28919908  0.20830873  0.90675214  1  0.060681  0  0.094147  0.092016  0  0.976329  0
H  H20  1  0.21597523  0.12303801  0.09559513  1  0.077078  0  0.094012  0.098465  0  0.985827  0
H  H21  1  0.28855078  0.18422110  0.09859282  1  0.010474  0  0.089498  0.085084  0  0.977919  0
H  H22  1  0.12810578  0.21658774  0.09545760  1  0.041608  0  0.094196  0.097207  0  0.981998  0
H  H23  1  0.20093049  0.27693376  0.09944020  1  0.020253  0  0.090024  0.083714  0  0.979906  0
H  H24  1  0.30766983  0.39086534  0.91181983  1  0.056308  0  0.092773  0.094584  0  0.979644  0
H  H25  1  0.30736899  0.37952028  0.99053376  1  0.007311  0  0.0905  0.088165  0  0.981101  0
H  H26  1  0.39547275  0.28686124  0.98801409  1  0.011461  0  0.090029  0.086193  0  0.979126  0
H  H27  1  0.39380030  0.29656898  0.91019935  1  0.045578  0  0.093665  0.09705  0  0.985665  0
H  H28  1  0.88878740  0.80101186  0.90264559  1  0.002989  0  0.091534  0.085871  0  0.97803  0
H  H29  1  0.88788959  0.78755020  0.98257021  1  0.02993  0  0.0933  0.093578  0  0.985676  0
H  H30  1  0.79834605  0.87881904  0.98632784  1  0.040968  0  0.094083  0.092707  0  0.979169  0
H  H31  1  0.80091166  0.89286597  0.90573472  1  0.034613  0  0.0927  0.089219  0  0.977434  0
H  H32  1  0.69235295  0.77504946  0.09222982  1  0.052816  0  0.094805  0.099558  0  0.983965  0
H  H33  1  0.62162037  0.71418139  0.08683869  1  0.022724  0  0.090193  0.085031  0  0.9792  0
H  H34  1  0.78270643  0.68409221  0.08952921  1  0.033889  0  0.094374  0.097639  0  0.982657  0
H  H35  1  0.71070841  0.62296814  0.08536065  1  0.00595  0  0.090479  0.084719  0  0.979627  0
H  H36  1  0.78650101  0.71237083  0.89593008  1  0.059047  0  0.092612  0.092743  0  0.978516  0
H  H37  1  0.71293396  0.64072549  0.97050138  1  0.030352  0  0.090596  0.088165  0  0.981162  0
H  H38  1  0.62519578  0.73404420  0.97030344  1  0.01223  0  0.090044  0.087249  0  0.979168  0
H  H39  1  0.69973646  0.80629783  0.89698450  1  0.046537  0  0.092353  0.096617  0  0.987566  0
H  H40  1  0.16307687  0.79270999  0.93467933  1  0.015391  0  0.091948  0.086326  0  0.977474  0
H  H41  1  0.24776862  0.75519523  0.89584990  1  0.037116  0  0.09587  0.100129  0  0.980835  0
H  H42  1  0.33380453  0.85149749  0.89372379  1  0.04803  0  0.095155  0.094426  0  0.977006  0
H  H43  1  0.24856457  0.88564276  0.93616802  1  0.030916  0  0.092271  0.087416  0  0.979551  0
H  H44  1  0.39225307  0.74014836  0.96091378  1  0.050603  0  0.094262  0.09674  0  0.984679  0
H  H45  1  0.35270414  0.69953810  0.05001947  1  -0.006362  0  0.089649  0.083391  0  0.98158  0
H  H46  1  0.30235372  0.64388275  0.96649011  1  0.039492  0  0.094685  0.096696  0  0.983492  0
H  H47  1  0.26031678  0.60621427  0.05567509  1  0.012193  0  0.090094  0.0841  0  0.978426  0
H  H48  1  0.10077675  0.73711969  0.06350860  1  0.050819  0  0.09208  0.091344  0  0.981008  0
H  H49  1  0.13842873  0.65917033  0.11287011  1  0.046347  0  0.091622  0.093464  0  0.980721  0
H  H50  1  0.23092231  0.74968607  0.11122170  1  0.005098  0  0.090217  0.087648  0  0.97577  0
H  H51  1  0.19047717  0.82762995  0.06454160  1  0.044948  0  0.092569  0.094423  0  0.985142  0
H  H52  1  0.89589673  0.26951583  0.93261814  1  0.010477  0  0.091537  0.08618  0  0.979105  0
H  H53  1  0.84834559  0.34495500  0.89015850  1  0.043964  0  0.095833  0.098659  0  0.97871  0
H  H54  1  0.76436325  0.24777858  0.89142101  1  0.045447  0  0.094897  0.09402  0  0.97716  0
H  H55  1  0.80676422  0.17216502  0.93982748  1  0.033522  0  0.092643  0.088983  0  0.979971  0
H  H56  1  0.64812783  0.30285177  0.95019622  1  0.064082  0  0.093339  0.095365  0  0.983795  0
H  H57  1  0.60169972  0.26035901  0.03910187  1  0.0266  0  0.089019  0.082726  0  0.981835  0
H  H58  1  0.73272141  0.39401131  0.95545389  1  0.040994  0  0.094774  0.096887  0  0.98354  0
H  H59  1  0.69091126  0.34638565  0.04479053  1  -0.002399  0  0.089605  0.084486  0  0.979147  0
H  H60  1  0.83753945  0.20204060  0.06143594  1  0.021306  0  0.091737  0.092219  0  0.980153  0
H  H61  1  0.75774352  0.23641458  0.10764506  1  0.023016  0  0.09123  0.094136  0  0.983375  0
H  H62  1  0.66175852  0.14979062  0.10885874  1  0.024554  0  0.090107  0.087458  0  0.976668  0
H  H63  1  0.74185533  0.11026867  0.06808336  1  0.047156  0  0.092748  0.095252  0  0.986776  0
C  C64  1  0.13977804  0.63442588  0.00343647  1  1.542625  0  0.237549  0.604952  0  4.087196  0
C  C65  1  0.91403402  0.41483684  0.17203167  1  1.639304  0  0.228144  0.610748  0  4.190493  0
C  C66  1  0.14834915  0.36386988  0.99821303  1  1.513222  0  0.237351  0.60643  0  4.087778  0
C  C67  1  0.85882564  0.36466693  0.99655050  1  1.544254  0  0.239569  0.608216  0  4.085465  0
C  C68  1  0.08859730  0.58988680  0.81661804  1  1.647241  0  0.228841  0.61217  0  4.183574  0
C  C69  1  0.85929975  0.64378008  0.98802655  1  1.52263  0  0.236391  0.604467  0  4.088415  0
C  C70  1  0.36082951  0.13933148  0.99497116  1  1.544058  0  0.238046  0.605576  0  4.086493  0
C  C71  1  0.58660549  0.09162382  0.81564812  1  1.65447  0  0.230254  0.612669  0  4.186903  0
C  C72  1  0.35563724  0.86052799  0.99827170  1  1.540146  0  0.236837  0.605184  0  4.090854  0
C  C73  1  0.64472036  0.86694005  0.99059633  1  1.522757  0  0.236798  0.603593  0  4.084109  0
C  C74  1  0.42289479  0.91174503  0.17185740  1  1.692103  0  0.229372  0.611795  0  4.185394  0
C  C75  1  0.64211442  0.14233092  0.99768512  1  1.535826  0  0.23622  0.602948  0  4.089394  0
C  C76  1  0.38507665  0.87581257  0.24786064  1  0.074646  0  0.005129  -0.116635  0  3.886059  0
C  C77  1  0.43081267  0.85065952  0.28891282  1  0.204143  0  0.096278  0.089299  0  3.924673  0
C  C78  1  0.39659020  0.81755544  0.35903525  1  0.009017  0  -0.063628  -0.171721  0  3.873957  0
C  C79  1  0.31142089  0.80560605  0.39215525  1  0.210798  0  0.018824  0.178362  0  4.098843  0
C  C80  1  0.26335042  0.82938808  0.35266402  1  0.074626  0  -0.063921  -0.17023  0  3.879644  0
C  C81  1  0.30059993  0.86447380  0.28273551  1  0.114691  0  0.09519  0.086802  0  3.926485  0
C  C82  1  0.27444955  0.77024982  0.46362779  1  -0.10584  0  -0.026662  -0.086181  0  4.069529  0
C  C83  1  0.24156734  0.73941191  0.52520863  1  -0.303452  0  -0.02545  -0.084774  0  4.068294  0
C  C84  1  0.20382284  0.70321408  0.59662356  1  0.162367  0  0.018834  0.179371  0  4.097061  0
C  C85  1  0.25085431  0.68762659  0.63693193  1  0.114729  0  -0.063722  -0.171345  0  3.878521  0
C  C86  1  0.21250847  0.65279996  0.70678469  1  0.186733  0  0.095206  0.08584  0  3.926165  0
C  C87  1  0.12795040  0.62934535  0.74073623  1  0.061628  0  0.005451  -0.114234  0  3.885955  0
C  C88  1  0.08329868  0.64507629  0.69883695  1  0.200682  0  0.096856  0.088886  0  3.925213  0
C  C89  1  0.11861587  0.68191614  0.62878409  1  0.007477  0  -0.065084  -0.174353  0  3.876502  0
C  C90  1  0.62631862  0.12909277  0.73993414  1  0.058882  0  0.005797  -0.114918  0  3.894123  0
C  C91  1  0.65137734  0.08433789  0.70258131  1  0.155922  0  0.096284  0.089565  0  3.925681  0
C  C92  1  0.68696696  0.11765467  0.63257531  1  0.053438  0  -0.06182  -0.16939  0  3.874151  0
C  C93  1  0.70178779  0.20062217  0.59613480  1  0.140773  0  0.018793  0.177437  0  4.098689  0
C  C94  1  0.67899798  0.24764687  0.63196946  1  0.040158  0  -0.063003  -0.170061  0  3.876983  0
C  C95  1  0.64110768  0.21139812  0.70182178  1  0.245609  0  0.097086  0.089593  0  3.924418  0
C  C96  1  0.73841864  0.23628258  0.52476846  1  -0.233933  0  -0.02682  -0.084684  0  4.075076  0
C  C97  1  0.76923324  0.26756514  0.46313309  1  -0.10777  0  -0.026022  -0.086833  0  4.077337  0
C  C98  1  0.80466069  0.30379507  0.39173008  1  0.133833  0  0.018364  0.177903  0  4.100149  0
C  C99  1  0.81892631  0.25750736  0.35501351  1  0.144459  0  -0.06274  -0.170025  0  3.877475  0
C  C100  1  0.85229896  0.29448416  0.28497482  1  0.134292  0  0.09677  0.088512  0  3.927715  0
C  C101  1  0.87581684  0.37666384  0.24785220  1  0.099566  0  0.00688  -0.111751  0  3.892199  0
C  C102  1  0.86178551  0.42063103  0.28618452  1  0.097762  0  0.096483  0.087648  0  3.927043  0
C  C103  1  0.82599947  0.38669188  0.35618334  1  0.172909  0  -0.062256  -0.169236  0  3.877074  0
C  C104  1  0.19307655  0.26014934  0.95857906  1  -0.035405  0  -0.154715  -0.169356  0  3.84937  0
C  C105  1  0.25035532  0.19753466  0.95871940  1  -0.055138  0  -0.153542  -0.16902  0  3.844469  0
C  C106  1  0.30511935  0.20087232  0.99728275  1  0.048827  0  -0.017146  0.019427  0  3.812241  0
C  C107  1  0.25011274  0.18321300  0.07056689  1  -0.039043  0  -0.159606  -0.172861  0  3.864699  0
C  C108  1  0.19198289  0.24506068  0.07092901  1  -0.011151  0  -0.157487  -0.171068  0  3.856244  0
C  C109  1  0.20792239  0.30545568  0.99769554  1  0.037768  0  -0.016008  0.01941  0  3.817649  0
C  C110  1  0.29680123  0.34662684  0.96333739  1  -0.004471  0  -0.16336  -0.178137  0  3.88488  0
C  C111  1  0.35458086  0.28468492  0.96221597  1  -0.023588  0  -0.161737  -0.176149  0  3.871185  0
C  C112  1  0.84869829  0.78683779  0.95514903  1  0.004428  0  -0.155749  -0.170089  0  3.853322  0
C  C113  1  0.78975240  0.84781782  0.95712893  1  -0.041272  0  -0.154398  -0.169456  0  3.84788  0
C  C114  1  0.70061965  0.80516977  0.99000085  1  0.037256  0  -0.015895  0.021718  0  3.812084  0
C  C115  1  0.68512706  0.74406380  0.06271419  1  -0.028203  0  -0.158748  -0.173958  0  3.863991  0
C  C116  1  0.74446120  0.68340538  0.06137707  1  -0.00549  0  -0.156985  -0.171912  0  3.855071  0
C  C117  1  0.79998796  0.70259464  0.98749845  1  0.064692  0  -0.015827  0.021677  0  3.813093  0
C  C118  1  0.74711959  0.70065162  0.94795541  1  -0.037585  0  -0.163824  -0.176458  0  3.883355  0
C  C119  1  0.68900256  0.76241309  0.94852879  1  -0.0205  0  -0.163518  -0.179601  0  3.875616  0
C  C120  1  0.21911993  0.77000901  0.93879990  1  -0.004707  0  -0.155265  -0.170895  0  3.846253  0
C  C121  1  0.27673136  0.83265654  0.93827488  1  -0.042022  0  -0.152443  -0.166437  0  3.845369  0
C  C122  1  0.29652071  0.79762834  0.00306788  1  0.0444  0  -0.016471  0.018538  0  3.814398  0
C  C123  1  0.33567004  0.72325012  0.00551406  1  -0.006255  0  -0.160404  -0.174234  0  3.869019  0
C  C124  1  0.27558034  0.66056159  0.00855871  1  -0.015362  0  -0.157568  -0.17142  0  3.857769  0
C  C125  1  0.19658163  0.69358624  0.00528978  1  0.044332  0  -0.016561  0.019904  0  3.81575  0
C  C126  1  0.15698372  0.71373853  0.06577251  1  -0.056485  0  -0.163576  -0.178165  0  3.879285  0
C  C127  1  0.21697041  0.77436578  0.06521908  1  -0.012196  0  -0.162388  -0.175633  0  3.874424  0
C  C128  1  0.83678802  0.28899183  0.93508566  1  -0.014316  0  -0.154212  -0.170386  0  3.848007  0
C  C129  1  0.77859222  0.22523499  0.93729558  1  -0.053961  0  -0.153373  -0.170132  0  3.845636  0
C  C130  1  0.69838477  0.20147546  0.00017270  1  0.033034  0  -0.015504  0.023385  0  3.810501  0
C  C131  1  0.66071453  0.27676389  0.99667739  1  -0.044203  0  -0.160188  -0.172922  0  3.870698  0
C  C132  1  0.71887986  0.33631705  0.99905367  1  0.002791  0  -0.15846  -0.174366  0  3.861097  0
C  C133  1  0.79902305  0.30407653  0.99913936  1  0.055007  0  -0.016387  0.020939  0  3.809856  0
C  C134  1  0.78058075  0.22540546  0.06217191  1  0.0053  0  -0.163879  -0.179251  0  3.878956  0
C  C135  1  0.71834932  0.16565686  0.06419997  1  -0.029769  0  -0.163049  -0.178386  0  3.880117  0
N  N136  1  0.52036696  0.85510288  0.25895542  1  0.431727  0  0.062166  0.51556  0  4.247024  0
N  N137  1  0.24482110  0.89285398  0.24613735  1  0.435735  0  0.061129  0.51442  0  4.248609  0
N  N138  1  0.26717595  0.64450129  0.74434651  1  0.449259  0  0.061941  0.517382  0  4.248217  0
N  N139  1  0.99382091  0.61968376  0.72758557  1  0.45234  0  0.061166  0.516737  0  4.244358  0
N  N140  1  0.64429481  0.99700394  0.73699648  1  0.434988  0  0.059571  0.510883  0  4.245829  0
N  N141  1  0.61302472  0.26527775  0.73478234  1  0.450603  0  0.061874  0.51506  0  4.245841  0
N  N142  1  0.85824591  0.24189578  0.25032129  1  0.442336  0  0.061269  0.514013  0  4.240537  0
N  N143  1  0.88851528  0.50757914  0.25312218  1  0.448487  0  0.060839  0.514489  0  4.243197  0
O  O144  1  0.00190496  0.50308209  0.99322835  1  -1.229224  0  -0.575733  -1.034711  0  2.545925  0
O  O145  1  0.16870019  0.61160811  0.95626417  1  -1.170704  0  -0.314819  -0.550842  0  2.349613  0
O  O146  1  0.90245264  0.48515650  0.14290019  1  -1.162719  0  -0.301454  -0.524072  0  2.327842  0
O  O147  1  0.07290672  0.33410911  0.02941071  1  -1.176283  0  -0.316258  -0.551026  0  2.351242  0
O  O148  1  0.06761033  0.61290917  0.04800082  1  -1.174543  0  -0.310679  -0.540942  0  2.364757  0
O  O149  1  0.17685882  0.43759818  0.96735213  1  -1.156765  0  -0.311032  -0.543046  0  2.346712  0
O  O150  1  0.95423095  0.37284205  0.14481827  1  -1.159305  0  -0.302979  -0.526131  0  2.329467  0
O  O151  1  0.89023773  0.34076212  0.04131529  1  -1.179195  0  -0.312767  -0.544759  0  2.378544  0
O  O152  1  0.01324793  0.59183611  0.84210893  1  -1.160024  0  -0.299699  -0.523821  0  2.334896  0
O  O153  1  0.87378674  0.43465891  0.94929995  1  -1.178688  0  -0.314765  -0.551334  0  2.334871  0
O  O154  1  0.13521261  0.55859212  0.84732577  1  -1.167916  0  -0.300753  -0.525661  0  2.350129  0
O  O155  1  0.90494301  0.64162657  0.02064914  1  -1.18128  0  -0.317947  -0.553915  0  2.354881  0
O  O156  1  0.85968720  0.60108820  0.95676386  1  -1.166768  0  -0.309816  -0.542331  0  2.340316  0
O  O157  1  0.50203107  0.00192804  0.99502981  1  -1.226871  0  -0.575208  -1.034781  0  2.544692  0
O  O158  1  0.33383710  0.06879309  0.04125552  1  -1.174375  0  -0.311941  -0.544675  0  2.350075  0
O  O159  1  0.59599613  0.13366308  0.84479848  1  -1.152592  0  -0.301704  -0.524348  0  2.337059  0
O  O160  1  0.43049805  0.86681351  0.96228621  1  -1.178534  0  -0.314071  -0.547223  0  2.353243  0
O  O161  1  0.42983636  0.16224633  0.94591844  1  -1.181222  0  -0.315393  -0.549539  0  2.361753  0
O  O162  1  0.32664389  0.90387630  0.02867493  1  -1.166447  0  -0.31285  -0.545326  0  2.34871  0
O  O163  1  0.54777838  0.02192802  0.84284322  1  -1.16073  0  -0.302367  -0.524635  0  2.327815  0
O  O164  1  0.61374116  0.88886985  0.94554229  1  -1.167854  0  -0.311566  -0.54298  0  2.376876  0
O  O165  1  0.49757434  0.94188660  0.14478866  1  -1.161884  0  -0.299984  -0.522825  0  2.32465  0
O  O166  1  0.63405659  0.89315081  0.03542114  1  -1.164425  0  -0.314179  -0.549373  0  2.334377  0
O  O167  1  0.37550413  0.90791531  0.14264860  1  -1.163254  0  -0.302308  -0.527087  0  2.34958  0
O  O168  1  0.59697541  0.17097075  0.96422922  1  -1.170088  0  -0.314286  -0.546579  0  2.354575  0
O  O169  1  0.64513298  0.06888665  0.02746444  1  -1.171155  0  -0.313514  -0.548128  0  2.340418  0
O  O170  1  0.54466172  0.80767521  0.23468795  1  -0.428061  0  -0.119267  -0.305943  0  1.868185  0
O  O171  1  0.56236711  0.90299758  0.26420257  1  -0.416824  0  -0.121992  -0.308436  0  1.849395  0
O  O172  1  0.24694756  0.96513716  0.21938440  1  -0.425724  0  -0.11717  -0.30512  0  1.878015  0
O  O173  1  0.19796014  0.84157278  0.24912328  1  -0.42311  0  -0.121459  -0.308135  0  1.854038  0
O  O174  1  0.26519387  0.69099397  0.77021564  1  -0.427619  0  -0.120132  -0.308218  0  1.871143  0
O  O175  1  0.31314904  0.59513597  0.74291408  1  -0.433403  0  -0.121414  -0.308301  0  1.854176  0
O  O176  1  0.96984018  0.54824413  0.75032183  1  -0.436185  0  -0.120728  -0.308026  0  1.864542  0
O  O177  1  0.95169201  0.67275566  0.72268756  1  -0.427327  0  -0.122159  -0.308793  0  1.849248  0
O  O178  1  0.68786233  0.97156193  0.76977845  1  -0.4232  0  -0.115091  -0.302899  0  1.881356  0
O  O179  1  0.59855759  0.95766133  0.72696927  1  -0.42203  0  -0.121648  -0.308335  0  1.849667  0
O  O180  1  0.53877183  0.26218092  0.76011398  1  -0.434221  0  -0.119427  -0.305788  0  1.869716  0
O  O181  1  0.66642284  0.31120749  0.73091380  1  -0.429435  0  -0.122068  -0.30935  0  1.851981  0
O  O182  1  0.81410893  0.25002088  0.21789201  1  -0.434717  0  -0.114664  -0.303917  0  1.883524  0
O  O183  1  0.90365310  0.19202476  0.25976785  1  -0.43455  0  -0.121788  -0.309183  0  1.847625  0
O  O184  1  0.96258238  0.53087048  0.22573134  1  -0.425566  0  -0.115776  -0.303869  0  1.878489  0
O  O185  1  0.83437424  0.54870398  0.25881988  1  -0.434477  0  -0.121001  -0.309015  0  1.84945  0
