# generated using pymatgen
data_AlH9C21(NO2)6
_symmetry_space_group_name_H-M   'P 1'
_cell_length_a   4.02023183
_cell_length_b   27.79625160
_cell_length_c   27.79727291
_cell_angle_alpha   119.99046574
_cell_angle_beta   90.00118926
_cell_angle_gamma   90.00164732
_symmetry_Int_Tables_number   1
_chemical_formula_structural   AlH9C21(NO2)6
_chemical_formula_sum   'Al2 H18 C42 N12 O24'
_cell_volume   2690.36912294
_cell_formula_units_Z   2
loop_
 _symmetry_equiv_pos_site_id
 _symmetry_equiv_pos_as_xyz
  1  'x, y, z'
loop_
 _atom_site_type_symbol
 _atom_site_label
 _atom_site_symmetry_multiplicity
 _atom_site_fract_x
 _atom_site_fract_y
 _atom_site_fract_z
 _atom_site_occupancy
 _atom_site_pbe_bader_charge
 _atom_site_pbe_bader_spin_density
 _atom_site_pbe_cm5_charge
 _atom_site_pbe_ddec_charge
 _atom_site_pbe_ddec_spin_density
 _atom_site_pbe_ddec_sum_bond_order
 _atom_site_pbe_magmom
Al  Al0  1  0.97768819  0.50001218  0.49998376  1  2.509762  0  0.431214  1.61141  0  2.553411  0
Al  Al1  1  0.97765191  0.16665773  0.83334968  1  2.509745  0  0.431265  1.611581  0  2.553193  0
H  H2  1  0.55864262  0.18060038  0.69502960  1  0.102832  0  0.123812  0.136394  0  0.957321  0
H  H3  1  0.59846023  0.23318416  0.64378370  1  0.138964  0  0.117817  0.121443  0  0.993249  0
H  H4  1  0.49010974  0.38717787  0.79854181  1  0.150307  0  0.126689  0.144041  0  0.978019  0
H  H5  1  0.49010002  0.27948533  0.53478199  1  0.150206  0  0.126699  0.144062  0  0.977856  0
H  H6  1  0.59847335  0.43348184  0.68954030  1  0.139272  0  0.117821  0.121507  0  0.993251  0
H  H7  1  0.55865128  0.48606217  0.63829224  1  0.102894  0  0.123838  0.13647  0  0.957389  0
H  H8  1  0.55856054  0.01438360  0.81939874  1  0.101941  0  0.123835  0.136408  0  0.957467  0
H  H9  1  0.59848124  0.91056713  0.76681482  1  0.135782  0  0.117826  0.121366  0  0.993205  0
H  H10  1  0.49005112  0.91138907  0.61282935  1  0.155797  0  0.126605  0.144029  0  0.977566  0
H  H11  1  0.49005589  0.75528018  0.72051550  1  0.155245  0  0.126639  0.144126  0  0.977847  0
H  H12  1  0.59861326  0.75610117  0.56653687  1  0.136586  0  0.117844  0.121368  0  0.993312  0
H  H13  1  0.55875077  0.65228599  0.51395132  1  0.102614  0  0.123833  0.136513  0  0.957481  0
H  H14  1  0.55836240  0.30496569  0.98557982  1  0.102052  0  0.12388  0.13662  0  0.957524  0
H  H15  1  0.59818124  0.35621827  0.08939215  1  0.136409  0  0.117859  0.121387  0  0.993118  0
H  H16  1  0.49034625  0.20144468  0.08866504  1  0.154436  0  0.126849  0.144505  0  0.977743  0
H  H17  1  0.49025915  0.46521671  0.24467026  1  0.154711  0  0.126794  0.14432  0  0.977809  0
H  H18  1  0.59824257  0.31044653  0.24394273  1  0.136322  0  0.117848  0.121344  0  0.993161  0
H  H19  1  0.55847630  0.36169896  0.34775575  1  0.101887  0  0.123884  0.13645  0  0.957619  0
C  C20  1  0.47885471  0.46975938  0.41637910  1  1.634211  0  0.280104  0.657501  0  4.104018  0
C  C21  1  0.47887058  0.44665988  0.53024227  1  1.638878  0  0.280137  0.657752  0  4.104248  0
C  C22  1  0.47889820  0.58361428  0.55333871  1  1.684889  0  0.280318  0.657732  0  4.104314  0
C  C23  1  0.47884795  0.22000478  0.80308423  1  1.638408  0  0.280143  0.657872  0  4.10403  0
C  C24  1  0.47880789  0.08305391  0.78000296  1  1.683878  0  0.280243  0.65793  0  4.104081  0
C  C25  1  0.47886630  0.19690628  0.91695505  1  1.634139  0  0.280337  0.657846  0  4.103517  0
C  C26  1  0.49869641  0.25406742  0.77508140  1  0.007722  0  0.015406  -0.042147  0  3.895682  0
C  C27  1  0.54324907  0.22583470  0.71717402  1  0.067996  0  -0.065523  -0.069627  0  3.91854  0
C  C28  1  0.56638537  0.25486468  0.68869666  1  -0.095399  0  -0.064404  -0.115391  0  3.909822  0
C  C29  1  0.54395920  0.31326266  0.71786696  1  0.420325  0  0.090281  0.171352  0  4.044976  0
C  C30  1  0.50785635  0.34205280  0.77568534  1  0.000184  0  -0.064397  -0.176144  0  3.91646  0
C  C31  1  0.48439405  0.31212773  0.80334199  1  0.176089  0  0.08125  0.049363  0  3.928376  0
C  C32  1  0.50785137  0.32460987  0.55763998  1  -3.2e-05  0  -0.064456  -0.176418  0  3.916129  0
C  C33  1  0.54395828  0.35340173  0.61545715  1  0.41996  0  0.09025  0.1716  0  4.044996  0
C  C34  1  0.56638525  0.41180039  0.64462853  1  -0.095467  0  -0.064295  -0.115436  0  3.909594  0
C  C35  1  0.54326800  0.44082762  0.61614927  1  0.068133  0  -0.06567  -0.069815  0  3.918353  0
C  C36  1  0.49872878  0.41259417  0.55823911  1  0.007126  0  0.015466  -0.042274  0  3.895577  0
C  C37  1  0.48441338  0.35453435  0.52998069  1  0.17588  0  0.081383  0.049812  0  3.92794  0
C  C38  1  0.49860911  0.02099530  0.74594248  1  0.052323  0  0.015166  -0.042462  0  3.89616  0
C  C39  1  0.54321184  0.99130597  0.77416721  1  0.144899  0  -0.065384  -0.069428  0  3.919479  0
C  C40  1  0.56637686  0.93381309  0.74514218  1  -0.096445  0  -0.064472  -0.115436  0  3.909956  0
C  C41  1  0.54393077  0.90460310  0.68673823  1  0.347475  0  0.090331  0.171626  0  4.045308  0
C  C42  1  0.50777196  0.93364378  0.65796127  1  -0.085727  0  -0.064227  -0.176157  0  3.916633  0
C  C43  1  0.48427618  0.99121620  0.68788297  1  0.175766  0  0.081364  0.049576  0  3.928246  0
C  C44  1  0.50783301  0.73302547  0.67539103  1  -0.086381  0  -0.06432  -0.17647  0  3.916408  0
C  C45  1  0.54401082  0.76206428  0.64660927  1  0.348015  0  0.090321  0.171495  0  4.04512  0
C  C46  1  0.56650492  0.73286029  0.58820756  1  -0.097557  0  -0.06448  -0.115214  0  3.910289  0
C  C47  1  0.54335670  0.67536309  0.55918363  1  0.143527  0  -0.065478  -0.069751  0  3.920051  0
C  C48  1  0.49872902  0.64567150  0.58740735  1  0.053567  0  0.015398  -0.042285  0  3.896447  0
C  C49  1  0.48436135  0.67545063  0.64546278  1  0.17543  0  0.081221  0.049649  0  3.928117  0
C  C50  1  0.49870572  0.22491133  0.97901331  1  0.081653  0  0.015439  -0.042032  0  3.895578  0
C  C51  1  0.54305942  0.28282388  0.00867484  1  -0.001727  0  -0.065611  -0.070172  0  3.919204  0
C  C52  1  0.56618693  0.31130639  0.06617395  1  -0.014889  0  -0.064519  -0.115066  0  3.909424  0
C  C53  1  0.54397350  0.28213103  0.09541031  1  0.280722  0  0.090427  0.171496  0  4.045066  0
C  C54  1  0.50802250  0.22430346  0.06639292  1  0.074973  0  -0.064623  -0.176908  0  3.916869  0
C  C55  1  0.48458663  0.19664607  0.00882410  1  0.17507  0  0.081321  0.049517  0  3.928779  0
C  C56  1  0.50798385  0.44235843  0.26694286  1  0.074724  0  -0.064505  -0.176695  0  3.917209  0
C  C57  1  0.54396651  0.38453644  0.23792688  1  0.280939  0  0.090357  0.171365  0  4.044974  0
C  C58  1  0.56624306  0.35535934  0.26716314  1  -0.014963  0  -0.06439  -0.114928  0  3.909229  0
C  C59  1  0.54314438  0.38384020  0.32465853  1  -0.002485  0  -0.065662  -0.069972  0  3.918988  0
C  C60  1  0.49872196  0.44175266  0.35432207  1  0.08244  0  0.015452  -0.041962  0  3.895438  0
C  C61  1  0.48455178  0.47001507  0.32451137  1  0.174653  0  0.081294  0.049615  0  3.928873  0
N  N62  1  0.54765205  0.34682371  0.69296468  1  -0.560778  0  -0.145291  -0.131258  0  3.267668  0
N  N63  1  0.54766301  0.31983952  0.64035993  1  -0.390181  0  -0.145204  -0.131338  0  3.267794  0
N  N64  1  0.54764376  0.84615135  0.65318588  1  -0.483183  0  -0.145354  -0.131546  0  3.268792  0
N  N65  1  0.54767800  0.82052009  0.68016193  1  -0.473375  0  -0.145135  -0.131079  0  3.268548  0
N  N66  1  0.54772373  0.30703172  0.15386079  1  -0.570923  0  -0.14522  -0.131167  0  3.268663  0
N  N67  1  0.54766361  0.35963440  0.17947421  1  -0.399711  0  -0.145323  -0.13136  0  3.268459  0
N  N68  1  0.42870820  0.34342463  0.86393461  1  0.408253  0  0.059808  0.512898  0  4.210081  0
N  N69  1  0.42871263  0.32323322  0.46938720  1  0.408278  0  0.059678  0.512716  0  4.209751  0
N  N70  1  0.42855941  0.02053020  0.65659555  1  0.400995  0  0.059388  0.512413  0  4.209676  0
N  N71  1  0.42857785  0.64613476  0.67674791  1  0.400333  0  0.059233  0.512273  0  4.209865  0
N  N72  1  0.42903185  0.13604950  0.97955940  1  0.401878  0  0.060702  0.513828  0  4.210507  0
N  N73  1  0.42891880  0.53060974  0.35378043  1  0.403301  0  0.060599  0.513671  0  4.211462  0
O  O74  1  0.71219576  0.55558090  0.55820702  1  -1.248208  0  -0.232022  -0.593194  0  2.406713  0
O  O75  1  0.71215747  0.50267063  0.44440615  1  -1.248369  0  -0.231966  -0.59323  0  2.405686  0
O  O76  1  0.71214283  0.44178440  0.49733157  1  -1.24732  0  -0.232043  -0.593364  0  2.406401  0
O  O77  1  0.23845500  0.56457700  0.51924248  1  -1.24766  0  -0.223265  -0.573892  0  2.380325  0
O  O78  1  0.23843367  0.48075292  0.54529074  1  -1.245677  0  -0.223013  -0.573712  0  2.381019  0
O  O79  1  0.23841822  0.45471183  0.43542787  1  -1.245802  0  -0.223101  -0.573828  0  2.381006  0
O  O80  1  0.71217345  0.16400220  0.88893208  1  -1.248356  0  -0.231986  -0.593237  0  2.405579  0
O  O81  1  0.71214331  0.22488427  0.83599211  1  -1.24702  0  -0.231921  -0.593341  0  2.406318  0
O  O82  1  0.71211526  0.11108528  0.77512995  1  -1.247888  0  -0.231956  -0.593088  0  2.406589  0
O  O83  1  0.23845242  0.21195629  0.89790395  1  -1.245655  0  -0.223289  -0.573974  0  2.380676  0
O  O84  1  0.23837087  0.10209437  0.81410048  1  -1.247573  0  -0.223225  -0.574313  0  2.380746  0
O  O85  1  0.23839965  0.18590851  0.78803771  1  -1.245948  0  -0.22313  -0.57395  0  2.381188  0
O  O86  1  0.28225799  0.31876168  0.88459998  1  -0.443596  0  -0.115481  -0.308665  0  1.943814  0
O  O87  1  0.52763701  0.39203063  0.88967990  1  -0.439999  0  -0.128905  -0.320113  0  1.870435  0
O  O88  1  0.28225933  0.34789316  0.44871769  1  -0.442829  0  -0.115407  -0.30862  0  1.943645  0
O  O89  1  0.52761818  0.27462713  0.44364341  1  -0.440623  0  -0.128843  -0.320033  0  1.870223  0
O  O90  1  0.28217112  0.06585345  0.68126000  1  -0.44179  0  -0.115306  -0.308401  0  1.943857  0
O  O91  1  0.52744768  0.99768490  0.60798669  1  -0.437561  0  -0.128712  -0.319992  0  1.870138  0
O  O92  1  0.28220193  0.60080807  0.65207473  1  -0.441977  0  -0.115214  -0.308301  0  1.943785  0
O  O93  1  0.52738885  0.66898033  0.72536200  1  -0.436629  0  -0.128562  -0.319917  0  1.870367  0
O  O94  1  0.28253251  0.11536840  0.93423139  1  -0.440177  0  -0.115828  -0.309087  0  1.943267  0
O  O95  1  0.52804032  0.11031249  0.00242668  1  -0.441883  0  -0.129429  -0.320552  0  1.871495  0
O  O96  1  0.28240518  0.55127940  0.39909836  1  -0.44067  0  -0.115922  -0.309088  0  1.943553  0
O  O97  1  0.52790652  0.55635095  0.33091646  1  -0.442363  0  -0.129207  -0.320411  0  1.872135  0
