# generated using pymatgen
data_MnH11C9N9O2
_symmetry_space_group_name_H-M   'P 1'
_cell_length_a   6.45623814
_cell_length_b   10.47186576
_cell_length_c   10.47183639
_cell_angle_alpha   68.42954504
_cell_angle_beta   76.82551038
_cell_angle_gamma   76.82567002
_symmetry_Int_Tables_number   1
_chemical_formula_structural   MnH11C9N9O2
_chemical_formula_sum   'Mn2 H22 C18 N18 O4'
_cell_volume   632.90441257
_cell_formula_units_Z   2
loop_
 _symmetry_equiv_pos_site_id
 _symmetry_equiv_pos_as_xyz
  1  'x, y, z'
loop_
 _atom_site_type_symbol
 _atom_site_label
 _atom_site_symmetry_multiplicity
 _atom_site_fract_x
 _atom_site_fract_y
 _atom_site_fract_z
 _atom_site_occupancy
 _atom_site_hle17_ddec_charge
 _atom_site_hle17_ddec_spin_density
 _atom_site_hle17_ddec_sum_bond_order
 _atom_site_hle17_magmom
 _atom_site_hse06_10hf_ddec_charge
 _atom_site_hse06_10hf_ddec_spin_density
 _atom_site_hse06_10hf_ddec_sum_bond_order
 _atom_site_hse06_10hf_magmom
 _atom_site_hse06_ddec_charge
 _atom_site_hse06_ddec_spin_density
 _atom_site_hse06_ddec_sum_bond_order
 _atom_site_hse06_magmom
 _atom_site_pbe_cm5_charge
 _atom_site_pbe_ddec_charge
 _atom_site_pbe_ddec_spin_density
 _atom_site_pbe_ddec_sum_bond_order
 _atom_site_pbe_magmom
Mn  Mn0  1  0.74999590  0.42957748  0.57042368  1  0.923521  -4.759553  2.024589  -4.619  0.735227  -4.66716  2.534744  -4.461  0.79229  -4.732567  2.480965  -4.546  0.599685  0.690279  -4.600132  2.57491  -4.374
Mn  Mn1  1  0.24999723  0.57042253  0.42957698  1  0.923504  -4.759552  2.024613  -4.619  0.735191  -4.667157  2.534777  -4.461  0.792284  -4.732556  2.480936  -4.546  0.599688  0.690253  -4.600128  2.574946  -4.374
H  H2  1  0.66731899  0.34807034  0.35031140  1  0.343312  0.001024  0.917169  0.0  0.314419  0.000675  1.00115  0.0  0.324358  0.000875  0.991204  0.0  0.312171  0.307283  0.000442  1.008109  -0.001
H  H3  1  0.83268125  0.64968548  0.65193218  1  0.343243  0.001025  0.917296  0.0  0.314378  0.000675  1.00124  0.0  0.324317  0.000875  0.991294  0.0  0.312136  0.307242  0.000442  1.008212  -0.001
H  H4  1  0.33268210  0.65192966  0.64968625  1  0.343243  0.001025  0.917264  0.0  0.314383  0.000675  1.001186  0.0  0.324323  0.000875  0.991237  0.0  0.312162  0.307248  0.000442  1.008144  -0.001
H  H5  1  0.16731741  0.35031141  0.34806982  1  0.343304  0.001024  0.917217  0.0  0.314424  0.000675  1.001178  0.0  0.324364  0.000875  0.991232  0.0  0.312175  0.307288  0.000442  1.008144  -0.001
H  H6  1  0.76176523  0.88878429  0.86052405  1  0.113502  -0.000257  0.940669  0.0  0.123411  -0.000456  1.000397  0.0  0.127026  -0.000336  0.99896  0.0  0.110651  0.120854  -0.000508  1.001671  0.0
H  H7  1  0.73822959  0.13947604  0.11121792  1  0.113524  -0.000257  0.940669  0.0  0.123422  -0.000456  1.000395  0.0  0.127039  -0.000336  0.998956  0.0  0.110666  0.120855  -0.000508  1.001675  0.0
H  H8  1  0.23823401  0.11121675  0.13947538  1  0.113504  -0.000259  0.940697  0.0  0.123404  -0.000456  1.000429  0.0  0.127019  -0.000337  0.998992  0.0  0.11065  0.120842  -0.000508  1.001698  0.0
H  H9  1  0.26176672  0.86052397  0.88878325  1  0.113499  -0.000259  0.940701  0.0  0.123401  -0.000455  1.000429  0.0  0.127016  -0.000337  0.99899  0.0  0.110645  0.120841  -0.000508  1.0017  0.0
H  H10  1  0.75000309  0.90777368  0.09222432  1  0.097231  -0.000258  0.985568  0.0  0.097727  -0.000665  1.061445  0.0  0.100592  -0.000539  1.059294  0.0  0.102744  0.095579  -0.000861  1.063018  0.0
H  H11  1  0.25000169  0.09222423  0.90777454  1  0.097218  -0.000259  0.985595  0.0  0.097724  -0.000665  1.061466  0.0  0.100589  -0.000539  1.059318  0.0  0.102725  0.095569  -0.000861  1.063034  0.0
H  H12  1  0.74692102  0.99694130  0.48075482  1  0.134276  -8.5e-05  0.966634  0.0  0.147514  -0.000244  1.035573  0.0  0.150254  -0.000193  1.034252  0.0  0.09865  0.145573  -0.000342  1.036441  0.0
H  H13  1  0.75307736  0.51924160  0.00306244  1  0.134315  -8.5e-05  0.966632  0.0  0.147546  -0.000244  1.03558  0.0  0.150286  -0.000193  1.03426  0.0  0.098679  0.145603  -0.000342  1.036445  0.0
H  H14  1  0.25308248  0.00306181  0.51924325  1  0.134282  -8.5e-05  0.966647  0.0  0.147521  -0.000243  1.03559  0.0  0.150261  -0.000194  1.03427  0.0  0.098663  0.14558  -0.000342  1.036457  0.0
H  H15  1  0.24692155  0.48075425  0.99694087  1  0.134309  -8.4e-05  0.96661  0.0  0.147571  -0.000244  1.035531  0.0  0.150309  -0.000193  1.034213  0.0  0.098648  0.145621  -0.000343  1.0364  0.0
H  H16  1  0.60331401  0.93257980  0.65144369  1  0.134755  -4.3e-05  0.931121  0.0  0.154664  -0.000292  0.992994  0.0  0.15701  -0.000217  0.99136  0.0  0.103066  0.152841  -0.000387  0.994356  0.0
H  H17  1  0.89668496  0.34855445  0.06742300  1  0.134747  -4.4e-05  0.931119  0.0  0.154669  -0.000291  0.992978  0.0  0.157017  -0.000218  0.991342  0.0  0.103066  0.152843  -0.000387  0.994345  0.0
H  H18  1  0.39668950  0.06742332  0.34855533  1  0.134776  -4.2e-05  0.931182  0.0  0.1547  -0.000291  0.993031  0.0  0.157048  -0.000218  0.991394  0.0  0.103085  0.152879  -0.000387  0.994392  0.0
H  H19  1  0.10331503  0.65144348  0.93258034  1  0.134764  -4.3e-05  0.931111  0.0  0.154679  -0.000292  0.992982  0.0  0.157027  -0.000217  0.991345  0.0  0.10308  0.152855  -0.000387  0.994348  0.0
H  H20  1  0.88954115  0.90326795  0.62419204  1  0.128742  -7.9e-05  0.940537  0.0  0.149506  -0.000267  0.99972  0.0  0.151528  -0.000184  0.999237  0.0  0.098936  0.147965  -0.00035  1.000248  0.0
H  H21  1  0.61045836  0.37580602  0.09673524  1  0.128716  -8.1e-05  0.94056  0.0  0.149482  -0.000266  0.999745  0.0  0.151502  -0.000184  0.999263  0.0  0.098918  0.147938  -0.00035  1.000274  0.0
H  H22  1  0.11046420  0.09673413  0.37580711  1  0.128742  -7.9e-05  0.940587  0.0  0.149512  -0.000267  0.999763  0.0  0.151533  -0.000184  0.999281  0.0  0.098928  0.147969  -0.00035  1.000287  0.0
H  H23  1  0.38954163  0.62419191  0.90326714  1  0.128726  -8e-05  0.940558  0.0  0.14949  -0.000267  0.999744  0.0  0.15151  -0.000184  0.999264  0.0  0.098927  0.147947  -0.00035  1.00027  0.0
C  C24  1  0.75266651  0.11081690  0.75418048  1  0.18505  -0.001085  3.763774  -0.001  0.179934  -0.003855  4.014547  -0.003  0.18648  -0.002829  4.033726  -0.002  0.12934  0.175226  -0.004947  4.001563  -0.003
C  C25  1  0.74732800  0.24581918  0.88918487  1  0.185015  -0.001084  3.763869  -0.001  0.179878  -0.003854  4.014633  -0.003  0.186431  -0.00285  4.033817  -0.002  0.129321  0.175176  -0.004948  4.001626  -0.003
C  C26  1  0.24733247  0.88918518  0.24581955  1  0.185037  -0.001091  3.763828  -0.001  0.179896  -0.003857  4.014608  -0.003  0.186441  -0.002831  4.033787  -0.002  0.129339  0.17519  -0.004947  4.001631  -0.003
C  C27  1  0.25267016  0.75417978  0.11081548  1  0.185024  -0.001083  3.763855  -0.001  0.179887  -0.003853  4.014635  -0.003  0.18643  -0.002838  4.033815  -0.002  0.129319  0.175184  -0.004947  4.001646  -0.003
C  C28  1  0.75708283  0.98937605  0.87031981  1  -0.129453  -0.001201  3.667983  -0.001  -0.153958  -0.002111  3.920368  -0.001  -0.160314  -0.001252  3.939996  -0.001  -0.076913  -0.150251  -0.002841  3.908077  -0.002
C  C29  1  0.74291386  0.12967850  0.01062679  1  -0.129397  -0.0012  3.667902  -0.001  -0.153869  -0.002112  3.920246  -0.001  -0.160229  -0.001233  3.939875  -0.001  -0.076874  -0.150155  -0.002841  3.907948  -0.002
C  C30  1  0.24291750  0.01062706  0.12967775  1  -0.129422  -0.001196  3.667962  -0.001  -0.153908  -0.002112  3.920334  -0.001  -0.160263  -0.001246  3.939961  -0.001  -0.076898  -0.150197  -0.002842  3.908031  -0.002
C  C31  1  0.25708429  0.87032046  0.98937356  1  -0.129406  -0.001192  3.667925  -0.001  -0.153893  -0.002111  3.920298  -0.001  -0.160247  -0.001247  3.939923  -0.001  -0.076868  -0.150183  -0.002841  3.907998  -0.002
C  C32  1  0.75000071  0.00017807  0.99982126  1  0.006613  -0.001365  3.73217  -0.001  -0.009045  -0.003852  3.985454  -0.003  -0.005059  -0.00311  4.003369  -0.002  -0.065974  -0.011464  -0.004846  3.973724  -0.004
C  C33  1  0.24999904  0.99982089  0.00017792  1  0.006667  -0.001365  3.732194  -0.001  -0.009002  -0.003853  3.985475  -0.003  -0.005019  -0.003105  4.00339  -0.002  -0.065939  -0.01141  -0.004846  3.973727  -0.004
C  C34  1  0.74370945  0.11063614  0.61476234  1  0.214405  -0.002425  3.697378  -0.003  0.203095  -0.006714  3.967717  -0.006  0.212938  -0.005368  3.981873  -0.005  0.133608  0.19644  -0.007912  3.95804  -0.007
C  C35  1  0.75628776  0.38523602  0.88936691  1  0.21438  -0.002437  3.697652  -0.003  0.203107  -0.006711  3.967945  -0.006  0.212943  -0.005368  3.982116  -0.005  0.133573  0.19645  -0.007912  3.958253  -0.007
C  C36  1  0.25628928  0.88936698  0.38523639  1  0.214366  -0.002406  3.697641  -0.003  0.203075  -0.006713  3.967971  -0.006  0.212915  -0.005371  3.982134  -0.005  0.133587  0.196421  -0.00791  3.9583  -0.007
C  C37  1  0.24371358  0.61476294  0.11063395  1  0.214371  -0.00243  3.697553  -0.003  0.20306  -0.006716  3.9679  -0.006  0.2129  -0.005367  3.982066  -0.005  0.133585  0.196406  -0.007913  3.958215  -0.007
C  C38  1  0.74691304  0.97876109  0.59041972  1  -0.36997  -0.000321  3.68707  0.0  -0.45116  -0.000837  3.927274  -0.001  -0.455017  -0.000556  3.933248  0.0  -0.240688  -0.448392  -0.001121  3.923352  -0.001
C  C39  1  0.75308508  0.40957692  0.02124228  1  -0.36995  -0.000317  3.687179  0.0  -0.45115  -0.000837  3.927341  -0.001  -0.455007  -0.000553  3.933318  0.0  -0.240699  -0.4484  -0.001122  3.923427  -0.001
C  C40  1  0.25308914  0.02124099  0.40957797  1  -0.369991  -0.000323  3.687282  0.0  -0.4512  -0.000839  3.927468  -0.001  -0.455056  -0.000549  3.933439  0.0  -0.240702  -0.448433  -0.001121  3.923543  -0.001
C  C41  1  0.24691517  0.59041997  0.97875950  1  -0.369971  -0.000321  3.687111  0.0  -0.45119  -0.000835  3.927257  -0.001  -0.455049  -0.000557  3.933234  0.0  -0.240698  -0.448433  -0.001122  3.923337  -0.001
N  N42  1  0.38676591  0.48360056  0.63944278  1  -0.614202  -0.018767  2.793491  0.003  -0.566124  -0.032477  3.108639  -0.003  -0.595621  -0.021332  3.112973  0.005  -0.293596  -0.543581  -0.042134  3.104999  -0.009
N  N43  1  0.11322962  0.36055890  0.51640049  1  -0.614426  -0.018806  2.793025  0.003  -0.566385  -0.032509  3.108171  -0.003  -0.595897  -0.021332  3.112503  0.005  -0.293752  -0.543825  -0.042157  3.104537  -0.009
N  N44  1  0.61322696  0.51640049  0.36055849  1  -0.614406  -0.018806  2.793085  0.003  -0.56639  -0.03251  3.108252  -0.003  -0.595898  -0.021355  3.112582  0.005  -0.293746  -0.543837  -0.042157  3.10464  -0.009
N  N45  1  0.88676853  0.63944007  0.48360273  1  -0.614346  -0.018801  2.793072  0.003  -0.566328  -0.0325  3.108222  -0.003  -0.595839  -0.021378  3.112553  0.005  -0.293717  -0.543737  -0.042149  3.104529  -0.009
N  N46  1  0.31066193  0.40747247  0.75133424  1  0.409722  0.003883  4.155384  0.001  0.433852  -0.009347  4.442566  -0.011  0.450591  -0.003325  4.472887  -0.005  0.096979  0.421948  -0.014627  4.421435  -0.015
N  N47  1  0.18934280  0.24865406  0.59253597  1  0.409623  0.003871  4.15539  0.001  0.433828  -0.009352  4.442456  -0.011  0.45057  -0.003321  4.472765  -0.005  0.097095  0.421927  -0.014634  4.421332  -0.015
N  N48  1  0.68934193  0.59253583  0.24865423  1  0.409614  0.003863  4.155435  0.001  0.433841  -0.009355  4.44248  -0.011  0.450583  -0.003331  4.472787  -0.005  0.097101  0.421935  -0.014634  4.421358  -0.015
N  N49  1  0.81065744  0.75134282  0.40746677  1  0.409566  0.003861  4.155201  0.001  0.433794  -0.009352  4.442239  -0.011  0.450538  -0.00334  4.472545  -0.005  0.097071  0.421897  -0.014637  4.421126  -0.015
N  N50  1  0.24263643  0.33454528  0.85944476  1  -0.336141  -0.058897  2.422316  -0.059  -0.329997  -0.061035  2.656998  -0.057  -0.337584  -0.057341  2.669024  -0.054  -0.151908  -0.324055  -0.06705  2.648787  -0.061
N  N51  1  0.25735789  0.14055952  0.66545039  1  -0.3358  -0.058859  2.422808  -0.059  -0.329702  -0.061  2.657453  -0.057  -0.337294  -0.057341  2.669492  -0.054  -0.15179  -0.323765  -0.067016  2.649251  -0.061
N  N52  1  0.75736114  0.66544953  0.14055912  1  -0.335807  -0.05885  2.422761  -0.059  -0.32972  -0.060998  2.657395  -0.057  -0.337306  -0.057314  2.669425  -0.054  -0.151805  -0.323781  -0.067017  2.649195  -0.061
N  N53  1  0.74263893  0.85943841  0.33455148  1  -0.335845  -0.058854  2.422624  -0.059  -0.329746  -0.061009  2.657243  -0.057  -0.33734  -0.057295  2.669284  -0.054  -0.151811  -0.323808  -0.067022  2.649046  -0.061
N  N54  1  0.74999837  0.23549037  0.76451127  1  -0.382081  -0.031005  3.267782  -0.024  -0.328848  -0.034742  3.532171  -0.025  -0.34774  -0.029901  3.550442  -0.02  -0.313375  -0.314863  -0.039521  3.518768  -0.029
N  N55  1  0.24999902  0.76451171  0.23548899  1  -0.382072  -0.031001  3.267808  -0.024  -0.328784  -0.03474  3.532126  -0.025  -0.34768  -0.029907  3.550423  -0.02  -0.313355  -0.314798  -0.039519  3.518729  -0.029
N  N56  1  0.72315990  0.23399205  0.52313914  1  -0.160709  -0.024562  3.128831  -0.018  -0.120723  -0.02854  3.424514  -0.02  -0.131262  -0.024502  3.436556  -0.016  -0.22388  -0.113294  -0.032768  3.416156  -0.024
N  N57  1  0.77683881  0.47685953  0.76601067  1  -0.16069  -0.024548  3.128927  -0.018  -0.120717  -0.02854  3.4246  -0.02  -0.131256  -0.024502  3.436645  -0.016  -0.223882  -0.113293  -0.032768  3.416239  -0.024
N  N58  1  0.27683724  0.76601107  0.47685981  1  -0.160685  -0.024574  3.128866  -0.018  -0.120713  -0.028543  3.42456  -0.02  -0.131252  -0.024482  3.436601  -0.016  -0.223888  -0.113288  -0.032767  3.416207  -0.024
N  N59  1  0.22316093  0.52313944  0.23399137  1  -0.160694  -0.02456  3.128888  -0.018  -0.120702  -0.028535  3.424566  -0.02  -0.131243  -0.02451  3.436609  -0.016  -0.223898  -0.113278  -0.03277  3.416207  -0.024
O  O60  1  0.70150423  0.24346690  0.39180387  1  -0.375961  -0.001091  2.031036  -0.002  -0.331991  -0.001288  2.248824  -0.002  -0.350452  -0.000383  2.245967  -0.001  -0.258015  -0.318358  -0.002777  2.25006  -0.003
O  O61  1  0.79849668  0.60819426  0.75653675  1  -0.375909  -0.00109  2.03108  -0.002  -0.331969  -0.001294  2.248853  -0.002  -0.350429  -0.000381  2.245993  -0.001  -0.25798  -0.318347  -0.002778  2.250101  -0.003
O  O62  1  0.29849953  0.75653518  0.60819454  1  -0.375898  -0.001095  2.030973  -0.002  -0.331964  -0.001279  2.248762  -0.002  -0.350425  -0.000401  2.245905  -0.001  -0.257987  -0.31833  -0.002776  2.249997  -0.003
O  O63  1  0.20150147  0.39180471  0.24346551  1  -0.375975  -0.001091  2.031053  -0.002  -0.332027  -0.001299  2.248839  -0.002  -0.350486  -0.00037  2.245979  -0.001  -0.258022  -0.318393  -0.002778  2.250077  -0.003
