# generated using pymatgen
data_Pr2H13C24Br3O14
_symmetry_space_group_name_H-M   'P 1'
_cell_length_a   12.38518281
_cell_length_b   12.38511467
_cell_length_c   21.49374006
_cell_angle_alpha   85.66152096
_cell_angle_beta   85.66191452
_cell_angle_gamma   71.85388083
_symmetry_Int_Tables_number   1
_chemical_formula_structural   Pr2H13C24Br3O14
_chemical_formula_sum   'Pr8 H52 C96 Br12 O56'
_cell_volume   3119.29236287
_cell_formula_units_Z   4
loop_
 _symmetry_equiv_pos_site_id
 _symmetry_equiv_pos_as_xyz
  1  'x, y, z'
loop_
 _atom_site_type_symbol
 _atom_site_label
 _atom_site_symmetry_multiplicity
 _atom_site_fract_x
 _atom_site_fract_y
 _atom_site_fract_z
 _atom_site_occupancy
 _atom_site_pbe_bader_charge
 _atom_site_pbe_bader_spin_density
 _atom_site_pbe_cm5_charge
 _atom_site_pbe_ddec_charge
 _atom_site_pbe_ddec_spin_density
 _atom_site_pbe_ddec_sum_bond_order
 _atom_site_pbe_magmom
Pr  Pr0  1  0.48158534  0.09288350  0.64240241  1  2.294611  0  1.484386  2.174225  0  2.074869  0
Pr  Pr1  1  0.90710944  0.51842894  0.85759962  1  2.294619  0  1.484495  2.174288  0  2.074556  0
Pr  Pr2  1  0.51842425  0.90710814  0.35760107  1  2.294665  0  1.484404  2.174216  0  2.074797  0
Pr  Pr3  1  0.09288481  0.48157790  0.14240339  1  2.294588  0  1.484482  2.17427  0  2.074637  0
Pr  Pr4  1  0.12254255  0.21675550  0.73435061  1  2.283803  0  1.503545  2.177278  0  2.091009  0
Pr  Pr5  1  0.78323394  0.87745533  0.76565137  1  2.283798  0  1.503591  2.177367  0  2.090886  0
Pr  Pr6  1  0.87745684  0.78323683  0.26564954  1  2.283766  0  1.503581  2.177426  0  2.090821  0
Pr  Pr7  1  0.21676288  0.12255076  0.23434505  1  2.283777  0  1.503497  2.177311  0  2.090952  0
H  H8  1  0.55685799  0.18909195  0.50913803  1  0.604086  0  0.321103  0.405453  0  0.894449  0
H  H9  1  0.81090217  0.44314642  0.99086433  1  0.604037  0  0.321158  0.405565  0  0.894343  0
H  H10  1  0.44314139  0.81090524  0.49086471  1  0.604044  0  0.321144  0.405625  0  0.894245  0
H  H11  1  0.18909124  0.55685663  0.00913795  1  0.604104  0  0.321144  0.405581  0  0.894307  0
H  H12  1  0.47529520  0.12739404  0.48581097  1  0.654345  0  0.308495  0.415754  0  0.902085  0
H  H13  1  0.87260252  0.52470672  0.01419052  1  0.654334  0  0.308527  0.415795  0  0.902027  0
H  H14  1  0.52470503  0.87260451  0.51418981  1  0.654333  0  0.308514  0.415818  0  0.901999  0
H  H15  1  0.12739259  0.47529745  0.98581025  1  0.65434  0  0.308505  0.415811  0  0.902012  0
H  H16  1  0.90810709  0.19435189  0.75275129  1  0.622228  0  0.309757  0.393878  0  0.936501  0
H  H17  1  0.80576635  0.09189392  0.74726703  1  0.622549  0  0.309721  0.393741  0  0.936552  0
H  H18  1  0.09189293  0.80572604  0.24725914  1  0.62277  0  0.309822  0.393981  0  0.936301  0
H  H19  1  0.19431378  0.90810528  0.25274707  1  0.622576  0  0.309833  0.393953  0  0.936364  0
H  H20  1  0.88790654  0.25379466  0.68508685  1  0.622395  0  0.333146  0.416342  0  0.864421  0
H  H21  1  0.74624987  0.11206921  0.81491229  1  0.622426  0  0.333278  0.416387  0  0.864448  0
H  H22  1  0.11208171  0.74623670  0.31491351  1  0.622758  0  0.333178  0.416267  0  0.864649  0
H  H23  1  0.25378356  0.88791272  0.18508872  1  0.621906  0  0.33318  0.416296  0  0.86457  0
H  H24  1  0.44939155  0.49772409  0.63041933  1  0.119759  0  0.114024  0.13453  0  0.981174  0
H  H25  1  0.50227289  0.55060341  0.86958347  1  0.119695  0  0.114043  0.134604  0  0.981158  0
H  H26  1  0.55060954  0.50226690  0.36958406  1  0.1197  0  0.11399  0.134494  0  0.981132  0
H  H27  1  0.49773160  0.44939141  0.13041823  1  0.119763  0  0.114062  0.134663  0  0.981112  0
H  H28  1  0.17984797  0.79506610  0.68993664  1  0.100917  0  0.114213  0.131511  0  0.982564  0
H  H29  1  0.20493370  0.82015523  0.81006138  1  0.100946  0  0.114213  0.131493  0  0.982477  0
H  H30  1  0.82015311  0.20493382  0.31005986  1  0.10091  0  0.114209  0.131533  0  0.982502  0
H  H31  1  0.79506397  0.17984410  0.18993995  1  0.100959  0  0.11422  0.131548  0  0.982446  0
H  H32  1  0.14448289  0.46231086  0.72802511  1  0.104651  0  0.111912  0.102135  0  1.071595  0
H  H33  1  0.53768963  0.85551073  0.77197896  1  0.104802  0  0.11194  0.102094  0  1.071566  0
H  H34  1  0.85551649  0.53768877  0.27197334  1  0.104415  0  0.111945  0.102198  0  1.071593  0
H  H35  1  0.46230890  0.14448672  0.22802287  1  0.104746  0  0.11195  0.102153  0  1.071557  0
H  H36  1  0.99787846  0.90378610  0.61829554  1  0.113508  0  0.116784  0.137619  0  0.98983  0
H  H37  1  0.09620917  0.00213013  0.88169957  1  0.113373  0  0.11677  0.137613  0  0.989904  0
H  H38  1  0.00213453  0.09621018  0.38170294  1  0.113205  0  0.11675  0.137552  0  0.990036  0
H  H39  1  0.90379361  0.99787495  0.11829384  1  0.113583  0  0.116756  0.137632  0  0.989909  0
H  H40  1  0.00382224  0.79917322  0.42977962  1  0.109095  0  0.111497  0.124643  0  0.998975  0
H  H41  1  0.20083135  0.99618022  0.07021705  1  0.109126  0  0.111518  0.124663  0  0.998867  0
H  H42  1  0.99617799  0.20082533  0.57022023  1  0.109092  0  0.111501  0.124638  0  0.999013  0
H  H43  1  0.79916719  0.00382211  0.92977480  1  0.109007  0  0.111509  0.124629  0  0.998925  0
H  H44  1  0.69338513  0.01090423  0.51558291  1  0.157309  0  0.109988  0.107697  0  1.060943  0
H  H45  1  0.98909095  0.30661702  0.98441265  1  0.157279  0  0.10997  0.107677  0  1.060954  0
H  H46  1  0.30662020  0.98909357  0.48441630  1  0.15728  0  0.109983  0.107668  0  1.060993  0
H  H47  1  0.01090673  0.69338313  0.01558585  1  0.15735  0  0.10997  0.107715  0  1.060855  0
H  H48  1  0.69552943  0.75727232  0.51473737  1  0.126836  0  0.112052  0.124602  0  1.027907  0
H  H49  1  0.24272633  0.30447523  0.98525794  1  0.126584  0  0.112  0.124454  0  1.027993  0
H  H50  1  0.30447847  0.24272065  0.48526333  1  0.126496  0  0.111994  0.124459  0  1.02794  0
H  H51  1  0.75726626  0.69551918  0.01474149  1  0.126896  0  0.112019  0.124538  0  1.027982  0
H  H52  1  0.92726482  0.43211273  0.57319601  1  0.137837  0  0.100355  0.109778  0  1.042378  0
H  H53  1  0.56788622  0.07272662  0.92681252  1  0.137202  0  0.100298  0.109692  0  1.042403  0
H  H54  1  0.07273370  0.56788634  0.42680576  1  0.137663  0  0.10032  0.109784  0  1.042398  0
H  H55  1  0.43210891  0.92727025  0.07318856  1  0.137475  0  0.100284  0.109727  0  1.042269  0
H  H56  1  0.75106394  0.66890563  0.71075831  1  0.133723  0  0.112353  0.100408  0  1.084357  0
H  H57  1  0.33110061  0.24892992  0.78924160  1  0.133576  0  0.112364  0.10045  0  1.084296  0
H  H58  1  0.24893116  0.33110177  0.28924278  1  0.133721  0  0.112396  0.100477  0  1.084343  0
H  H59  1  0.66889368  0.75106641  0.21075582  1  0.133661  0  0.112422  0.100563  0  1.084288  0
C  C60  1  0.34320047  0.34181234  0.66732428  1  1.542475  0  0.222479  0.625234  0  4.180093  0
C  C61  1  0.65819079  0.65678000  0.83267757  1  1.542388  0  0.222595  0.625422  0  4.180117  0
C  C62  1  0.65679297  0.65818424  0.33267641  1  1.541563  0  0.222569  0.625369  0  4.180054  0
C  C63  1  0.34180519  0.34321905  0.16732198  1  1.542389  0  0.222679  0.625574  0  4.180207  0
C  C64  1  0.30068777  0.46644040  0.67737642  1  -0.061377  0  -0.015833  -0.026109  0  3.960273  0
C  C65  1  0.53355877  0.69930408  0.82262341  1  -0.06129  0  -0.015762  -0.026101  0  3.960289  0
C  C66  1  0.69931672  0.53355361  0.32262531  1  -0.061375  0  -0.01589  -0.026265  0  3.960331  0
C  C67  1  0.46644316  0.30069314  0.17737643  1  -0.061387  0  -0.015812  -0.026204  0  3.960306  0
C  C68  1  0.36651481  0.53603679  0.65378530  1  0.045627  0  -0.078109  -0.13048  0  3.923043  0
C  C69  1  0.46396109  0.63347230  0.84621524  1  0.045869  0  -0.07817  -0.130621  0  3.922999  0
C  C70  1  0.63348542  0.46396014  0.34621369  1  0.045758  0  -0.078087  -0.130402  0  3.922646  0
C  C71  1  0.53603914  0.36652463  0.15378608  1  0.0456  0  -0.078159  -0.130622  0  3.923075  0
C  C72  1  0.32293168  0.65286756  0.65995545  1  -0.110581  0  -0.01998  0.095628  0  3.998663  0
C  C73  1  0.34713027  0.67706100  0.84004643  1  -0.111129  0  -0.020023  0.095624  0  3.998667  0
C  C74  1  0.67706518  0.34712232  0.34004167  1  -0.110519  0  -0.019891  0.095684  0  3.998594  0
C  C75  1  0.65287081  0.32293648  0.15995483  1  -0.110935  0  -0.019999  0.095589  0  3.998764  0
C  C76  1  0.21490884  0.70305412  0.68767080  1  0.018457  0  -0.081575  -0.140799  0  3.964215  0
C  C77  1  0.29694836  0.78508719  0.81232951  1  0.018257  0  -0.08145  -0.14058  0  3.963837  0
C  C78  1  0.78509055  0.29694713  0.31232479  1  0.018277  0  -0.081515  -0.140732  0  3.96416  0
C  C79  1  0.70305441  0.21491463  0.18767149  1  0.018579  0  -0.081492  -0.140593  0  3.963929  0
C  C80  1  0.15141706  0.63278749  0.71270752  1  -0.057232  0  -0.012988  -0.021924  0  3.947976  0
C  C81  1  0.36722117  0.84858233  0.78729146  1  -0.057108  0  -0.012972  -0.022071  0  3.948027  0
C  C82  1  0.84858231  0.36721943  0.28729155  1  -0.057233  0  -0.013087  -0.022076  0  3.947787  0
C  C83  1  0.63278076  0.15141894  0.21271007  1  -0.057124  0  -0.013002  -0.022224  0  3.94814  0
C  C84  1  0.19513966  0.51500082  0.70807223  1  0.08432  0  -0.072547  -0.09775  0  3.909611  0
C  C85  1  0.48499753  0.80485537  0.79193187  1  0.084167  0  -0.072591  -0.097621  0  3.909726  0
C  C86  1  0.80486395  0.48500480  0.29192951  1  0.084484  0  -0.072597  -0.097795  0  3.909534  0
C  C87  1  0.51500099  0.19514370  0.20807036  1  0.084424  0  -0.072591  -0.097612  0  3.909694  0
C  C88  1  0.03499305  0.68203528  0.74294337  1  1.586841  0  0.235279  0.654014  0  4.167295  0
C  C89  1  0.31796820  0.96499790  0.75705822  1  1.586782  0  0.235368  0.654218  0  4.166428  0
C  C90  1  0.96500462  0.31797054  0.25705443  1  1.586902  0  0.235489  0.654287  0  4.166569  0
C  C91  1  0.68202863  0.03499925  0.24294463  1  1.58683  0  0.235444  0.654282  0  4.166365  0
C  C92  1  0.77246883  0.02903640  0.62563834  1  1.579742  0  0.230844  0.641632  0  4.183262  0
C  C93  1  0.97095140  0.22754387  0.87435812  1  1.579979  0  0.230795  0.641469  0  4.183896  0
C  C94  1  0.22753991  0.97095712  0.37436230  1  1.579768  0  0.230738  0.641449  0  4.183604  0
C  C95  1  0.02904457  0.77246247  0.12563739  1  1.579653  0  0.230798  0.641534  0  4.183475  0
C  C96  1  0.84002415  0.96687875  0.57137644  1  -0.056256  0  -0.014898  -0.039058  0  3.966299  0
C  C97  1  0.03311878  0.15997693  0.92861662  1  -0.056311  0  -0.014909  -0.039029  0  3.966379  0
C  C98  1  0.15997778  0.03312091  0.42862097  1  -0.056229  0  -0.014981  -0.039139  0  3.966321  0
C  C99  1  0.96687889  0.84002808  0.07137888  1  -0.056398  0  -0.014894  -0.038935  0  3.966298  0
C  C100  1  0.95579014  0.90524198  0.57538451  1  0.052264  0  -0.0734  -0.123809  0  3.895229  0
C  C101  1  0.09475852  0.04421260  0.92461194  1  0.052345  0  -0.073382  -0.123759  0  3.895357  0
C  C102  1  0.04421432  0.09476419  0.42461577  1  0.05263  0  -0.07342  -0.123765  0  3.895401  0
C  C103  1  0.90524256  0.95578975  0.07538120  1  0.052307  0  -0.073446  -0.124004  0  3.895571  0
C  C104  1  0.01337207  0.84614372  0.52389364  1  -0.119597  0  -0.014565  0.112532  0  3.973131  0
C  C105  1  0.15386136  0.98663152  0.97610326  1  -0.119212  0  -0.014562  0.112401  0  3.973138  0
C  C106  1  0.98662899  0.15385862  0.47610834  1  -0.119478  0  -0.014456  0.112656  0  3.973044  0
C  C107  1  0.84614311  0.01337384  0.02389286  1  -0.120023  0  -0.014473  0.112737  0  3.973033  0
C  C108  1  0.95857395  0.84546205  0.46978142  1  -0.077579  0  -0.079038  -0.130137  0  3.933506  0
C  C109  1  0.15454422  0.04142473  0.03021471  1  -0.077979  0  -0.079037  -0.129964  0  3.933551  0
C  C110  1  0.04142458  0.15453783  0.53021938  1  -0.077698  0  -0.07908  -0.130177  0  3.933668  0
C  C111  1  0.84545346  0.95857542  0.96978193  1  -0.07764  0  -0.079106  -0.130251  0  3.933597  0
C  C112  1  0.84230424  0.90417122  0.46728637  1  0.06157  0  -0.014293  -0.030108  0  3.96578  0
C  C113  1  0.09583389  0.15768915  0.03270971  1  0.062372  0  -0.014404  -0.030326  0  3.965812  0
C  C114  1  0.15769343  0.09583136  0.53271250  1  0.061616  0  -0.014377  -0.030214  0  3.965644  0
C  C115  1  0.90415954  0.84231474  0.96728416  1  0.062366  0  -0.014225  -0.030064  0  3.965693  0
C  C116  1  0.78373286  0.96564345  0.51765249  1  -0.034076  0  -0.0775  -0.110348  0  3.957108  0
C  C117  1  0.03434949  0.21626229  0.98234232  1  -0.034249  0  -0.077307  -0.110186  0  3.956758  0
C  C118  1  0.21626652  0.03435699  0.48234500  1  -0.034073  0  -0.077365  -0.110177  0  3.956808  0
C  C119  1  0.96564903  0.78374328  0.01765219  1  -0.034466  0  -0.077459  -0.110424  0  3.956864  0
C  C120  1  0.78080139  0.89749831  0.41120669  1  1.572518  0  0.242487  0.65919  0  4.166449  0
C  C121  1  0.10249092  0.21920887  0.08878738  1  1.572511  0  0.242389  0.659316  0  4.166323  0
C  C122  1  0.21919204  0.10249664  0.58879454  1  1.572946  0  0.24232  0.659004  0  4.166505  0
C  C123  1  0.89750506  0.78079423  0.91121060  1  1.572996  0  0.242413  0.659366  0  4.166278  0
C  C124  1  0.63986631  0.84200720  0.62997749  1  1.543188  0  0.221548  0.612807  0  4.180542  0
C  C125  1  0.15799136  0.36013070  0.87002208  1  1.543105  0  0.221466  0.612747  0  4.180585  0
C  C126  1  0.36012881  0.15799535  0.37002055  1  1.543115  0  0.221472  0.612757  0  4.180531  0
C  C127  1  0.84200122  0.63986857  0.12997947  1  1.543169  0  0.221475  0.612647  0  4.180493  0
C  C128  1  0.71607224  0.72680707  0.61444894  1  -0.071687  0  -0.015832  -0.03526  0  3.993287  0
C  C129  1  0.27319222  0.28392474  0.88554724  1  -0.071863  0  -0.01589  -0.035357  0  3.993339  0
C  C130  1  0.28392376  0.27318874  0.38554656  1  -0.071285  0  -0.015929  -0.035455  0  3.993959  0
C  C131  1  0.72680289  0.71608104  0.11445439  1  -0.0718  0  -0.015864  -0.035301  0  3.993366  0
C  C132  1  0.73643060  0.69751472  0.55195822  1  0.063569  0  -0.079214  -0.129469  0  3.922827  0
C  C133  1  0.30248224  0.26356822  0.94803946  1  0.064034  0  -0.079244  -0.129421  0  3.922756  0
C  C134  1  0.26356541  0.30247541  0.44803892  1  0.063406  0  -0.079098  -0.129194  0  3.922607  0
C  C135  1  0.69751714  0.73643303  0.05195985  1  0.063825  0  -0.079215  -0.12943  0  3.922614  0
C  C136  1  0.81142473  0.59131125  0.53809027  1  -0.140214  0  -0.014827  0.106421  0  3.979463  0
C  C137  1  0.40869090  0.18857929  0.96191009  1  -0.140358  0  -0.014852  0.106282  0  3.979406  0
C  C138  1  0.18858145  0.40868710  0.46191120  1  -0.139958  0  -0.01481  0.106362  0  3.979537  0
C  C139  1  0.59130083  0.81141943  0.03808779  1  -0.140393  0  -0.014859  0.106222  0  3.979375  0
C  C140  1  0.86680059  0.51383448  0.58469524  1  -0.019938  0  -0.084823  -0.142291  0  3.960969  0
C  C141  1  0.48617015  0.13319382  0.91530708  1  -0.019144  0  -0.084806  -0.142155  0  3.96072  0
C  C142  1  0.13320304  0.48616547  0.41530535  1  -0.020039  0  -0.084898  -0.142446  0  3.961156  0
C  C143  1  0.51383009  0.86680067  0.08469714  1  -0.019509  0  -0.084765  -0.142184  0  3.960742  0
C  C144  1  0.84526759  0.54332544  0.64714808  1  -0.015801  0  -0.012549  -0.012639  0  3.930105  0
C  C145  1  0.45667065  0.15471454  0.85285456  1  -0.015895  0  -0.012388  -0.01264  0  3.930033  0
C  C146  1  0.15473180  0.45667175  0.35285233  1  -0.015688  0  -0.012557  -0.012742  0  3.93021  0
C  C147  1  0.54332790  0.84527399  0.14714719  1  -0.015971  0  -0.012469  -0.01264  0  3.930306  0
C  C148  1  0.76926769  0.64912633  0.66184525  1  -0.033485  0  -0.071319  -0.116751  0  3.922374  0
C  C149  1  0.35087278  0.23072016  0.83815575  1  -0.033424  0  -0.071225  -0.116568  0  3.922324  0
C  C150  1  0.23072745  0.35086973  0.33815493  1  -0.03358  0  -0.071181  -0.116505  0  3.922635  0
C  C151  1  0.64912319  0.76927726  0.16184666  1  -0.033563  0  -0.071294  -0.116731  0  3.922575  0
C  C152  1  0.90702937  0.46349052  0.69807861  1  1.580049  0  0.232092  0.6427  0  4.175066  0
C  C153  1  0.53651808  0.09294951  0.80193181  1  1.580622  0  0.232003  0.642718  0  4.17503  0
C  C154  1  0.09296403  0.53651820  0.30192576  1  1.580688  0  0.232095  0.642929  0  4.174913  0
C  C155  1  0.46348386  0.90703960  0.19807396  1  1.580614  0  0.232084  0.642718  0  4.175171  0
Br  Br156  1  0.41086233  0.74842777  0.62791068  1  -0.060676  0  0.057822  -0.042872  0  1.588385  0
Br  Br157  1  0.25156625  0.58913748  0.87208964  1  -0.060785  0  0.057813  -0.042904  0  1.588481  0
Br  Br158  1  0.58913705  0.25156699  0.37209216  1  -0.060824  0  0.057821  -0.042872  0  1.588522  0
Br  Br159  1  0.74842971  0.41087129  0.12790857  1  -0.060762  0  0.057781  -0.042932  0  1.588415  0
Br  Br160  1  0.17057934  0.76257754  0.52643932  1  -0.074475  0  0.033124  -0.070222  0  1.548422  0
Br  Br161  1  0.23742206  0.82941427  0.97355591  1  -0.074522  0  0.033105  -0.070252  0  1.548351  0
Br  Br162  1  0.82941748  0.23742367  0.47355871  1  -0.07451  0  0.033131  -0.070225  0  1.548305  0
Br  Br163  1  0.76262154  0.17059781  0.02642430  1  -0.07418  0  0.033097  -0.070271  0  1.548342  0
Br  Br164  1  0.84119455  0.55375588  0.45317699  1  -0.037768  0  0.074844  -0.020721  0  1.583203  0
Br  Br165  1  0.44625160  0.15882286  0.04682187  1  -0.037663  0  0.074826  -0.020708  0  1.583198  0
Br  Br166  1  0.15881843  0.44624607  0.54682032  1  -0.037669  0  0.074838  -0.020688  0  1.583342  0
Br  Br167  1  0.55373589  0.84117230  0.95318007  1  -0.037616  0  0.074861  -0.020624  0  1.583374  0
O  O168  1  0.28472228  0.27675075  0.69071533  1  -1.238815  0  -0.416061  -0.766031  0  2.363145  0
O  O169  1  0.72325908  0.71525795  0.80928905  1  -1.239247  0  -0.416191  -0.766213  0  2.362945  0
O  O170  1  0.71526774  0.72325092  0.30928575  1  -1.238716  0  -0.416115  -0.766146  0  2.362972  0
O  O171  1  0.27674285  0.28474170  0.19071115  1  -1.23899  0  -0.416201  -0.766226  0  2.363103  0
O  O172  1  0.43594548  0.30239831  0.63568107  1  -1.183642  0  -0.376524  -0.609683  0  2.173929  0
O  O173  1  0.69759516  0.56404208  0.86431556  1  -1.182974  0  -0.376528  -0.609701  0  2.174353  0
O  O174  1  0.56405393  0.69758916  0.36431883  1  -1.182936  0  -0.376504  -0.609631  0  2.174148  0
O  O175  1  0.30240167  0.43595589  0.13568586  1  -1.183187  0  -0.37657  -0.609754  0  2.174495  0
O  O176  1  0.99697493  0.61825706  0.78170273  1  -1.225956  0  -0.408781  -0.716633  0  2.388894  0
O  O177  1  0.38175030  0.00302666  0.71829223  1  -1.225888  0  -0.408765  -0.716714  0  2.388292  0
O  O178  1  0.00302360  0.38174607  0.21829514  1  -1.226096  0  -0.408774  -0.716627  0  2.38875  0
O  O179  1  0.61824652  0.99697617  0.28170805  1  -1.226063  0  -0.408762  -0.716643  0  2.38829  0
O  O180  1  0.97896782  0.78443466  0.72723808  1  -1.207779  0  -0.396744  -0.663978  0  2.202291  0
O  O181  1  0.21557827  0.02102821  0.77276166  1  -1.207646  0  -0.396867  -0.664107  0  2.202367  0
O  O182  1  0.02102984  0.21557277  0.27276151  1  -1.207778  0  -0.396919  -0.664204  0  2.202072  0
O  O183  1  0.78442367  0.97896739  0.22723965  1  -1.207723  0  -0.396922  -0.664188  0  2.202159  0
O  O184  1  0.67495345  0.09924132  0.61658685  1  -1.202794  0  -0.398815  -0.666673  0  2.267423  0
O  O185  1  0.90075445  0.32504583  0.88341093  1  -1.203025  0  -0.398677  -0.666455  0  2.267776  0
O  O186  1  0.32504763  0.90075697  0.38341391  1  -1.202968  0  -0.398639  -0.666429  0  2.267722  0
O  O187  1  0.09923642  0.67495721  0.11658820  1  -1.202859  0  -0.39866  -0.666437  0  2.267702  0
O  O188  1  0.81533357  0.00454939  0.67920422  1  -1.20876  0  -0.403086  -0.681245  0  2.326408  0
O  O189  1  0.99542920  0.18467333  0.82079255  1  -1.208809  0  -0.403157  -0.681265  0  2.326802  0
O  O190  1  0.18467349  0.99544060  0.32079525  1  -1.208601  0  -0.403088  -0.681262  0  2.326453  0
O  O191  1  0.00455571  0.81533396  0.17920387  1  -1.208685  0  -0.40315  -0.681348  0  2.326335  0
O  O192  1  0.67338659  0.92102675  0.41690660  1  -1.163972  0  -0.390714  -0.650503  0  2.268863  0
O  O193  1  0.07896921  0.32660768  0.08309413  1  -1.164516  0  -0.390565  -0.650391  0  2.269337  0
O  O194  1  0.32661450  0.07896911  0.58309286  1  -1.16437  0  -0.390621  -0.650455  0  2.268543  0
O  O195  1  0.92103442  0.67339226  0.91690691  1  -1.164595  0  -0.39061  -0.650451  0  2.269195  0
O  O196  1  0.84146658  0.86645209  0.36139764  1  -1.216627  0  -0.43425  -0.69832  0  2.341202  0
O  O197  1  0.13355220  0.15852619  0.13859997  1  -1.216406  0  -0.43437  -0.698577  0  2.340692  0
O  O198  1  0.15852940  0.13354614  0.63860148  1  -1.216666  0  -0.434201  -0.698218  0  2.341553  0
O  O199  1  0.86644890  0.84146563  0.86139688  1  -1.216498  0  -0.434358  -0.698518  0  2.340709  0
O  O200  1  0.64933143  0.88213651  0.68202145  1  -1.223154  0  -0.390231  -0.736304  0  2.364158  0
O  O201  1  0.11787008  0.35064875  0.81797750  1  -1.223112  0  -0.390189  -0.736267  0  2.363987  0
O  O202  1  0.35066200  0.11786413  0.31797488  1  -1.223199  0  -0.390195  -0.736323  0  2.363952  0
O  O203  1  0.88213273  0.64933687  0.18202465  1  -1.223165  0  -0.390241  -0.736308  0  2.364018  0
O  O204  1  0.56771584  0.90058666  0.59137673  1  -1.19903  0  -0.350361  -0.612951  0  2.241446  0
O  O205  1  0.09941158  0.43228030  0.90862032  1  -1.198905  0  -0.350306  -0.612872  0  2.241551  0
O  O206  1  0.43228185  0.09941268  0.40862087  1  -1.198837  0  -0.350344  -0.612904  0  2.241376  0
O  O207  1  0.90058185  0.56771953  0.09137837  1  -1.19885  0  -0.350338  -0.612853  0  2.241325  0
O  O208  1  0.86727483  0.47706083  0.75398467  1  -1.201422  0  -0.392004  -0.677955  0  2.30311  0
O  O209  1  0.52294903  0.13271253  0.74601965  1  -1.201477  0  -0.391943  -0.677964  0  2.302834  0
O  O210  1  0.13271006  0.52295132  0.24601665  1  -1.201798  0  -0.391984  -0.678082  0  2.303  0
O  O211  1  0.47705461  0.86728174  0.25398164  1  -1.201709  0  -0.391995  -0.677978  0  2.303076  0
O  O212  1  0.99739215  0.38505659  0.68152919  1  -1.214554  0  -0.408249  -0.696036  0  2.286473  0
O  O213  1  0.61494242  0.00259364  0.81848166  1  -1.21496  0  -0.408295  -0.696062  0  2.286479  0
O  O214  1  0.00260041  0.61494104  0.31848081  1  -1.214694  0  -0.408251  -0.69605  0  2.286315  0
O  O215  1  0.38506121  0.99740224  0.18152281  1  -1.214717  0  -0.408299  -0.696032  0  2.28651  0
O  O216  1  0.50439628  0.14700581  0.52365078  1  -1.243231  0  -0.6121  -0.828636  0  2.059668  0
O  O217  1  0.85298776  0.49560654  0.97635118  1  -1.243172  0  -0.612188  -0.828817  0  2.059502  0
O  O218  1  0.49560139  0.85299433  0.47635190  1  -1.243187  0  -0.61216  -0.828891  0  2.059508  0
O  O219  1  0.14700480  0.50439759  0.02365016  1  -1.243261  0  -0.612121  -0.828835  0  2.059389  0
O  O220  1  0.93289888  0.18600051  0.70803247  1  -1.215104  0  -0.602999  -0.780536  0  2.014045  0
O  O221  1  0.81403635  0.06703490  0.79198156  1  -1.215861  0  -0.603176  -0.780255  0  2.014673  0
O  O222  1  0.06706046  0.81402347  0.29197549  1  -1.216394  0  -0.603148  -0.780465  0  2.014467  0
O  O223  1  0.18599627  0.93292296  0.20802842  1  -1.214977  0  -0.603131  -0.780464  0  2.014295  0
