# generated using pymatgen
data_HgH14C14(IN2)2
_symmetry_space_group_name_H-M   'P 1'
_cell_length_a   8.66052022
_cell_length_b   8.93247400
_cell_length_c   11.51933852
_cell_angle_alpha   74.55990047
_cell_angle_beta   88.19077364
_cell_angle_gamma   84.62469279
_symmetry_Int_Tables_number   1
_chemical_formula_structural   HgH14C14(IN2)2
_chemical_formula_sum   'Hg2 H28 C28 I4 N8'
_cell_volume   855.17508150
_cell_formula_units_Z   2
loop_
 _symmetry_equiv_pos_site_id
 _symmetry_equiv_pos_as_xyz
  1  'x, y, z'
loop_
 _atom_site_type_symbol
 _atom_site_label
 _atom_site_symmetry_multiplicity
 _atom_site_fract_x
 _atom_site_fract_y
 _atom_site_fract_z
 _atom_site_occupancy
 _atom_site_hle17_bader_spin_density
 _atom_site_hle17_ddec_charge
 _atom_site_hle17_ddec_spin_density
 _atom_site_hle17_ddec_sum_bond_order
 _atom_site_hle17_magmom
 _atom_site_hse06_10hf_bader_spin_density
 _atom_site_hse06_10hf_ddec_charge
 _atom_site_hse06_10hf_ddec_spin_density
 _atom_site_hse06_10hf_ddec_sum_bond_order
 _atom_site_hse06_10hf_magmom
 _atom_site_hse06_bader_spin_density
 _atom_site_hse06_ddec_charge
 _atom_site_hse06_ddec_spin_density
 _atom_site_hse06_ddec_sum_bond_order
 _atom_site_hse06_magmom
 _atom_site_pbe_bader_spin_density
 _atom_site_pbe_cm5_charge
 _atom_site_pbe_ddec_charge
 _atom_site_pbe_ddec_spin_density
 _atom_site_pbe_ddec_sum_bond_order
 _atom_site_pbe_magmom
Hg  Hg0  1  0.78664265  0.48840452  0.33427670  1  0  0.562202  0  2.246165  0  0  0.431465  0  2.740181  0  0  0.474393  0  2.713019  0  0  0.418212  0.403027  0  2.757747  0
Hg  Hg1  1  0.21335690  0.51159565  0.66572181  1  0  0.562208  0  2.246168  0  0  0.431465  0  2.740208  0  0  0.474392  0  2.713044  0  0  0.418198  0.403024  0  2.757771  0
H  H2  1  0.65482595  0.10925874  0.40525781  1  0  0.099694  0  0.967638  0  0  0.108434  0  1.030952  0  0  0.11066  0  1.030332  0  0  0.106914  0.106933  0  1.031331  0
H  H3  1  0.34517960  0.89073911  0.59474536  1  0  0.099733  0  0.96742  0  0  0.108408  0  1.030812  0  0  0.110635  0  1.030195  0  0  0.106917  0.106911  0  1.031182  0
H  H4  1  0.78469253  0.41083089  0.04777917  1  0  0.089909  0  0.962013  0  0  0.095197  0  1.038799  0  0  0.098431  0  1.034295  0  0  0.120549  0.092813  0  1.04199  0
H  H5  1  0.21530577  0.58917045  0.95222000  1  0  0.08985  0  0.962058  0  0  0.095157  0  1.038819  0  0  0.098388  0  1.03432  0  0  0.120545  0.092774  0  1.042011  0
H  H6  1  0.43194389  0.33551678  0.31354173  1  0  0.097538  0  0.979492  0  0  0.103637  0  1.049166  0  0  0.106707  0  1.046816  0  0  0.100814  0.101359  0  1.051039  0
H  H7  1  0.56805472  0.66448106  0.68645816  1  0  0.097533  0  0.979488  0  0  0.10363  0  1.049164  0  0  0.106702  0  1.046809  0  0  0.10081  0.101354  0  1.051029  0
H  H8  1  0.34836953  0.22529507  0.12081166  1  0  0.112686  0  0.989912  0  0  0.120257  0  1.055822  0  0  0.122068  0  1.056807  0  0  0.1145  0.118935  0  1.05525  0
H  H9  1  0.65163023  0.77470277  0.87918819  1  0  0.11269  0  0.989956  0  0  0.120263  0  1.055856  0  0  0.122073  0  1.056842  0  0  0.114498  0.11894  0  1.055279  0
H  H10  1  0.83426525  0.77742351  0.13838213  1  0  0.061694  0  1.016263  0  0  0.066507  0  1.094793  0  0  0.068944  0  1.093388  0  0  0.07378  0.064619  0  1.096022  0
H  H11  1  0.16573421  0.22257782  0.86161875  1  0  0.0617  0  1.01625  0  0  0.066509  0  1.094782  0  0  0.068947  0  1.093376  0  0  0.073777  0.064622  0  1.096015  0
H  H12  1  0.61728105  0.36006906  0.86734087  1  0  0.086623  0  0.946118  0  0  0.099226  0  1.014035  0  0  0.100228  0  1.013629  0  0  0.103368  0.098428  0  1.014365  0
H  H13  1  0.38271850  0.63993111  0.13265851  1  0  0.086607  0  0.946144  0  0  0.099211  0  1.014066  0  0  0.100213  0  1.013659  0  0  0.103359  0.098414  0  1.014401  0
H  H14  1  0.46245574  0.24208698  0.91594648  1  0  0.086631  0  0.94735  0  0  0.101136  0  1.014332  0  0  0.101532  0  1.014955  0  0  0.108574  0.100759  0  1.014056  0
H  H15  1  0.53754382  0.75791319  0.08405290  1  0  0.086669  0  0.947314  0  0  0.101173  0  1.014303  0  0  0.10157  0  1.014921  0  0  0.108591  0.100801  0  1.014022  0
H  H16  1  0.75938674  0.20076597  0.76088285  1  0  0.092673  0  0.984732  0  0  0.100092  0  1.054566  0  0  0.103375  0  1.052531  0  0  0.090652  0.097687  0  1.056115  0
H  H17  1  0.24061282  0.79923420  0.23911740  1  0  0.092687  0  0.984726  0  0  0.100106  0  1.054562  0  0  0.103407  0  1.052509  0  0  0.090664  0.097701  0  1.056115  0
H  H18  1  0.98420330  0.75764294  0.95614278  1  0  0.081582  0  0.984093  0  0  0.086493  0  1.060514  0  0  0.089584  0  1.05865  0  0  0.085182  0.084207  0  1.062027  0
H  H19  1  0.01579626  0.24235723  0.04385747  1  0  0.081591  0  0.984043  0  0  0.086504  0  1.060466  0  0  0.089594  0  1.058603  0  0  0.085195  0.08422  0  1.061975  0
H  H20  1  0.64616159  0.00553689  0.13391630  1  0  0.088704  0  0.973512  0  0  0.094928  0  1.045044  0  0  0.098397  0  1.043159  0  0  0.089843  0.092428  0  1.046471  0
H  H21  1  0.35383797  0.99446328  0.86608395  1  0  0.088681  0  0.973508  0  0  0.094905  0  1.045045  0  0  0.098376  0  1.043158  0  0  0.08983  0.092409  0  1.04647  0
H  H22  1  0.08992452  0.02364877  0.73753871  1  0  0.086546  0  0.92848  0  0  0.101769  0  0.994417  0  0  0.102388  0  0.994493  0  0  0.110125  0.101196  0  0.994472  0
H  H23  1  0.91007725  0.97635257  0.26246211  1  0  0.086567  0  0.928496  0  0  0.101788  0  0.994432  0  0  0.102405  0  0.99451  0  0  0.110137  0.101216  0  0.994478  0
H  H24  1  0.01169377  0.84740549  0.73626817  1  0  0.085582  0  0.949061  0  0  0.095862  0  1.022405  0  0  0.097407  0  1.021128  0  0  0.100298  0.094645  0  1.023338  0
H  H25  1  0.98830568  0.15259585  0.26373184  1  0  0.085586  0  0.949036  0  0  0.095848  0  1.022401  0  0  0.097392  0  1.021124  0  0  0.100292  0.09463  0  1.023337  0
H  H26  1  0.76919378  0.86881897  0.59854445  1  0  0.109509  0  0.975582  0  0  0.116521  0  1.045032  0  0  0.11962  0  1.04289  0  0  0.109516  0.114235  0  1.046722  0
H  H27  1  0.23080998  0.13118587  0.40145473  1  0  0.109519  0  0.975289  0  0  0.116514  0  1.044781  0  0  0.119613  0  1.042638  0  0  0.109513  0.11423  0  1.046475  0
H  H28  1  0.98885986  0.27603928  0.58800705  1  0  0.077383  0  0.979468  0  0  0.080971  0  1.059891  0  0  0.083401  0  1.056239  0  0  0.115762  0.079081  0  1.062538  0
H  H29  1  0.01113834  0.72396321  0.41199362  1  0  0.077349  0  0.979508  0  0  0.080958  0  1.059918  0  0  0.083387  0  1.056267  0  0  0.115769  0.079088  0  1.062546  0
C  C30  1  0.73955613  0.10950297  0.47237793  1  0  -0.004935  0  3.751062  0  0  -0.037987  0  4.018345  0  0  -0.035211  0  4.037338  0  0  -0.014397  -0.039888  0  4.005496  0
C  C31  1  0.26043962  0.89050071  0.52761302  1  0  -0.004857  0  3.751366  0  0  -0.037831  0  4.018637  0  0  -0.035059  0  4.037632  0  0  -0.014306  -0.039728  0  4.005783  0
C  C32  1  0.67893173  0.37476146  0.09614274  1  0  0.147519  0  3.653024  0  0  0.087942  0  3.917561  0  0  0.101438  0  3.930952  0  0  0.132614  0.079484  0  3.907915  0
C  C33  1  0.32106772  0.62523987  0.90385640  1  0  0.147547  0  3.653025  0  0  0.087975  0  3.91756  0  0  0.101473  0  3.930949  0  0  0.132625  0.079508  0  3.907924  0
C  C34  1  0.49362866  0.33281961  0.23048781  1  0  -0.02032  0  3.767525  0  0  -0.04951  0  4.028557  0  0  -0.047778  0  4.047314  0  0  -0.014536  -0.050719  0  4.015973  0
C  C35  1  0.50637100  0.66717939  0.76951180  1  0  -0.02031  0  3.767555  0  0  -0.049494  0  4.028572  0  0  -0.047761  0  4.04733  0  0  -0.014529  -0.050706  0  4.015977  0
C  C36  1  0.45049085  0.27888424  0.13601427  1  0  -0.062643  0  3.669927  0  0  -0.100054  0  3.922845  0  0  -0.097746  0  3.940958  0  0  -0.002377  -0.101533  0  3.91066  0
C  C37  1  0.54950891  0.72111360  0.86398472  1  0  -0.062681  0  3.670013  0  0  -0.100079  0  3.922912  0  0  -0.097771  0  3.941025  0  0  -0.002375  -0.101554  0  3.91072  0
C  C38  1  0.81722088  0.87026240  0.05526132  1  0  -0.064777  0  3.81247  0  0  -0.071256  0  4.054782  0  0  -0.073151  0  4.077422  0  0  -0.1005  -0.069937  0  4.039687  0
C  C39  1  0.18277868  0.12973777  0.94473892  1  0  -0.06475  0  3.812437  0  0  -0.071221  0  4.054744  0  0  -0.073116  0  4.077384  0  0  -0.100487  -0.069899  0  4.03965  0
C  C40  1  0.57983169  0.26155674  0.93860595  1  0  -0.042044  0  3.643998  0  0  -0.107684  0  3.883653  0  0  -0.103368  0  3.894189  0  0  -0.050497  -0.110424  0  3.876522  0
C  C41  1  0.42016660  0.73844460  0.06139322  1  0  -0.04209  0  3.643999  0  0  -0.107743  0  3.883639  0  0  -0.103427  0  3.894174  0  0  -0.050511  -0.11049  0  3.876515  0
C  C42  1  0.69087105  0.11849959  0.94602808  1  0  0.077787  0  3.755943  0  0  0.102482  0  3.991481  0  0  0.102  0  4.015825  0  0  -0.014219  0.102836  0  3.974939  0
C  C43  1  0.30912725  0.88150175  0.05397109  1  0  0.077717  0  3.756057  0  0  0.102466  0  3.991539  0  0  0.101982  0  4.01589  0  0  -0.014245  0.102822  0  3.974997  0
C  C44  1  0.77567437  0.10645043  0.84317288  1  0  -0.166128  0  3.726897  0  0  -0.19607  0  3.969858  0  0  -0.199371  0  3.991081  0  0  -0.099794  -0.193709  0  3.955559  0
C  C45  1  0.22432645  0.89354858  0.15682844  1  0  -0.166071  0  3.726914  0  0  -0.196033  0  3.969856  0  0  -0.199348  0  3.991068  0  0  -0.099776  -0.193668  0  3.955557  0
C  C46  1  0.88214136  0.97798169  0.84552266  1  0  0.071513  0  3.751844  0  0  0.098567  0  3.982386  0  0  0.097878  0  4.006771  0  0  -0.014488  0.09907  0  3.965727  0
C  C47  1  0.11785924  0.02201964  0.15447731  1  0  0.071508  0  3.751849  0  0  0.098566  0  3.982388  0  0  0.097878  0  4.006774  0  0  -0.014477  0.099075  0  3.965725  0
C  C48  1  0.90220422  0.85917679  0.95254334  1  0  -0.121693  0  3.7559  0  0  -0.141594  0  3.996844  0  0  -0.144854  0  4.019235  0  0  -0.098971  -0.139424  0  3.981801  0
C  C49  1  0.09779534  0.14082338  0.04745778  1  0  -0.121731  0  3.7559  0  0  -0.141639  0  3.996855  0  0  -0.144897  0  4.019243  0  0  -0.099  -0.139471  0  3.98181  0
C  C50  1  0.71170247  0.99914043  0.05257703  1  0  -0.131149  0  3.750035  0  0  -0.153088  0  3.995676  0  0  -0.156096  0  4.016885  0  0  -0.102118  -0.151079  0  3.98139  0
C  C51  1  0.28829709  0.00085974  0.94742321  1  0  -0.131128  0  3.750013  0  0  -0.153083  0  3.995632  0  0  -0.156092  0  4.016841  0  0  -0.102093  -0.151072  0  3.981344  0
C  C52  1  0.98107845  0.96952033  0.73645020  1  0  -0.037699  0  3.640428  0  0  -0.10332  0  3.879764  0  0  -0.099222  0  3.890673  0  0  -0.047919  -0.105759  0  3.872307  0
C  C53  1  0.01892226  0.03047984  0.26355002  1  0  -0.037766  0  3.640383  0  0  -0.10337  0  3.879699  0  0  -0.09927  0  3.890607  0  0  -0.047921  -0.105811  0  3.872235  0
C  C54  1  0.79421390  0.98964561  0.56771151  1  0  -0.056104  0  3.668057  0  0  -0.096103  0  3.925811  0  0  -0.094425  0  3.943949  0  0  -0.002345  -0.097218  0  3.913736  0
C  C55  1  0.20578936  0.01033940  0.43229523  1  0  -0.056245  0  3.668342  0  0  -0.096218  0  3.926075  0  0  -0.094545  0  3.944224  0  0  -0.002428  -0.097345  0  3.914015  0
C  C56  1  0.91142700  0.20110831  0.56318474  1  0  0.149903  0  3.676669  0  0  0.092128  0  3.940538  0  0  0.105891  0  3.954222  0  0  0.133951  0.083363  0  3.931052  0
C  C57  1  0.08857361  0.79889303  0.43681611  1  0  0.149928  0  3.676619  0  0  0.092127  0  3.940485  0  0  0.105891  0  3.954169  0  0  0.133968  0.083338  0  3.930987  0
I  I58  1  0.61786728  0.72970100  0.39160215  1  0  -0.373314  0  1.076307  0  0  -0.331715  0  1.402215  0  0  -0.34855  0  1.384727  0  0  -0.187372  -0.320527  0  1.413965  0
I  I59  1  0.38213238  0.27029801  0.60839746  1  0  -0.373324  0  1.076325  0  0  -0.331731  0  1.402243  0  0  -0.348566  0  1.384753  0  0  -0.187374  -0.320543  0  1.413992  0
I  I60  1  0.07663450  0.48357303  0.22433377  1  0  -0.424878  0  1.077366  0  0  -0.380429  0  1.411775  0  0  -0.398362  0  1.393202  0  0  -0.197905  -0.367653  0  1.424391  0
I  I61  1  0.92336410  0.51642481  0.77566264  1  0  -0.424885  0  1.077382  0  0  -0.380422  0  1.411776  0  0  -0.398356  0  1.393202  0  0  -0.197894  -0.367651  0  1.42439  0
N  N62  1  0.63618631  0.39179601  0.20420142  1  0  -0.325935  0  3.260298  0  0  -0.25021  0  3.537446  0  0  -0.270478  0  3.557748  0  0  -0.341039  -0.236469  0  3.522931  0
N  N63  1  0.36381220  0.60820299  0.79579909  1  0  -0.325928  0  3.260229  0  0  -0.250216  0  3.537386  0  0  -0.270482  0  3.557682  0  0  -0.341034  -0.236466  0  3.52286  0
N  N64  1  0.56853904  0.30700613  0.05163595  1  0  -0.053483  0  3.574594  0  0  0.042287  0  3.786608  0  0  0.027397  0  3.812892  0  0  -0.241719  0.051975  0  3.76879  0
N  N65  1  0.43145936  0.69299403  0.94836345  1  0  -0.053384  0  3.574534  0  0  0.042362  0  3.786564  0  0  0.027473  0  3.812846  0  0  -0.241727  0.052043  0  3.768758  0
N  N66  1  0.90320278  0.04933824  0.62374884  1  0  -0.054744  0  3.58701  0  0  0.04217  0  3.795877  0  0  0.02707  0  3.823238  0  0  -0.242827  0.052067  0  3.777283  0
N  N67  1  0.09679993  0.95066544  0.37625147  1  0  -0.054593  0  3.586724  0  0  0.042338  0  3.795576  0  0  0.027236  0  3.822938  0  0  -0.242822  0.052236  0  3.776987  0
N  N68  1  0.81359393  0.24045576  0.47097264  1  0  -0.325816  0  3.280383  0  0  -0.249056  0  3.559964  0  0  -0.270199  0  3.580363  0  0  -0.341631  -0.234814  0  3.545649  0
N  N69  1  0.18640805  0.75954324  0.52902865  1  0  -0.325945  0  3.280464  0  0  -0.249192  0  3.560042  0  0  -0.270333  0  3.580436  0  0  -0.341688  -0.23495  0  3.545733  0
