# generated using pymatgen
data_CuH7C6IN3O
_symmetry_space_group_name_H-M   'P 1'
_cell_length_a   4.59830353
_cell_length_b   9.96265983
_cell_length_c   19.66386571
_cell_angle_alpha   102.01292155
_cell_angle_beta   90.00160307
_cell_angle_gamma   89.99609532
_symmetry_Int_Tables_number   1
_chemical_formula_structural   CuH7C6IN3O
_chemical_formula_sum   'Cu4 H28 C24 I4 N12 O4'
_cell_volume   881.10040129
_cell_formula_units_Z   4
loop_
 _symmetry_equiv_pos_site_id
 _symmetry_equiv_pos_as_xyz
  1  'x, y, z'
loop_
 _atom_site_type_symbol
 _atom_site_label
 _atom_site_symmetry_multiplicity
 _atom_site_fract_x
 _atom_site_fract_y
 _atom_site_fract_z
 _atom_site_occupancy
 _atom_site_hle17_bader_spin_density
 _atom_site_hle17_ddec_charge
 _atom_site_hle17_ddec_spin_density
 _atom_site_hle17_ddec_sum_bond_order
 _atom_site_hle17_magmom
 _atom_site_hse06_10hf_bader_spin_density
 _atom_site_hse06_10hf_ddec_charge
 _atom_site_hse06_10hf_ddec_spin_density
 _atom_site_hse06_10hf_ddec_sum_bond_order
 _atom_site_hse06_10hf_magmom
 _atom_site_hse06_bader_spin_density
 _atom_site_hse06_ddec_charge
 _atom_site_hse06_ddec_spin_density
 _atom_site_hse06_ddec_sum_bond_order
 _atom_site_hse06_magmom
 _atom_site_pbe_bader_spin_density
 _atom_site_pbe_cm5_charge
 _atom_site_pbe_ddec_charge
 _atom_site_pbe_ddec_spin_density
 _atom_site_pbe_ddec_sum_bond_order
 _atom_site_pbe_magmom
Cu  Cu0  1  0.67216892  0.52461962  0.79066065  1  0  0.23217  0  2.132643  0  0  0.143919  0  2.619863  0  0  0.16135  0  2.558937  0  0  0.243244  0.133639  0  2.662197  0
Cu  Cu1  1  0.17211594  0.47538821  0.70932477  1  0  0.232052  0  2.132832  0  0  0.143902  0  2.620073  0  0  0.161415  0  2.559034  0  0  0.243203  0.133627  0  2.662389  0
Cu  Cu2  1  0.32783976  0.47536376  0.20934094  1  0  0.232139  0  2.132625  0  0  0.143964  0  2.619837  0  0  0.161425  0  2.558846  0  0  0.243281  0.133693  0  2.662144  0
Cu  Cu3  1  0.82789708  0.52460745  0.29067503  1  0  0.232064  0  2.132894  0  0  0.1439  0  2.620165  0  0  0.161347  0  2.559212  0  0  0.243191  0.133621  0  2.662457  0
H  H4  1  0.27421036  0.75600371  0.84061463  1  0  0.076716  0  0.946379  0  0  0.081289  0  1.019757  0  0  0.085575  0  1.014612  0  0  0.104816  0.077916  0  1.023878  0
H  H5  1  0.77419979  0.24400422  0.65938317  1  0  0.076698  0  0.94634  0  0  0.081305  0  1.01968  0  0  0.085581  0  1.014551  0  0  0.104791  0.077933  0  1.023796  0
H  H6  1  0.72579615  0.24398169  0.15938462  1  0  0.076874  0  0.946309  0  0  0.081338  0  1.019806  0  0  0.085626  0  1.014662  0  0  0.104852  0.077966  0  1.023923  0
H  H7  1  0.22578714  0.75599658  0.34061767  1  0  0.076668  0  0.946445  0  0  0.081293  0  1.019787  0  0  0.085541  0  1.014679  0  0  0.104802  0.077923  0  1.023901  0
H  H8  1  0.12472934  0.90374675  0.95408520  1  0  0.127579  0  0.974603  0  0  0.132965  0  1.040361  0  0  0.137193  0  1.038212  0  0  0.109339  0.129967  0  1.041924  0
H  H9  1  0.62468792  0.09627494  0.54591100  1  0  0.127759  0  0.974504  0  0  0.133077  0  1.0403  0  0  0.137303  0  1.038153  0  0  0.109439  0.130079  0  1.041859  0
H  H10  1  0.87530543  0.09625608  0.04591331  1  0  0.127664  0  0.974447  0  0  0.132996  0  1.040256  0  0  0.137222  0  1.038105  0  0  0.109373  0.13  0  1.041813  0
H  H11  1  0.37528379  0.90373405  0.45408916  1  0  0.127705  0  0.974597  0  0  0.13306  0  1.040363  0  0  0.137286  0  1.038216  0  0  0.109383  0.130059  0  1.04193  0
H  H12  1  0.70702190  0.66593220  0.05551411  1  0  0.102566  0  0.979978  0  0  0.108274  0  1.051976  0  0  0.111919  0  1.050339  0  0  0.095066  0.105606  0  1.053286  0
H  H13  1  0.20695404  0.33403627  0.44447688  1  0  0.102622  0  0.979887  0  0  0.108398  0  1.051837  0  0  0.112022  0  1.050266  0  0  0.095094  0.10573  0  1.053143  0
H  H14  1  0.29300852  0.33407168  0.94448756  1  0  0.102544  0  0.979961  0  0  0.108235  0  1.051976  0  0  0.111873  0  1.050355  0  0  0.095062  0.105568  0  1.053283  0
H  H15  1  0.79301766  0.66596860  0.55552183  1  0  0.102621  0  0.980013  0  0  0.108365  0  1.051995  0  0  0.112007  0  1.050368  0  0  0.095061  0.105697  0  1.053299  0
H  H16  1  0.83238411  0.52887668  0.93740949  1  0  0.071498  0  0.955504  0  0  0.079431  0  1.021696  0  0  0.082146  0  1.020043  0  0  0.100021  0.07752  0  1.022774  0
H  H17  1  0.33234502  0.47109757  0.56257557  1  0  0.071572  0  0.955392  0  0  0.079463  0  1.021601  0  0  0.082175  0  1.019953  0  0  0.100075  0.077546  0  1.022678  0
H  H18  1  0.16762457  0.47111594  0.06259356  1  0  0.071496  0  0.95556  0  0  0.079448  0  1.021738  0  0  0.082159  0  1.020091  0  0  0.100056  0.077535  0  1.022814  0
H  H19  1  0.66765061  0.52889807  0.43742220  1  0  0.071507  0  0.955469  0  0  0.079428  0  1.021651  0  0  0.082145  0  1.019996  0  0  0.100064  0.077512  0  1.022727  0
H  H20  1  0.72144933  0.89355542  0.12283272  1  0  0.291337  0  0.947764  0  0  0.270793  0  1.015933  0  0  0.278643  0  1.010127  0  0  0.306304  0.265245  0  1.020118  0
H  H21  1  0.22142640  0.10643632  0.37717093  1  0  0.291535  0  0.947682  0  0  0.270925  0  1.015918  0  0  0.278777  0  1.010104  0  0  0.306397  0.265376  0  1.020105  0
H  H22  1  0.27857240  0.10644646  0.87717434  1  0  0.291509  0  0.947617  0  0  0.270823  0  1.015978  0  0  0.278672  0  1.010169  0  0  0.306324  0.265274  0  1.020163  0
H  H23  1  0.77854313  0.89357066  0.62283258  1  0  0.291275  0  0.94785  0  0  0.270777  0  1.015982  0  0  0.278627  0  1.010183  0  0  0.306313  0.265232  0  1.020167  0
H  H24  1  0.33005096  0.07800905  0.18823229  1  0  0.25599  0  0.91751  0  0  0.248648  0  0.981903  0  0  0.252861  0  0.978275  0  0  0.285812  0.245602  0  0.984568  0
H  H25  1  0.83008098  0.92198237  0.31176188  1  0  0.256007  0  0.917452  0  0  0.24864  0  0.981891  0  0  0.252857  0  0.978254  0  0  0.285772  0.245597  0  0.984555  0
H  H26  1  0.66994684  0.92198869  0.81177027  1  0  0.256  0  0.917465  0  0  0.248646  0  0.981879  0  0  0.25286  0  0.978247  0  0  0.285786  0.245601  0  0.984545  0
H  H27  1  0.16991247  0.07801738  0.68823682  1  0  0.256044  0  0.917457  0  0  0.248673  0  0.981895  0  0  0.252891  0  0.978257  0  0  0.285785  0.24563  0  0.984557  0
H  H28  1  0.29209082  0.94828577  0.22552942  1  0  0.265155  0  0.943614  0  0  0.246791  0  1.026374  0  0  0.252983  0  1.019924  0  0  0.276469  0.242153  0  1.031348  0
H  H29  1  0.79208485  0.05171706  0.27446567  1  0  0.265223  0  0.943467  0  0  0.24681  0  1.026283  0  0  0.253002  0  1.019836  0  0  0.27642  0.242171  0  1.03126  0
H  H30  1  0.70792003  0.05171403  0.77447335  1  0  0.265147  0  0.943644  0  0  0.246818  0  1.02639  0  0  0.252991  0  1.019954  0  0  0.276439  0.242177  0  1.031363  0
H  H31  1  0.20789339  0.94828063  0.72553282  1  0  0.265245  0  0.943476  0  0  0.246832  0  1.026293  0  0  0.253022  0  1.01985  0  0  0.276446  0.242194  0  1.031267  0
C  C32  1  0.36561764  0.74037608  0.88964185  1  0  0.123872  0  3.669757  0  0  0.097679  0  3.916939  0  0  0.103344  0  3.93381  0  0  0.038618  0.093529  0  3.90662  0
C  C33  1  0.86557513  0.25963004  0.61035077  1  0  0.123817  0  3.669771  0  0  0.0977  0  3.917054  0  0  0.103336  0  3.933921  0  0  0.038617  0.093564  0  3.906743  0
C  C34  1  0.63439756  0.25961548  0.11035804  1  0  0.123494  0  3.669874  0  0  0.09744  0  3.917051  0  0  0.103085  0  3.933906  0  0  0.038489  0.093307  0  3.906744  0
C  C35  1  0.13440310  0.74037381  0.38964835  1  0  0.123862  0  3.669926  0  0  0.097687  0  3.917186  0  0  0.103364  0  3.934052  0  0  0.038684  0.093555  0  3.906876  0
C  C36  1  0.28279573  0.82176598  0.95284107  1  0  -0.120984  0  3.682318  0  0  -0.14253  0  3.926123  0  0  -0.147832  0  3.945971  0  0  -0.079816  -0.139249  0  3.913213  0
C  C37  1  0.78276205  0.17822835  0.54715488  1  0  -0.121205  0  3.682247  0  0  -0.14276  0  3.926036  0  0  -0.14806  0  3.945882  0  0  -0.079992  -0.139482  0  3.913126  0
C  C38  1  0.71723035  0.17823277  0.04716007  1  0  -0.120927  0  3.682321  0  0  -0.14243  0  3.926106  0  0  -0.147728  0  3.945953  0  0  -0.079846  -0.139152  0  3.91319  0
C  C39  1  0.21720531  0.82177139  0.45284280  1  0  -0.121086  0  3.682631  0  0  -0.14272  0  3.926358  0  0  -0.14802  0  3.946198  0  0  -0.079926  -0.13944  0  3.913447  0
C  C40  1  0.40729931  0.79785176  0.01418233  1  0  0.007601  0  3.73723  0  0  0.026188  0  3.971803  0  0  0.026073  0  3.990297  0  0  0.005582  0.026083  0  3.959215  0
C  C41  1  0.90725697  0.20213525  0.48581087  1  0  0.007619  0  3.737293  0  0  0.026426  0  3.971608  0  0  0.026312  0  3.990097  0  0  0.005812  0.026326  0  3.959021  0
C  C42  1  0.59272894  0.20214696  0.98581626  1  0  0.007453  0  3.737347  0  0  0.026059  0  3.971878  0  0  0.025941  0  3.990378  0  0  0.005676  0.025952  0  3.959282  0
C  C43  1  0.09270604  0.79786859  0.51418621  1  0  0.007489  0  3.737613  0  0  0.026425  0  3.971686  0  0  0.026305  0  3.990187  0  0  0.005719  0.026327  0  3.959096  0
C  C44  1  0.60845928  0.69093665  0.00921797  1  0  -0.127985  0  3.715469  0  0  -0.149074  0  3.962037  0  0  -0.153951  0  3.981861  0  0  -0.081554  -0.146033  0  3.949146  0
C  C45  1  0.10840266  0.30904914  0.49077008  1  0  -0.128025  0  3.715602  0  0  -0.149226  0  3.961982  0  0  -0.154111  0  3.98179  0  0  -0.081624  -0.146186  0  3.949078  0
C  C46  1  0.39157550  0.30906617  0.99077952  1  0  -0.127817  0  3.715314  0  0  -0.148892  0  3.961874  0  0  -0.15377  0  3.981704  0  0  -0.081536  -0.145848  0  3.948978  0
C  C47  1  0.89157122  0.69095370  0.50922995  1  0  -0.127966  0  3.715675  0  0  -0.149191  0  3.962029  0  0  -0.154072  0  3.981852  0  0  -0.081545  -0.146147  0  3.949123  0
C  C48  1  0.67762774  0.61368830  0.94384571  1  0  0.116037  0  3.698483  0  0  0.090349  0  3.943788  0  0  0.095107  0  3.963018  0  0  0.037178  0.087217  0  3.931099  0
C  C49  1  0.17758071  0.38629171  0.55614147  1  0  0.115896  0  3.698271  0  0  0.090394  0  3.943598  0  0  0.095122  0  3.962814  0  0  0.037184  0.087282  0  3.930908  0
C  C50  1  0.32238093  0.38630223  0.05615357  1  0  0.11589  0  3.698559  0  0  0.090248  0  3.943901  0  0  0.094986  0  3.963123  0  0  0.037077  0.087133  0  3.931227  0
C  C51  1  0.82239752  0.61370907  0.44385734  1  0  0.115926  0  3.698202  0  0  0.090367  0  3.943524  0  0  0.095105  0  3.962737  0  0  0.03718  0.087256  0  3.930837  0
C  C52  1  0.30897161  0.88382157  0.08189300  1  0  0.499687  0  3.86922  0  0  0.448385  0  4.161009  0  0  0.476752  0  4.160383  0  0  0.23672  0.429372  0  4.160764  0
C  C53  1  0.80894259  0.11617361  0.41810548  1  0  0.499782  0  3.869243  0  0  0.448344  0  4.161107  0  0  0.476708  0  4.16048  0  0  0.236671  0.429315  0  4.160875  0
C  C54  1  0.69106317  0.11618332  0.91810725  1  0  0.499792  0  3.869536  0  0  0.448556  0  4.161218  0  0  0.476918  0  4.160606  0  0  0.236726  0.429555  0  4.160944  0
C  C55  1  0.19101607  0.88383740  0.58189132  1  0  0.499695  0  3.869227  0  0  0.448328  0  4.160942  0  0  0.4767  0  4.160317  0  0  0.236616  0.4293  0  4.16072  0
I  I56  1  0.55896671  0.65047587  0.69459575  1  0  -0.344703  0  1.675932  0  0  -0.291341  0  2.13229  0  0  -0.308185  0  2.086344  0  0  -0.167262  -0.278886  0  2.165585  0
I  I57  1  0.05908472  0.34953957  0.80539581  1  0  -0.344593  0  1.675927  0  0  -0.291187  0  2.132192  0  0  -0.308025  0  2.086253  0  0  -0.167193  -0.278736  0  2.165495  0
I  I58  1  0.44108982  0.34951055  0.30540260  1  0  -0.344648  0  1.675966  0  0  -0.291319  0  2.132365  0  0  -0.308154  0  2.086454  0  0  -0.167244  -0.278859  0  2.165637  0
I  I59  1  0.94094570  0.65045818  0.19460675  1  0  -0.344643  0  1.675939  0  0  -0.291249  0  2.132176  0  0  -0.308079  0  2.086236  0  0  -0.167243  -0.278793  0  2.165459  0
N  N60  1  0.56075553  0.63746861  0.88462534  1  0  -0.263359  0  3.377925  0  0  -0.186575  0  3.654473  0  0  -0.200706  0  3.666619  0  0  -0.359415  -0.177927  0  3.646966  0
N  N61  1  0.06071455  0.36252009  0.61536298  1  0  -0.263123  0  3.377447  0  0  -0.186702  0  3.654315  0  0  -0.200752  0  3.666387  0  0  -0.359494  -0.178107  0  3.646845  0
N  N62  1  0.43926185  0.36251988  0.11537424  1  0  -0.26316  0  3.377825  0  0  -0.186545  0  3.654504  0  0  -0.20062  0  3.66659  0  0  -0.359368  -0.177953  0  3.647048  0
N  N63  1  0.93927673  0.63748069  0.38463583  1  0  -0.263088  0  3.377384  0  0  -0.186592  0  3.6542  0  0  -0.20065  0  3.666261  0  0  -0.359466  -0.177999  0  3.646727  0
N  N64  1  0.50325769  0.90661100  0.13404678  1  0  -0.270996  0  3.396753  0  0  -0.216678  0  3.648948  0  0  -0.237069  0  3.662619  0  0  -0.332961  -0.203038  0  3.639636  0
N  N65  1  0.00324624  0.09338223  0.36595456  1  0  -0.271235  0  3.396538  0  0  -0.216786  0  3.648698  0  0  -0.237169  0  3.662359  0  0  -0.333015  -0.203133  0  3.639379  0
N  N66  1  0.49675751  0.09338983  0.86595711  1  0  -0.271187  0  3.396679  0  0  -0.216805  0  3.649028  0  0  -0.23718  0  3.662669  0  0  -0.333074  -0.203174  0  3.639712  0
N  N67  1  0.99673199  0.90662266  0.63404517  1  0  -0.270911  0  3.396483  0  0  -0.216629  0  3.648591  0  0  -0.237031  0  3.662268  0  0  -0.333  -0.202995  0  3.639298  0
N  N68  1  0.43988601  0.99432724  0.19809709  1  0  -0.471385  0  3.016717  0  0  -0.464699  0  3.262399  0  0  -0.471795  0  3.262078  0  0  -0.51618  -0.459411  0  3.263071  0
N  N69  1  0.93990520  0.00566597  0.30189799  1  0  -0.471521  0  3.016377  0  0  -0.464802  0  3.262082  0  0  -0.471897  0  3.261756  0  0  -0.516119  -0.459519  0  3.262757  0
N  N70  1  0.56011614  0.00567357  0.80190528  1  0  -0.471448  0  3.016575  0  0  -0.464786  0  3.262166  0  0  -0.471866  0  3.261896  0  0  -0.51615  -0.459494  0  3.262837  0
N  N71  1  0.06007738  0.99433688  0.69810256  1  0  -0.47159  0  3.016396  0  0  -0.464837  0  3.262105  0  0  -0.471937  0  3.261786  0  0  -0.516111  -0.459554  0  3.262784  0
O  O72  1  0.05657103  0.93194358  0.08822924  1  0  -0.57082  0  2.022148  0  0  -0.52383  0  2.255151  0  0  -0.544479  0  2.248492  0  0  -0.301974  -0.509309  0  2.259229  0
O  O73  1  0.55654830  0.06804899  0.41176629  1  0  -0.570889  0  2.021918  0  0  -0.523873  0  2.254979  0  0  -0.544521  0  2.24832  0  0  -0.302051  -0.509349  0  2.25907  0
O  O74  1  0.94345069  0.06805720  0.91177007  1  0  -0.570784  0  2.022294  0  0  -0.523842  0  2.255365  0  0  -0.544476  0  2.248677  0  0  -0.301901  -0.509323  0  2.259426  0
O  O75  1  0.44339948  0.93197224  0.58822750  1  0  -0.570815  0  2.021936  0  0  -0.523899  0  2.255015  0  0  -0.54452  0  2.248285  0  0  -0.301969  -0.509364  0  2.25908  0
