# generated using pymatgen
data_EuH26C21N5O12
_symmetry_space_group_name_H-M   'P 1'
_cell_length_a   9.68766130
_cell_length_b   10.15644269
_cell_length_c   14.82510643
_cell_angle_alpha   73.15964787
_cell_angle_beta   77.43359966
_cell_angle_gamma   74.80147096
_symmetry_Int_Tables_number   1
_chemical_formula_structural   EuH26C21N5O12
_chemical_formula_sum   'Eu2 H52 C42 N10 O24'
_cell_volume   1331.35712490
_cell_formula_units_Z   2
loop_
 _symmetry_equiv_pos_site_id
 _symmetry_equiv_pos_as_xyz
  1  'x, y, z'
loop_
 _atom_site_type_symbol
 _atom_site_label
 _atom_site_symmetry_multiplicity
 _atom_site_fract_x
 _atom_site_fract_y
 _atom_site_fract_z
 _atom_site_occupancy
 _atom_site_hle17_bader_spin_density
 _atom_site_hle17_ddec_charge
 _atom_site_hle17_ddec_spin_density
 _atom_site_hle17_ddec_sum_bond_order
 _atom_site_hle17_magmom
 _atom_site_hse06_10hf_bader_spin_density
 _atom_site_hse06_10hf_ddec_charge
 _atom_site_hse06_10hf_ddec_spin_density
 _atom_site_hse06_10hf_ddec_sum_bond_order
 _atom_site_hse06_10hf_magmom
 _atom_site_hse06_bader_spin_density
 _atom_site_hse06_ddec_charge
 _atom_site_hse06_ddec_spin_density
 _atom_site_hse06_ddec_sum_bond_order
 _atom_site_hse06_magmom
 _atom_site_pbe_bader_spin_density
 _atom_site_pbe_cm5_charge
 _atom_site_pbe_ddec_charge
 _atom_site_pbe_ddec_spin_density
 _atom_site_pbe_ddec_sum_bond_order
 _atom_site_pbe_magmom
Eu  Eu0  1  0.78684409  0.10167507  0.22075676  1  0  2.122698  0  1.761938  0  0  1.954975  0  2.271944  0  0  2.008816  0  2.223688  0  0  1.514118  1.914261  0  2.308751  0
Eu  Eu1  1  0.21315608  0.89832428  0.77924356  1  0  2.122701  0  1.761933  0  0  1.954955  0  2.271972  0  0  2.00878  0  2.223743  0  0  1.514139  1.914242  0  2.308778  0
H  H2  1  0.78946930  0.46139829  0.21713098  1  0  0.109816  0  0.995813  0  0  0.11749  0  1.063082  0  0  0.120851  0  1.062388  0  0  0.102393  0.115065  0  1.063803  0
H  H3  1  0.21053075  0.53860234  0.78286863  1  0  0.109826  0  0.99581  0  0  0.117497  0  1.063083  0  0  0.120859  0  1.062387  0  0  0.102397  0.115073  0  1.063803  0
H  H4  1  0.82909604  0.66872269  0.25662237  1  0  0.090778  0  0.958561  0  0  0.10021  0  1.022286  0  0  0.102928  0  1.019928  0  0  0.100473  0.098227  0  1.023697  0
H  H5  1  0.17090414  0.33127666  0.74337796  1  0  0.090777  0  0.958563  0  0  0.100207  0  1.022293  0  0  0.102926  0  1.019935  0  0  0.100473  0.098225  0  1.023705  0
H  H6  1  0.02523895  0.64342627  0.34884163  1  0  0.093465  0  0.958034  0  0  0.101422  0  1.023271  0  0  0.104454  0  1.023261  0  0  0.096556  0.099358  0  1.023164  0
H  H7  1  0.97476122  0.35657308  0.65115869  1  0  0.093437  0  0.957998  0  0  0.101396  0  1.023239  0  0  0.104427  0  1.023231  0  0  0.096546  0.099332  0  1.023135  0
H  H8  1  0.18630972  0.40682072  0.39788572  1  0  0.099109  0  0.969235  0  0  0.106479  0  1.036606  0  0  0.109387  0  1.033809  0  0  0.105382  0.10457  0  1.038328  0
H  H9  1  0.81368931  0.59317992  0.60211389  1  0  0.099113  0  0.969194  0  0  0.106479  0  1.036576  0  0  0.109387  0  1.033778  0  0  0.105391  0.104571  0  1.038293  0
H  H10  1  0.26464872  0.17140314  0.40124101  1  0  0.094656  0  0.93675  0  0  0.099172  0  1.012422  0  0  0.102773  0  1.005529  0  0  0.129829  0.096453  0  1.017274  0
H  H11  1  0.73535161  0.82859647  0.59875860  1  0  0.094651  0  0.936745  0  0  0.099163  0  1.012421  0  0  0.102765  0  1.005525  0  0  0.129824  0.096443  0  1.017274  0
H  H12  1  0.35313151  0.94144902  0.41259633  1  0  0.06866  0  0.887094  0  0  0.08473  0  0.938885  0  0  0.085151  0  0.939131  0  0  0.125321  0.084214  0  0.938986  0
H  H13  1  0.64686942  0.05855135  0.58740399  1  0  0.068664  0  0.887103  0  0  0.084723  0  0.938907  0  0  0.085144  0  0.939153  0  0  0.125327  0.084207  0  0.939008  0
H  H14  1  0.14018254  0.87445084  0.52563312  1  0  0.091423  0  0.942238  0  0  0.10676  0  1.005774  0  0  0.107789  0  1.006377  0  0  0.096649  0.106  0  1.005334  0
H  H15  1  0.85981660  0.12554851  0.47436721  1  0  0.09141  0  0.942251  0  0  0.106743  0  1.005781  0  0  0.107772  0  1.006385  0  0  0.096645  0.105984  0  1.00534  0
H  H16  1  0.09322713  0.80557451  0.44212774  1  0  0.074428  0  0.930805  0  0  0.092487  0  0.993631  0  0  0.093246  0  0.993958  0  0  0.091677  0.091825  0  0.993445  0
H  H17  1  0.90677320  0.19442510  0.55787187  1  0  0.074443  0  0.930788  0  0  0.092499  0  0.993606  0  0  0.093259  0  0.993933  0  0  0.091687  0.091838  0  0.993422  0
H  H18  1  0.22395065  0.61015916  0.55861373  1  0  0.070361  0  0.967179  0  0  0.089703  0  1.025893  0  0  0.089048  0  1.029272  0  0  0.088532  0.090121  0  1.023442  0
H  H19  1  0.77604838  0.38984148  0.44138589  1  0  0.070331  0  0.967183  0  0  0.08968  0  1.0259  0  0  0.089024  0  1.029279  0  0  0.088531  0.090098  0  1.023449  0
H  H20  1  0.36954949  0.69596449  0.53517207  1  0  0.069044  0  0.933459  0  0  0.087533  0  0.993932  0  0  0.088168  0  0.994185  0  0  0.089169  0.086901  0  0.99397  0
H  H21  1  0.63045057  0.30403614  0.46482754  1  0  0.069028  0  0.933462  0  0  0.087524  0  0.993936  0  0  0.088159  0  0.994189  0  0  0.08917  0.086892  0  0.993973  0
H  H22  1  0.27257359  0.58388451  0.39287663  1  0  0.061818  0  0.949619  0  0  0.083918  0  1.008698  0  0  0.083724  0  1.010003  0  0  0.08907  0.084005  0  1.007741  0
H  H23  1  0.72742674  0.41611510  0.60712299  1  0  0.061892  0  0.949583  0  0  0.083976  0  1.008673  0  0  0.083781  0  1.009978  0  0  0.089091  0.084061  0  1.007719  0
H  H24  1  0.42964202  0.50819190  0.44578273  1  0  0.073703  0  0.944448  0  0  0.093262  0  1.003087  0  0  0.093604  0  1.004028  0  0  0.093661  0.092944  0  1.002528  0
H  H25  1  0.57035815  0.49180745  0.55421760  1  0  0.073673  0  0.944509  0  0  0.093247  0  1.003126  0  0  0.093589  0  1.004068  0  0  0.093662  0.09293  0  1.002565  0
H  H26  1  0.52853604  0.72509545  0.36390947  1  0  0.083936  0  0.953926  0  0  0.09732  0  1.022515  0  0  0.09923  0  1.021119  0  0  0.091243  0.095839  0  1.023452  0
H  H27  1  0.47146414  0.27490390  0.63609086  1  0  0.083965  0  0.953886  0  0  0.097352  0  1.022473  0  0  0.099261  0  1.021077  0  0  0.091267  0.095871  0  1.023411  0
H  H28  1  0.48379047  0.65517316  0.27996472  1  0  0.083659  0  0.942184  0  0  0.100351  0  1.005163  0  0  0.100784  0  1.006083  0  0  0.094354  0.100157  0  1.004171  0
H  H29  1  0.51620959  0.34482747  0.72003489  1  0  0.083656  0  0.94219  0  0  0.100349  0  1.005175  0  0  0.100782  0  1.006094  0  0  0.094349  0.100156  0  1.004183  0
H  H30  1  0.24690728  0.82423937  0.27760777  1  0  0.063352  0  0.92592  0  0  0.075804  0  0.987699  0  0  0.076784  0  0.986978  0  0  0.118173  0.074793  0  0.988547  0
H  H31  1  0.75309290  0.17575998  0.72239256  1  0  0.063316  0  0.92597  0  0  0.075786  0  0.987705  0  0  0.076766  0  0.986982  0  0  0.118173  0.074777  0  0.988553  0
H  H32  1  0.25396352  0.97219081  0.13941776  1  0  0.082661  0  0.953436  0  0  0.090173  0  1.026296  0  0  0.092819  0  1.021322  0  0  0.127533  0.088238  0  1.029443  0
H  H33  1  0.74603681  0.02780880  0.86058185  1  0  0.082625  0  0.953455  0  0  0.090142  0  1.026312  0  0  0.092786  0  1.021341  0  0  0.12752  0.088208  0  1.02946  0
H  H34  1  0.23666831  0.12762586  0.98930305  1  0  0.102399  0  0.951818  0  0  0.112718  0  1.013162  0  0  0.115901  0  1.010327  0  0  0.103639  0.110469  0  1.014906  0
H  H35  1  0.76333202  0.87237375  0.01069656  1  0  0.102403  0  0.951817  0  0  0.112723  0  1.013161  0  0  0.115905  0  1.010326  0  0  0.103644  0.110473  0  1.014906  0
H  H36  1  0.30962066  0.32649406  0.86003655  1  0  0.089543  0  0.975717  0  0  0.10131  0  1.038152  0  0  0.103838  0  1.038284  0  0  0.098371  0.099438  0  1.038223  0
H  H37  1  0.69037820  0.67350631  0.13996378  1  0  0.089557  0  0.975701  0  0  0.101309  0  1.038152  0  0  0.103837  0  1.038283  0  0  0.098369  0.099436  0  1.038222  0
H  H38  1  0.51256134  0.42600172  0.87246555  1  0  0.095096  0  0.962596  0  0  0.10102  0  1.029781  0  0  0.105044  0  1.025241  0  0  0.099915  0.097885  0  1.033248  0
H  H39  1  0.48743708  0.57399941  0.12753549  1  0  0.095097  0  0.962598  0  0  0.101023  0  1.029779  0  0  0.105048  0  1.02524  0  0  0.099911  0.097887  0  1.033246  0
H  H40  1  0.64667050  0.32431081  0.00945405  1  0  0.113924  0  0.958549  0  0  0.126119  0  1.015716  0  0  0.129482  0  1.014947  0  0  0.108605  0.123682  0  1.016379  0
H  H41  1  0.35332940  0.67568956  0.99054627  1  0  0.113937  0  0.958539  0  0  0.126133  0  1.015699  0  0  0.12951  0  1.014911  0  0  0.10861  0.123692  0  1.016364  0
H  H42  1  0.83995173  0.43532461  0.04115588  1  0  0.076637  0  0.936888  0  0  0.094509  0  1.001895  0  0  0.095205  0  1.001856  0  0  0.098773  0.093951  0  1.002031  0
H  H43  1  0.16004758  0.56467500  0.95884374  1  0  0.076641  0  0.936903  0  0  0.094515  0  1.00191  0  0  0.095212  0  1.001871  0  0  0.098784  0.093958  0  1.002045  0
H  H44  1  0.99131705  0.37007781  0.95995894  1  0  0.078412  0  0.939339  0  0  0.095316  0  1.006292  0  0  0.095533  0  1.006955  0  0  0.09924  0.09499  0  1.006021  0
H  H45  1  0.00868340  0.62992052  0.04004139  1  0  0.078409  0  0.939347  0  0  0.095328  0  1.006288  0  0  0.095545  0  1.00695  0  0  0.099243  0.095002  0  1.006016  0
H  H46  1  0.01289855  0.35589342  0.07956096  1  0  0.085606  0  0.940485  0  0  0.103679  0  1.002131  0  0  0.103978  0  1.003038  0  0  0.103249  0.103327  0  1.001686  0
H  H47  1  0.98710189  0.64410491  0.92043937  1  0  0.085576  0  0.940583  0  0  0.103647  0  1.002235  0  0  0.103947  0  1.003141  0  0  0.103229  0.103294  0  1.001791  0
H  H48  1  0.08381039  0.05717923  0.31943846  1  0  0.297974  0  0.906293  0  0  0.281461  0  0.965181  0  0  0.29053  0  0.958109  0  0  0.318497  0.275113  0  0.96997  0
H  H49  1  0.91619011  0.94282064  0.68056044  1  0  0.297997  0  0.906281  0  0  0.281482  0  0.965166  0  0  0.290551  0  0.958093  0  0  0.318508  0.275134  0  0.969955  0
H  H50  1  0.49853805  0.96735538  0.22927806  1  0  0.303292  0  0.907288  0  0  0.284336  0  0.969086  0  0  0.293653  0  0.961561  0  0  0.318346  0.277785  0  0.974378  0
H  H51  1  0.50146229  0.03264423  0.77072155  1  0  0.303285  0  0.907285  0  0  0.284291  0  0.969126  0  0  0.293607  0  0.961606  0  0  0.318327  0.277739  0  0.974419  0
H  H52  1  0.89428735  0.18966990  0.00751031  1  0  0.375534  0  0.91528  0  0  0.347642  0  0.993115  0  0  0.358323  0  0.980807  0  0  0.306326  0.340104  0  1.001638  0
H  H53  1  0.10571195  0.81032971  0.99248931  1  0  0.375481  0  0.915375  0  0  0.347606  0  0.993172  0  0  0.358283  0  0.980872  0  0  0.306323  0.340071  0  1.001697  0
C  C54  1  0.96395914  0.31424344  0.28433350  1  0  0.393205  0  3.821963  0  0  0.380288  0  4.072515  0  0  0.400928  0  4.084606  0  0  0.109906  0.366913  0  4.063609  0
C  C55  1  0.03604092  0.68575719  0.71566611  1  0  0.393186  0  3.822003  0  0  0.38027  0  4.072554  0  0  0.40091  0  4.084643  0  0  0.109892  0.366892  0  4.063651  0
C  C56  1  0.87756207  0.45083293  0.25519082  1  0  -0.243889  0  3.740133  0  0  -0.261487  0  3.994947  0  0  -0.273135  0  4.01483  0  0  -0.113071  -0.2542  0  3.981513  0
C  C57  1  0.12243782  0.54916744  0.74480950  1  0  -0.243898  0  3.740154  0  0  -0.261495  0  3.994971  0  0  -0.273143  0  4.014854  0  0  -0.11307  -0.254206  0  3.98154  0
C  C58  1  0.90027456  0.56583685  0.27793146  1  0  -0.002598  0  3.754993  0  0  -0.022816  0  4.012547  0  0  -0.016234  0  4.030158  0  0  -0.080605  -0.026754  0  4.000117  0
C  C59  1  0.09972549  0.43416378  0.72206815  1  0  -0.00262  0  3.755035  0  0  -0.022839  0  4.012593  0  0  -0.016257  0  4.030203  0  0  -0.080627  -0.026777  0  4.000165  0
C  C60  1  0.01047653  0.55211438  0.33049495  1  0  -0.117072  0  3.789788  0  0  -0.135275  0  4.053471  0  0  -0.144732  0  4.077346  0  0  -0.11201  -0.129428  0  4.037583  0
C  C61  1  0.98952348  0.44788471  0.66950609  1  0  -0.116998  0  3.789754  0  0  -0.135203  0  4.053447  0  0  -0.144661  0  4.077322  0  0  -0.111964  -0.129357  0  4.03756  0
C  C62  1  0.09913775  0.42159718  0.35795469  1  0  -0.047577  0  3.742271  0  0  -0.072796  0  3.992031  0  0  -0.067303  0  4.012823  0  0  -0.076531  -0.076538  0  3.978517  0
C  C63  1  0.90086243  0.57840217  0.64204563  1  0  -0.047582  0  3.742235  0  0  -0.072801  0  3.992002  0  0  -0.067306  0  4.012793  0  0  -0.07654  -0.07654  0  3.978486  0
C  C64  1  0.07977868  0.30188946  0.33508900  1  0  -0.127064  0  3.785127  0  0  -0.104159  0  4.021651  0  0  -0.121407  0  4.049429  0  0  -0.030998  -0.093313  0  4.003354  0
C  C65  1  0.92022018  0.69811091  0.66491132  1  0  -0.127056  0  3.785128  0  0  -0.104153  0  4.02166  0  0  -0.121402  0  4.049437  0  0  -0.030982  -0.093308  0  4.00336  0
C  C66  1  0.17734045  0.17230023  0.36490711  1  0  0.214588  0  3.588305  0  0  0.155572  0  3.853774  0  0  0.178135  0  3.858542  0  0  0.106284  0.140953  0  3.850297  0
C  C67  1  0.82265868  0.82769913  0.63509322  1  0  0.214605  0  3.588229  0  0  0.155587  0  3.853699  0  0  0.17815  0  3.858466  0  0  0.106285  0.14097  0  3.85022  0
C  C68  1  0.26666746  0.91764498  0.38630169  1  0  0.117227  0  3.565774  0  0  0.092303  0  3.812325  0  0  0.095388  0  3.828259  0  0  0.026162  0.090268  0  3.801598  0
C  C69  1  0.73333288  0.08235463  0.61369792  1  0  0.117288  0  3.565782  0  0  0.092343  0  3.81232  0  0  0.095429  0  3.828254  0  0  0.026173  0.090309  0  3.801596  0
C  C70  1  0.18520481  0.82080269  0.46780977  1  0  -0.156706  0  3.652443  0  0  -0.202331  0  3.915014  0  0  -0.204388  0  3.92906  0  0  -0.161  -0.200666  0  3.905205  0
C  C71  1  0.81479449  0.17919692  0.53218984  1  0  -0.156767  0  3.652492  0  0  -0.202362  0  3.915042  0  0  -0.20442  0  3.929088  0  0  -0.16103  -0.200698  0  3.905234  0
C  C72  1  0.28561557  0.67907394  0.50255575  1  0  -0.11189  0  3.687174  0  0  -0.149433  0  3.945421  0  0  -0.150462  0  3.960408  0  0  -0.169201  -0.148529  0  3.934969  0
C  C73  1  0.71438432  0.32092643  0.49744458  1  0  -0.111803  0  3.687182  0  0  -0.149378  0  3.945452  0  0  -0.150405  0  3.960439  0  0  -0.169196  -0.148474  0  3.935001  0
C  C74  1  0.35637955  0.60906366  0.42072310  1  0  -0.099726  0  3.690181  0  0  -0.140779  0  3.951596  0  0  -0.14133  0  3.965979  0  0  -0.167383  -0.140261  0  3.941508  0
C  C75  1  0.64362079  0.39093595  0.57927651  1  0  -0.099769  0  3.690217  0  0  -0.140811  0  3.951643  0  0  -0.141363  0  3.966026  0  0  -0.167384  -0.140292  0  3.941555  0
C  C76  1  0.43823737  0.70492900  0.33967014  1  0  -0.162075  0  3.655755  0  0  -0.207268  0  3.915353  0  0  -0.208882  0  3.928478  0  0  -0.165522  -0.205795  0  3.905921  0
C  C77  1  0.56176253  0.29507137  0.66033018  1  0  -0.162086  0  3.655775  0  0  -0.207315  0  3.915389  0  0  -0.208924  0  3.928511  0  0  -0.165538  -0.205841  0  3.905961  0
C  C78  1  0.33515128  0.84453772  0.30400338  1  0  0.112164  0  3.580917  0  0  0.086512  0  3.826015  0  0  0.089978  0  3.841411  0  0  0.021498  0.084102  0  3.81592  0
C  C79  1  0.66484878  0.15546291  0.69599623  1  0  0.112158  0  3.581023  0  0  0.086562  0  3.826031  0  0  0.090028  0  3.841424  0  0  0.021492  0.08415  0  3.815941  0
C  C80  1  0.35030833  0.00354836  0.14573693  1  0  0.208123  0  3.615923  0  0  0.150672  0  3.878738  0  0  0.172627  0  3.885731  0  0  0.099632  0.136252  0  3.873831  0
C  C81  1  0.64969053  0.99645201  0.85426340  1  0  0.208237  0  3.616012  0  0  0.150781  0  3.87883  0  0  0.172737  0  3.885825  0  0  0.099676  0.136358  0  3.873927  0
C  C82  1  0.40274538  0.11042468  0.07184387  1  0  -0.132795  0  3.815715  0  0  -0.111082  0  4.055337  0  0  -0.128797  0  4.083964  0  0  -0.036035  -0.099808  0  4.036253  0
C  C83  1  0.59725451  0.88957569  0.92815646  1  0  -0.132804  0  3.815762  0  0  -0.11109  0  4.05539  0  0  -0.128804  0  4.084015  0  0  -0.036031  -0.099814  0  4.036304  0
C  C84  1  0.32683983  0.17081162  0.99273221  1  0  -0.054716  0  3.747175  0  0  -0.078719  0  3.999209  0  0  -0.073349  0  4.020007  0  0  -0.080979  -0.081795  0  3.984991  0
C  C85  1  0.67316062  0.82918671  0.00726812  1  0  -0.054728  0  3.747213  0  0  -0.078731  0  3.999245  0  0  -0.073361  0  4.020043  0  0  -0.081  -0.081808  0  3.985023  0
C  C86  1  0.36683985  0.28159440  0.92119797  1  0  -0.126639  0  3.802199  0  0  -0.146529  0  4.068223  0  0  -0.155428  0  4.091914  0  0  -0.114706  -0.140975  0  4.052713  0
C  C87  1  0.63316005  0.71840597  0.07880235  1  0  -0.126652  0  3.802227  0  0  -0.146532  0  4.068252  0  0  -0.155431  0  4.091943  0  0  -0.114712  -0.140976  0  4.052737  0
C  C88  1  0.48273229  0.33660917  0.92812888  1  0  0.004104  0  3.738279  0  0  -0.013682  0  3.993399  0  0  -0.007255  0  4.010285  0  0  -0.07675  -0.017704  0  3.982182  0
C  C89  1  0.51726761  0.66339120  0.07187145  1  0  0.004081  0  3.738311  0  0  -0.013703  0  3.993424  0  0  -0.007278  0  4.010316  0  0  -0.07675  -0.017724  0  3.982203  0
C  C90  1  0.55886245  0.27978135  0.00433127  1  0  -0.218032  0  3.71205  0  0  -0.235748  0  3.962336  0  0  -0.247268  0  3.982715  0  0  -0.107088  -0.228566  0  3.948583  0
C  C91  1  0.44113625  0.72021876  0.99566977  1  0  -0.218003  0  3.712048  0  0  -0.235712  0  3.96232  0  0  -0.247244  0  3.982693  0  0  -0.107088  -0.228529  0  3.948568  0
C  C92  1  0.52500101  0.16221370  0.07750445  1  0  0.396953  0  3.824807  0  0  0.381539  0  4.079853  0  0  0.402363  0  4.092255  0  0  0.107121  0.367725  0  4.070931  0
C  C93  1  0.47499933  0.83778591  0.92249516  1  0  0.396881  0  3.824859  0  0  0.381463  0  4.07991  0  0  0.402287  0  4.092315  0  0  0.107115  0.36765  0  4.070987  0
C  C94  1  0.93841608  0.35264916  0.03462660  1  0  -0.005673  0  3.627931  0  0  -0.098929  0  3.898745  0  0  -0.092352  0  3.901929  0  0  -0.141985  -0.103056  0  3.896039  0
C  C95  1  0.06158306  0.64735019  0.96537372  1  0  -0.005614  0  3.627938  0  0  -0.098889  0  3.898755  0  0  -0.092312  0  3.901936  0  0  -0.141965  -0.103018  0  3.896051  0
N  N96  1  0.16953168  0.05180272  0.35257979  1  0  -0.277897  0  3.363196  0  0  -0.210374  0  3.602369  0  0  -0.228645  0  3.614293  0  0  -0.368711  -0.19833  0  3.594001  0
N  N97  1  0.83046882  0.94819715  0.64741911  1  0  -0.277978  0  3.363132  0  0  -0.21045  0  3.602313  0  0  -0.22872  0  3.614238  0  0  -0.368754  -0.198404  0  3.593942  0
N  N98  1  0.40588752  0.93908227  0.22439307  1  0  -0.280698  0  3.361514  0  0  -0.212428  0  3.600008  0  0  -0.231515  0  3.61279  0  0  -0.372352  -0.200052  0  3.591718  0
N  N99  1  0.59411385  0.06091734  0.77560654  1  0  -0.280737  0  3.361616  0  0  -0.212453  0  3.600122  0  0  -0.231545  0  3.612916  0  0  -0.37234  -0.200076  0  3.591837  0
N  N100  1  0.01554050  0.88864842  0.14286245  1  0  0.722468  0  4.112173  0  0  0.73408  0  4.431473  0  0  0.763081  0  4.435994  0  0  0.087991  0.71471  0  4.427282  0
N  N101  1  0.98446162  0.11135221  0.85713715  1  0  0.72262  0  4.112015  0  0  0.734231  0  4.431311  0  0  0.763231  0  4.43583  0  0  0.088094  0.714861  0  4.427124  0
N  N102  1  0.73916245  0.87013224  0.38896639  1  0  0.693972  0  4.148138  0  0  0.731504  0  4.436479  0  0  0.759701  0  4.442083  0  0  0.087928  0.725977  0  4.413078  0
N  N103  1  0.26083641  0.12986814  0.61103394  1  0  0.693882  0  4.148327  0  0  0.731455  0  4.436628  0  0  0.759651  0  4.442231  0  0  0.087874  0.725906  0  4.413273  0
N  N104  1  0.54286345  0.31318859  0.27263559  1  0  0.698395  0  4.138642  0  0  0.745313  0  4.41202  0  0  0.775006  0  4.415385  0  0  0.083534  0.725247  0  4.40891  0
N  N105  1  0.45713672  0.68681076  0.72736474  1  0  0.698346  0  4.138564  0  0  0.745281  0  4.411953  0  0  0.774971  0  4.415319  0  0  0.08351  0.725215  0  4.408843  0
O  O106  1  0.94047676  0.20288744  0.26699527  1  0  -0.738921  0  2.073758  0  0  -0.679275  0  2.327345  0  0  -0.707322  0  2.322701  0  0  -0.432883  -0.659257  0  2.328898  0
O  O107  1  0.05952222  0.79711165  0.73300577  1  0  -0.738907  0  2.073805  0  0  -0.679249  0  2.327374  0  0  -0.707296  0  2.322743  0  0  -0.432871  -0.65923  0  2.328928  0
O  O108  1  0.59933361  0.10125824  0.14781092  1  0  -0.731733  0  2.117375  0  0  -0.673519  0  2.371156  0  0  -0.701899  0  2.367661  0  0  -0.433364  -0.653285  0  2.372379  0
O  O109  1  0.40066657  0.89874111  0.85218941  1  0  -0.731685  0  2.11739  0  0  -0.673457  0  2.371179  0  0  -0.701829  0  2.367677  0  0  -0.433353  -0.653224  0  2.372405  0
O  O110  1  0.02300399  0.92445995  0.21751564  1  0  -0.54256  0  1.816068  0  0  -0.532804  0  2.068061  0  0  -0.548876  0  2.060247  0  0  -0.231137  -0.520851  0  2.071997  0
O  O111  1  0.97699721  0.07553940  0.78248468  1  0  -0.542588  0  1.816058  0  0  -0.532851  0  2.068079  0  0  -0.548921  0  2.060266  0  0  -0.231184  -0.520898  0  2.072019  0
O  O112  1  0.12398464  0.81586192  0.10364540  1  0  -0.406545  0  1.788568  0  0  -0.380326  0  1.993889  0  0  -0.394818  0  1.98847  0  0  -0.136792  -0.370368  0  1.997582  0
O  O113  1  0.87601629  0.18413845  0.89635492  1  0  -0.40665  0  1.788472  0  0  -0.380414  0  1.993787  0  0  -0.394905  0  1.988362  0  0  -0.136841  -0.370453  0  1.99748  0
O  O114  1  0.89581461  0.93127326  0.11082158  1  0  -0.496546  0  1.78881  0  0  -0.480686  0  2.021535  0  0  -0.496152  0  2.015283  0  0  -0.200216  -0.46982  0  2.025423  0
O  O115  1  0.10418648  0.06872737  0.88917803  1  0  -0.496576  0  1.788802  0  0  -0.480713  0  2.021526  0  0  -0.496176  0  2.015273  0  0  -0.200224  -0.469845  0  2.025415  0
O  O116  1  0.70092237  0.88549223  0.30740169  1  0  -0.557849  0  1.817409  0  0  -0.54756  0  2.055275  0  0  -0.564486  0  2.047881  0  0  -0.257088  -0.540021  0  2.05496  0
O  O117  1  0.29907677  0.11450712  0.69259864  1  0  -0.557868  0  1.817484  0  0  -0.547569  0  2.055295  0  0  -0.564492  0  2.047905  0  0  -0.257085  -0.540022  0  2.054992  0
O  O118  1  0.70738475  0.77618836  0.45887037  1  0  -0.36763  0  1.742448  0  0  -0.36286  0  1.93735  0  0  -0.374369  0  1.93157  0  0  -0.134293  -0.359485  0  1.93538  0
O  O119  1  0.29261428  0.22381227  0.54112925  1  0  -0.367598  0  1.742421  0  0  -0.362853  0  1.937312  0  0  -0.374362  0  1.931532  0  0  -0.134292  -0.35947  0  1.935351  0
O  O120  1  0.81104988  0.95811998  0.39175767  1  0  -0.523214  0  1.769172  0  0  -0.518952  0  1.999108  0  0  -0.534781  0  1.99264  0  0  -0.229718  -0.512167  0  1.997829  0
O  O121  1  0.18895045  0.04187963  0.60824194  1  0  -0.523149  0  1.769309  0  0  -0.518903  0  1.999246  0  0  -0.53473  0  1.992779  0  0  -0.229671  -0.512106  0  1.997983  0
O  O122  1  0.57107220  0.18860227  0.32803071  1  0  -0.542268  0  1.75909  0  0  -0.546186  0  1.986071  0  0  -0.562831  0  1.978379  0  0  -0.257822  -0.534368  0  1.990774  0
O  O123  1  0.42892694  0.81139708  0.67196961  1  0  -0.54227  0  1.759085  0  0  -0.546194  0  1.98607  0  0  -0.562834  0  1.978376  0  0  -0.257839  -0.534374  0  1.990773  0
O  O124  1  0.43102879  0.39974376  0.28872227  1  0  -0.362402  0  1.768604  0  0  -0.357673  0  1.961786  0  0  -0.370037  0  1.956795  0  0  -0.124822  -0.349022  0  1.96496  0
O  O125  1  0.56897051  0.60025585  0.71127734  1  0  -0.362353  0  1.768544  0  0  -0.357645  0  1.961719  0  0  -0.370009  0  1.956733  0  0  -0.124792  -0.348995  0  1.964893  0
O  O126  1  0.63914177  0.34180241  0.19884729  1  0  -0.54477  0  1.831537  0  0  -0.532976  0  2.061301  0  0  -0.550755  0  2.054461  0  0  -0.246495  -0.520079  0  2.065255  0
O  O127  1  0.36085753  0.65819721  0.80115232  1  0  -0.54478  0  1.831584  0  0  -0.532962  0  2.061306  0  0  -0.550744  0  2.054477  0  0  -0.246497  -0.520066  0  2.065258  0
O  O128  1  0.90349976  0.21531006  0.06557442  1  0  -0.633693  0  2.230873  0  0  -0.571039  0  2.49373  0  0  -0.589456  0  2.482211  0  0  -0.479612  -0.557391  0  2.499986  0
O  O129  1  0.09650013  0.78469031  0.93442590  1  0  -0.633661  0  2.230867  0  0  -0.571006  0  2.49373  0  0  -0.589419  0  2.482212  0  0  -0.47961  -0.557363  0  2.499983  0
