# generated using pymatgen
data_ZnH7C9NO5
_symmetry_space_group_name_H-M   'P 1'
_cell_length_a   9.24058406
_cell_length_b   13.94648550
_cell_length_c   16.84896842
_cell_angle_alpha   96.62495892
_cell_angle_beta   90.01527151
_cell_angle_gamma   109.34688437
_symmetry_Int_Tables_number   1
_chemical_formula_structural   ZnH7C9NO5
_chemical_formula_sum   'Zn8 H56 C72 N8 O40'
_cell_volume   2033.37343830
_cell_formula_units_Z   8
loop_
 _symmetry_equiv_pos_site_id
 _symmetry_equiv_pos_as_xyz
  1  'x, y, z'
loop_
 _atom_site_type_symbol
 _atom_site_label
 _atom_site_symmetry_multiplicity
 _atom_site_fract_x
 _atom_site_fract_y
 _atom_site_fract_z
 _atom_site_occupancy
 _atom_site_pbe_bader_charge
 _atom_site_pbe_bader_spin_density
 _atom_site_pbe_cm5_charge
 _atom_site_pbe_ddec_charge
 _atom_site_pbe_ddec_spin_density
 _atom_site_pbe_ddec_sum_bond_order
 _atom_site_pbe_magmom
Zn  Zn0  1  0.36383576  0.34151923  0.34549142  1  1.339523  0  0.672749  0.869555  0  2.278844  0
Zn  Zn1  1  0.02217735  0.65853556  0.15444101  1  1.338246  0  0.672754  0.869302  0  2.279139  0
Zn  Zn2  1  0.63617238  0.65847891  0.65450885  1  1.339585  0  0.672739  0.869515  0  2.278816  0
Zn  Zn3  1  0.97783236  0.34146788  0.84556223  1  1.338287  0  0.672761  0.869341  0  2.279233  0
Zn  Zn4  1  0.78702843  0.33990468  0.55066350  1  1.294849  0  0.708423  0.875965  0  2.276825  0
Zn  Zn5  1  0.44738111  0.66010453  0.94953382  1  1.294824  0  0.708127  0.875583  0  2.27636  0
Zn  Zn6  1  0.21297098  0.66009115  0.44933711  1  1.294864  0  0.708424  0.87597  0  2.276797  0
Zn  Zn7  1  0.55262426  0.33989673  0.05046502  1  1.294868  0  0.708162  0.875637  0  2.276447  0
H  H8  1  0.09294418  0.23576893  0.34956840  1  0.629615  0  0.278255  0.366697  0  0.983858  0
H  H9  1  0.85680484  0.76405636  0.15011346  1  0.629913  0  0.278867  0.367686  0  0.982456  0
H  H10  1  0.90706090  0.76423609  0.65043323  1  0.629574  0  0.278297  0.366732  0  0.983804  0
H  H11  1  0.14319960  0.23594087  0.84989265  1  0.629925  0  0.278772  0.367557  0  0.982643  0
H  H12  1  0.14038324  0.25143934  0.44448699  1  0.658416  0  0.283709  0.391193  0  0.94648  0
H  H13  1  0.88841550  0.74822268  0.05518254  1  0.65962  0  0.283684  0.391041  0  0.946619  0
H  H14  1  0.85961992  0.74856183  0.55551481  1  0.658433  0  0.2837  0.391152  0  0.946543  0
H  H15  1  0.11157895  0.25176539  0.94482136  1  0.659603  0  0.283689  0.390989  0  0.946669  0
H  H16  1  0.79827350  0.48114690  0.32172260  1  0.094461  0  0.114296  0.083468  0  1.018426  0
H  H17  1  0.31722356  0.51946126  0.17864728  1  0.105219  0  0.114286  0.082963  0  1.018472  0
H  H18  1  0.20173861  0.51886134  0.67827345  1  0.094344  0  0.114326  0.083518  0  1.018366  0
H  H19  1  0.68278543  0.48054074  0.82135224  1  0.105292  0  0.11426  0.082947  0  1.018496  0
H  H20  1  0.67915098  0.59865139  0.45374834  1  0.090561  0  0.114736  0.117639  0  0.955462  0
H  H21  1  0.08123028  0.40185144  0.04629700  1  0.084901  0  0.115116  0.117685  0  0.955787  0
H  H22  1  0.32083565  0.40134053  0.54625539  1  0.090546  0  0.114763  0.117693  0  0.955494  0
H  H23  1  0.91878104  0.59814439  0.95370361  1  0.085054  0  0.115134  0.11771  0  0.955718  0
H  H24  1  0.64851481  0.71446158  0.36759759  1  0.041952  0  0.10674  0.102469  0  0.994975  0
H  H25  1  0.93446183  0.28577770  0.13214891  1  0.080932  0  0.107123  0.103019  0  0.994065  0
H  H26  1  0.35147634  0.28553503  0.63240252  1  0.041939  0  0.106765  0.1025  0  0.994995  0
H  H27  1  0.06555066  0.71422264  0.86785576  1  0.080894  0  0.107154  0.103087  0  0.993896  0
H  H28  1  0.49517546  0.56614710  0.24757707  1  0.109545  0  0.123914  0.099959  0  0.968576  0
H  H29  1  0.92852935  0.43387907  0.25216076  1  0.110627  0  0.124035  0.099498  0  0.968128  0
H  H30  1  0.50482135  0.43384568  0.75242261  1  0.109557  0  0.123918  0.099936  0  0.968588  0
H  H31  1  0.07147026  0.56612149  0.74783503  1  0.110958  0  0.124031  0.099457  0  0.96814  0
H  H32  1  0.65059727  0.27261292  0.28556457  1  0.114986  0  0.122629  0.095354  0  0.984284  0
H  H33  1  0.37815502  0.72774380  0.21455314  1  0.112434  0  0.122746  0.095178  0  0.984681  0
H  H34  1  0.34939835  0.72739698  0.71442632  1  0.114939  0  0.122734  0.095528  0  0.984294  0
H  H35  1  0.62184778  0.27225665  0.78544680  1  0.112392  0  0.12273  0.09517  0  0.984569  0
H  H36  1  0.68913420  0.13433126  0.19403874  1  0.085168  0  0.110252  0.117275  0  1.013998  0
H  H37  1  0.55456600  0.86596565  0.30632855  1  0.119936  0  0.11039  0.117213  0  1.014103  0
H  H38  1  0.31084759  0.86567479  0.80595291  1  0.085027  0  0.110244  0.117183  0  1.013983  0
H  H39  1  0.44543074  0.13403568  0.69366733  1  0.119883  0  0.110363  0.117175  0  1.01419  0
H  H40  1  0.19559008  0.01461058  0.14819431  1  0.095495  0  0.113244  0.121394  0  0.996797  0
H  H41  1  0.18034519  0.98542798  0.35170946  1  0.099466  0  0.113614  0.121917  0  0.997038  0
H  H42  1  0.80439318  0.98538974  0.85181095  1  0.095676  0  0.11325  0.12138  0  0.996785  0
H  H43  1  0.81966614  0.01457873  0.64828642  1  0.099353  0  0.113605  0.121903  0  0.996992  0
H  H44  1  0.17896994  0.16080554  0.24040182  1  0.119393  0  0.119837  0.091117  0  1.026432  0
H  H45  1  0.01797000  0.83928696  0.25922468  1  0.116025  0  0.119562  0.090949  0  1.027419  0
H  H46  1  0.82101739  0.83919859  0.75960446  1  0.119584  0  0.119801  0.091111  0  1.026371  0
H  H47  1  0.98204006  0.16071503  0.74077543  1  0.115953  0  0.119587  0.090965  0  1.02741  0
H  H48  1  0.68821460  0.83037776  0.05515401  1  0.151564  0  0.122346  0.104078  0  1.019455  0
H  H49  1  0.85700356  0.17005818  0.44504847  1  0.114167  0  0.122301  0.104258  0  1.018377  0
H  H50  1  0.31178119  0.16963030  0.94484855  1  0.151465  0  0.122436  0.104137  0  1.019616  0
H  H51  1  0.14298639  0.82994687  0.55495198  1  0.114371  0  0.12229  0.10426  0  1.018448  0
H  H52  1  0.68041752  0.97825216  0.15211726  1  0.090823  0  0.114523  0.124155  0  0.986311  0
H  H53  1  0.70140017  0.02224533  0.34799396  1  0.085143  0  0.114616  0.124739  0  0.985969  0
H  H54  1  0.31957255  0.02175528  0.84787988  1  0.090527  0  0.114521  0.124216  0  0.986203  0
H  H55  1  0.29860225  0.97775435  0.65200649  1  0.085049  0  0.114577  0.124688  0  0.986015  0
H  H56  1  0.23555718  0.93905639  0.04427601  1  0.103783  0  0.115271  0.124168  0  0.990486  0
H  H57  1  0.29559928  0.06088345  0.45590602  1  0.076137  0  0.115128  0.124762  0  0.990543  0
H  H58  1  0.76442387  0.06093952  0.95572163  1  0.103695  0  0.115192  0.123995  0  0.990658  0
H  H59  1  0.70440022  0.93911473  0.54409307  1  0.076077  0  0.115176  0.124841  0  0.990648  0
H  H60  1  0.25991518  0.79045106  0.95681433  1  0.128612  0  0.121414  0.092403  0  1.009191  0
H  H61  1  0.46838726  0.20949424  0.54345147  1  0.121973  0  0.121261  0.092052  0  1.009417  0
H  H62  1  0.74008383  0.20954396  0.04318797  1  0.128739  0  0.121407  0.09239  0  1.009181  0
H  H63  1  0.53160398  0.79050691  0.45655151  1  0.122108  0  0.121289  0.09208  0  1.009357  0
C  C64  1  0.70317229  0.48751818  0.35835613  1  0.42165  0  -0.001567  0.018064  0  3.830037  0
C  C65  1  0.21583169  0.51290591  0.14187912  1  0.414126  0  -0.001268  0.019166  0  3.828771  0
C  C66  1  0.29683589  0.51248004  0.64164118  1  0.421986  0  -0.001643  0.018032  0  3.830203  0
C  C67  1  0.78417432  0.48709231  0.85811819  1  0.414075  0  -0.001289  0.019053  0  3.828899  0
C  C68  1  0.74422108  0.59801028  0.39896253  1  -0.004661  0  -0.07987  -0.162776  0  3.8181  0
C  C69  1  0.14665822  0.40244881  0.10118609  1  -0.012692  0  -0.080375  -0.162198  0  3.820621  0
C  C70  1  0.25577880  0.40199083  0.60104163  1  -0.004999  0  -0.079931  -0.162952  0  3.818483  0
C  C71  1  0.85334992  0.59754933  0.89881419  1  -0.004986  0  -0.080346  -0.162219  0  3.820501  0
C  C72  1  0.67807920  0.64956141  0.33843411  1  0.021024  0  -0.084207  -0.170047  0  3.839688  0
C  C73  1  0.02874292  0.35067576  0.16147508  1  -0.022738  0  -0.084494  -0.17131  0  3.842329  0
C  C74  1  0.32192320  0.35043824  0.66156751  1  0.021064  0  -0.084192  -0.170141  0  3.839828  0
C  C75  1  0.97126315  0.64932689  0.83852925  1  -0.022796  0  -0.084577  -0.171399  0  3.84233  0
C  C76  1  0.53085897  0.56117570  0.30868700  1  0.417331  0  0.009529  0.0311  0  3.803346  0
C  C77  1  0.96968882  0.43895733  0.19116096  1  0.408533  0  0.009716  0.032207  0  3.80194  0
C  C78  1  0.46914624  0.43882090  0.69131370  1  0.417533  0  0.009561  0.03145  0  3.803236  0
C  C79  1  0.03031770  0.56104624  0.80883754  1  0.407885  0  0.009653  0.032076  0  3.802002  0
C  C80  1  0.67237195  0.41079531  0.41884193  1  1.573193  0  0.21228  0.564945  0  4.175138  0
C  C81  1  0.26166396  0.58953221  0.08133265  1  1.58197  0  0.211816  0.564877  0  4.176526  0
C  C82  1  0.32764227  0.58919767  0.58115005  1  1.572646  0  0.212144  0.564879  0  4.175122  0
C  C83  1  0.73834538  0.41047048  0.91866991  1  1.58257  0  0.211896  0.565092  0  4.176521  0
C  C84  1  0.91242427  0.65201845  0.42499850  1  1.599493  0  0.220211  0.627496  0  4.136177  0
C  C85  1  0.26089603  0.34850979  0.07527593  1  1.614335  0  0.21959  0.625869  0  4.136743  0
C  C86  1  0.08757237  0.34798267  0.57500567  1  1.599879  0  0.220252  0.627491  0  4.13622  0
C  C87  1  0.73909860  0.65148297  0.92472494  1  1.606509  0  0.219608  0.62597  0  4.136736  0
C  C88  1  0.77707797  0.68488646  0.26741479  1  1.578809  0  0.207021  0.600141  0  4.155572  0
C  C89  1  0.09224804  0.31521670  0.23250750  1  1.596237  0  0.20701  0.600615  0  4.156611  0
C  C90  1  0.22291477  0.31510253  0.73258328  1  1.579089  0  0.206912  0.600119  0  4.155715  0
C  C91  1  0.90776644  0.68478978  0.76749667  1  1.593477  0  0.206993  0.600614  0  4.156982  0
C  C92  1  0.39823499  0.55846222  0.36443862  1  1.597125  0  0.214766  0.574279  0  4.144293  0
C  C93  1  0.84002099  0.44160393  0.13517366  1  1.592203  0  0.214977  0.574907  0  4.139677  0
C  C94  1  0.60176257  0.44153207  0.63556241  1  1.596921  0  0.21473  0.574056  0  4.144432  0
C  C95  1  0.15999125  0.55839592  0.86482027  1  1.592814  0  0.215008  0.575024  0  4.139323  0
C  C96  1  0.55182043  0.21423114  0.25400743  1  0.498376  0  0.05948  0.120853  0  3.927028  0
C  C97  1  0.33760172  0.78608192  0.24602869  1  0.499417  0  0.059894  0.121249  0  3.926397  0
C  C98  1  0.44817123  0.78577950  0.74598473  1  0.498534  0  0.059265  0.1204  0  3.927295  0
C  C99  1  0.66239802  0.21391240  0.75397116  1  0.499261  0  0.059903  0.121195  0  3.926109  0
C  C100  1  0.57241325  0.13482295  0.20230592  1  0.025099  0  -0.077184  -0.170945  0  3.929901  0
C  C101  1  0.43735692  0.86541122  0.29791254  1  -0.074303  0  -0.078001  -0.171311  0  3.930967  0
C  C102  1  0.42757786  0.86518224  0.79768920  1  0.027473  0  -0.077157  -0.170667  0  3.929679  0
C  C103  1  0.56263823  0.13458475  0.70208274  1  -0.074063  0  -0.078071  -0.171296  0  3.930795  0
C  C104  1  0.44449573  0.06019637  0.16183065  1  -0.066818  0  0.008995  0.092965  0  3.993096  0
C  C105  1  0.38379965  0.93996363  0.33828371  1  -0.013452  0  0.009403  0.093362  0  3.993306  0
C  C106  1  0.55549634  0.93980643  0.83816776  1  -0.069412  0  0.008941  0.09278  0  3.993022  0
C  C107  1  0.61619369  0.06003305  0.66171403  1  -0.013228  0  0.009506  0.093302  0  3.993319  0
C  C108  1  0.30058331  0.07076346  0.17590992  1  0.000473  0  -0.078857  -0.166558  0  3.946212  0
C  C109  1  0.22929670  0.92933553  0.32402613  1  0.007018  0  -0.079302  -0.167597  0  3.946731  0
C  C110  1  0.69940548  0.92923927  0.82409146  1  0.000555  0  -0.078834  -0.166463  0  3.946459  0
C  C111  1  0.77070581  0.07066649  0.67597279  1  0.007114  0  -0.07923  -0.167477  0  3.94656  0
C  C112  1  0.29002965  0.15206676  0.22828332  1  0.461901  0  0.049974  0.103835  0  3.933712  0
C  C113  1  0.13776026  0.84810544  0.27148832  1  0.4536  0  0.050234  0.104161  0  3.935081  0
C  C114  1  0.70995695  0.84793590  0.77172042  1  0.464249  0  0.050063  0.103789  0  3.933739  0
C  C115  1  0.86224174  0.15189343  0.72851381  1  0.453597  0  0.050169  0.104109  0  3.935134  0
C  C116  1  0.59083015  0.85800301  0.05602533  1  0.465435  0  0.053814  0.102087  0  3.925839  0
C  C117  1  0.73197243  0.14227926  0.44422327  1  0.535633  0  0.053798  0.101665  0  3.924693  0
C  C118  1  0.40916720  0.14200818  0.94397520  1  0.465384  0  0.053703  0.102045  0  3.925901  0
C  C119  1  0.26800936  0.85771812  0.55577692  1  0.534637  0  0.053837  0.101673  0  3.924969  0
C  C120  1  0.58538355  0.94086498  0.10872064  1  -0.00963  0  -0.078467  -0.171617  0  3.942441  0
C  C121  1  0.64372800  0.05947799  0.39146429  1  -0.009524  0  -0.078402  -0.17244  0  3.942436  0
C  C122  1  0.41460682  0.05914308  0.89128251  1  -0.009439  0  -0.078462  -0.171746  0  3.942592  0
C  C123  1  0.35626430  0.94051878  0.60852989  1  -0.008729  0  -0.078484  -0.172506  0  3.942516  0
C  C124  1  0.45698202  0.97329948  0.10670456  1  -0.0205  0  0.014492  0.101798  0  3.982039  0
C  C125  1  0.48293601  0.02689046  0.39347832  1  -0.066056  0  0.014341  0.102588  0  3.979955  0
C  C126  1  0.54300240  0.02670317  0.89329978  1  -0.020291  0  0.014449  0.101873  0  3.981991  0
C  C127  1  0.51706412  0.97310464  0.60652102  1  -0.066196  0  0.014429  0.102741  0  3.979906  0
C  C128  1  0.33864753  0.91870136  0.04999218  1  -0.018181  0  -0.075088  -0.15796  0  3.921222  0
C  C129  1  0.41904219  0.08137255  0.45019053  1  0.018415  0  -0.074756  -0.159336  0  3.919271  0
C  C130  1  0.66133782  0.08129449  0.95000784  1  -0.01676  0  -0.074932  -0.15768  0  3.921082  0
C  C131  1  0.58096794  0.91863173  0.54980983  1  0.018299  0  -0.074799  -0.15937  0  3.919477  0
C  C132  1  0.35130443  0.83595221  0.00008455  1  0.472321  0  0.054195  0.111853  0  3.949898  0
C  C133  1  0.51441654  0.16409610  0.50017569  1  0.512865  0  0.05429  0.112569  0  3.949298  0
C  C134  1  0.64868869  0.16405052  0.99991683  1  0.47022  0  0.054114  0.111737  0  3.949865  0
C  C135  1  0.48557541  0.83590644  0.49983279  1  0.513094  0  0.054262  0.112481  0  3.949216  0
N  N136  1  0.41336738  0.22306226  0.26741107  1  -1.216025  0  -0.312284  -0.230504  0  3.498668  0
N  N137  1  0.19034320  0.77722238  0.23240796  1  -1.20775  0  -0.312419  -0.230384  0  3.496351  0
N  N138  1  0.58661997  0.77693974  0.73258844  1  -1.218541  0  -0.312191  -0.230258  0  3.498557  0
N  N139  1  0.80966067  0.22277804  0.76759375  1  -1.207732  0  -0.312403  -0.230395  0  3.496357  0
N  N140  1  0.47521167  0.80588965  0.00252819  1  -1.249789  0  -0.328082  -0.251007  0  3.584953  0
N  N141  1  0.66839431  0.19421921  0.49777286  1  -1.270992  0  -0.328306  -0.251033  0  3.585974  0
N  N142  1  0.52478808  0.19411770  0.99747251  1  -1.249101  0  -0.328062  -0.251007  0  3.585113  0
N  N143  1  0.33159879  0.80578348  0.50222970  1  -1.271125  0  -0.328331  -0.25108  0  3.585986  0
O  O144  1  0.56950781  0.46897378  0.30632628  1  -1.018734  0  -0.203212  -0.236136  0  2.494476  0
O  O145  1  0.10045430  0.53123125  0.19377313  1  -1.020102  0  -0.203332  -0.236501  0  2.493404  0
O  O146  1  0.43049482  0.53101982  0.69367171  1  -1.018847  0  -0.203227  -0.236271  0  2.494449  0
O  O147  1  0.89955648  0.46877001  0.80622570  1  -1.020147  0  -0.203272  -0.236359  0  2.49349  0
O  O148  1  0.17469275  0.23534593  0.38948152  1  -1.280217  0  -0.586967  -0.765377  0  2.105003  0
O  O149  1  0.93887959  0.76445192  0.11019034  1  -1.280708  0  -0.587367  -0.765822  0  2.103464  0
O  O150  1  0.82531257  0.76465523  0.61052087  1  -1.280212  0  -0.586975  -0.765356  0  2.105033  0
O  O151  1  0.06111786  0.23554000  0.88981340  1  -1.280633  0  -0.587283  -0.765682  0  2.103511  0
O  O152  1  0.53708886  0.35260365  0.42882687  1  -1.169336  0  -0.310301  -0.543285  0  2.329712  0
O  O153  1  0.18433351  0.64751550  0.07113797  1  -1.172776  0  -0.31036  -0.543227  0  2.32855  0
O  O154  1  0.46292825  0.64739079  0.57116824  1  -1.169032  0  -0.310221  -0.543134  0  2.329395  0
O  O155  1  0.81568756  0.35249334  0.92886409  1  -1.173036  0  -0.310285  -0.543251  0  2.328588  0
O  O156  1  0.79308572  0.41307046  0.45641774  1  -1.15797  0  -0.311303  -0.511465  0  2.332751  0
O  O157  1  0.38017201  0.58721142  0.04388274  1  -1.162609  0  -0.310751  -0.51142  0  2.335457  0
O  O158  1  0.20692768  0.58692088  0.54357821  1  -1.157768  0  -0.311213  -0.511451  0  2.332797  0
O  O159  1  0.61983033  0.41278377  0.95611305  1  -1.163052  0  -0.31088  -0.511571  0  2.33551  0
O  O160  1  0.00973614  0.61007019  0.39849268  1  -1.144025  0  -0.310838  -0.514548  0  2.343854  0
O  O161  1  0.40030068  0.39056523  0.10161761  1  -1.140234  0  -0.310467  -0.513676  0  2.343914  0
O  O162  1  0.99025781  0.38992554  0.60151207  1  -1.144188  0  -0.310886  -0.514561  0  2.343913  0
O  O163  1  0.59970054  0.60942773  0.89837556  1  -1.140387  0  -0.310521  -0.513663  0  2.34389  0
O  O164  1  0.94582598  0.73447227  0.47177382  1  -1.214053  0  -0.330295  -0.588155  0  2.174543  0
O  O165  1  0.21180244  0.26588878  0.02866609  1  -1.217263  0  -0.3302  -0.587793  0  2.172676  0
O  O166  1  0.05415560  0.26553119  0.52822882  1  -1.214251  0  -0.330294  -0.588133  0  2.174573  0
O  O167  1  0.78819137  0.73409367  0.97134728  1  -1.217025  0  -0.330123  -0.587824  0  2.172828  0
O  O168  1  0.87401176  0.63988055  0.24888478  1  -1.171857  0  -0.313136  -0.540835  0  2.34231  0
O  O169  1  0.23420617  0.36013837  0.25105284  1  -1.180808  0  -0.313109  -0.540893  0  2.342864  0
O  O170  1  0.12598646  0.36011289  0.75111913  1  -1.171784  0  -0.313066  -0.540811  0  2.342344  0
O  O171  1  0.76580914  0.63986977  0.74894676  1  -1.180525  0  -0.313056  -0.540853  0  2.343144  0
O  O172  1  0.75356752  0.75454062  0.23229034  1  -1.190739  0  -0.344568  -0.58231  0  2.100014  0
O  O173  1  0.99907106  0.24553961  0.26760887  1  -1.197206  0  -0.344711  -0.58248  0  2.100261  0
O  O174  1  0.24643339  0.24545821  0.76771298  1  -1.19097  0  -0.34452  -0.582247  0  2.100126  0
O  O175  1  0.00094184  0.75447671  0.73240114  1  -1.194693  0  -0.344762  -0.582509  0  2.100313  0
O  O176  1  0.36441757  0.64101229  0.37141223  1  -1.178809  0  -0.320869  -0.549547  0  2.358599  0
O  O177  1  0.72386602  0.35891710  0.12800406  1  -1.169738  0  -0.320823  -0.549711  0  2.356613  0
O  O178  1  0.63556364  0.35897529  0.62858093  1  -1.178931  0  -0.320844  -0.549501  0  2.358527  0
O  O179  1  0.27614775  0.64108583  0.87198962  1  -1.169893  0  -0.320863  -0.549813  0  2.356305  0
O  O180  1  0.33525913  0.48106986  0.39924157  1  -1.167854  0  -0.299924  -0.513243  0  2.279374  0
O  O181  1  0.85434936  0.51907175  0.10046397  1  -1.16682  0  -0.30033  -0.513942  0  2.277679  0
O  O182  1  0.66474402  0.51891829  0.60075937  1  -1.167651  0  -0.299932  -0.513159  0  2.279382  0
O  O183  1  0.14566942  0.48092821  0.89952582  1  -1.16693  0  -0.300323  -0.513935  0  2.277736  0
