# generated using pymatgen
data_NiH16C10S2(N2O3)2
_symmetry_space_group_name_H-M   'P 1'
_cell_length_a   12.96982014
_cell_length_b   12.96983266
_cell_length_c   20.50688456
_cell_angle_alpha   89.99671202
_cell_angle_beta   90.00320656
_cell_angle_gamma   119.99477079
_symmetry_Int_Tables_number   1
_chemical_formula_structural   NiH16C10S2(N2O3)2
_chemical_formula_sum   'Ni6 H96 C60 S12 N24 O36'
_cell_volume   2987.59363613
_cell_formula_units_Z   6
loop_
 _symmetry_equiv_pos_site_id
 _symmetry_equiv_pos_as_xyz
  1  'x, y, z'
loop_
 _atom_site_type_symbol
 _atom_site_label
 _atom_site_symmetry_multiplicity
 _atom_site_fract_x
 _atom_site_fract_y
 _atom_site_fract_z
 _atom_site_occupancy
 _atom_site_pbe_bader_charge
 _atom_site_pbe_bader_spin_density
 _atom_site_pbe_cm5_charge
 _atom_site_pbe_ddec_charge
 _atom_site_pbe_ddec_spin_density
 _atom_site_pbe_ddec_sum_bond_order
 _atom_site_pbe_magmom
Ni  Ni0  1  0.44673365  0.07215947  0.65767357  1  1.096847  -0.001836  0.606531  0.755363  -0.002614  2.470121  -0.002
Ni  Ni1  1  0.92794327  0.37479603  0.99098663  1  1.097677  -0.000693  0.606168  0.755282  -0.000335  2.469248  -0.001
Ni  Ni2  1  0.62525825  0.55327127  0.32435210  1  1.094057  -0.000714  0.606605  0.755638  -0.000468  2.469124  -0.001
Ni  Ni3  1  0.37479813  0.92794385  0.00901305  1  1.097705  -0.000704  0.606161  0.755273  -0.000366  2.469264  -0.001
Ni  Ni4  1  0.55327019  0.62525841  0.67564812  1  1.094041  -0.000717  0.606609  0.755622  -0.000473  2.469117  -0.001
Ni  Ni5  1  0.07215863  0.44673447  0.34232646  1  1.096836  -0.001841  0.606528  0.755365  -0.002621  2.470125  -0.002
H  H6  1  0.76109338  0.38039602  0.52691209  1  0.453422  0.002265  0.322898  0.275341  0.001584  0.928427  0.001
H  H7  1  0.61948313  0.38068852  0.86027371  1  0.435737  0.002279  0.322441  0.275507  0.001576  0.928864  0.001
H  H8  1  0.61918587  0.23874078  0.19367820  1  0.451994  0.002249  0.32271  0.275704  0.001573  0.928837  0.001
H  H9  1  0.38068733  0.61948239  0.13972562  1  0.435742  0.002279  0.322478  0.275564  0.001576  0.928828  0.001
H  H10  1  0.23874010  0.61918752  0.80632216  1  0.451978  0.002249  0.322717  0.275712  0.001573  0.928963  0.001
H  H11  1  0.38039553  0.76109325  0.47308864  1  0.45341  0.002265  0.322883  0.275338  0.001584  0.92842  0.001
H  H12  1  0.75741160  0.09981700  0.80249971  1  0.538201  -0.000731  0.296408  0.275402  -0.000529  1.024295  -0.001
H  H13  1  0.90005345  0.65753119  0.13606710  1  0.521301  -0.000753  0.295712  0.274202  -0.000531  1.025552  -0.001
H  H14  1  0.34237654  0.24241526  0.46928846  1  0.529437  -0.000739  0.296079  0.274925  -0.000529  1.025458  -0.001
H  H15  1  0.65752932  0.90005167  0.86393246  1  0.521293  -0.000753  0.295715  0.274181  -0.000531  1.02556  -0.001
H  H16  1  0.24241595  0.34237706  0.53071154  1  0.529444  -0.000739  0.296052  0.274853  -0.000529  1.025537  -0.001
H  H17  1  0.09981644  0.75741070  0.19750114  1  0.538232  -0.000731  0.296403  0.275385  -0.000529  1.024329  -0.001
H  H18  1  0.45401917  0.98562552  0.54487492  1  0.408606  -0.000629  0.303164  0.286874  -0.000409  0.926674  0.0
H  H19  1  0.01446132  0.46856085  0.87815826  1  0.408836  -0.000622  0.303325  0.287637  -0.000418  0.925869  0.0
H  H20  1  0.53152820  0.54603819  0.21152066  1  0.398994  -0.000632  0.302912  0.287028  -0.00042  0.926261  0.0
H  H21  1  0.46856141  0.01446178  0.12184179  1  0.408839  -0.000621  0.303293  0.287589  -0.000418  0.925823  0.0
H  H22  1  0.54603691  0.53152821  0.78847961  1  0.399101  -0.000631  0.302933  0.287047  -0.00042  0.926234  0.0
H  H23  1  0.98562450  0.45401833  0.45512568  1  0.408587  -0.000629  0.303157  0.286881  -0.000409  0.926643  0.0
H  H24  1  0.41068645  0.08938622  0.54116686  1  0.505159  -0.000163  0.284857  0.284878  -0.000238  1.010158  0.0
H  H25  1  0.91062221  0.32148980  0.87446593  1  0.505196  -0.000168  0.284836  0.285479  -0.000246  1.009599  0.0
H  H26  1  0.67856704  0.58921056  0.20784079  1  0.510868  -0.000164  0.284463  0.285027  -0.000241  1.009553  0.0
H  H27  1  0.32149003  0.91062098  0.12553427  1  0.505192  -0.000168  0.284788  0.285359  -0.000246  1.009688  0.0
H  H28  1  0.58921122  0.67856799  0.79215939  1  0.51086  -0.000164  0.284453  0.285018  -0.000241  1.009563  0.0
H  H29  1  0.08938561  0.41068662  0.45883318  1  0.505161  -0.000163  0.284861  0.284859  -0.000238  1.010186  0.0
H  H30  1  0.44555873  0.17222810  0.76531606  1  0.436611  0.000912  0.309394  0.296601  0.000632  0.90956  0.001
H  H31  1  0.82772950  0.27330878  0.09863613  1  0.430457  0.000922  0.309257  0.29627  0.000622  0.909926  0.001
H  H32  1  0.72658096  0.55435342  0.43194410  1  0.433861  0.000897  0.309152  0.296007  0.000623  0.909828  0.001
H  H33  1  0.27330792  0.82772903  0.90136413  1  0.430442  0.000922  0.309259  0.296302  0.000622  0.909938  0.001
H  H34  1  0.55435296  0.72658077  0.56805608  1  0.433862  0.000897  0.309157  0.296006  0.000623  0.909823  0.001
H  H35  1  0.17222852  0.44555896  0.23468441  1  0.436612  0.000912  0.309385  0.296576  0.000632  0.909621  0.001
H  H36  1  0.40734359  0.02965796  0.77422670  1  0.538697  -0.0  0.290077  0.291258  6.7e-05  0.999336  0.0
H  H37  1  0.97025934  0.37758003  0.10759229  1  0.506216  -2e-06  0.290071  0.291233  7.1e-05  0.998487  0.0
H  H38  1  0.62237605  0.59269819  0.44093657  1  0.503403  -1.1e-05  0.28996  0.291215  6.7e-05  0.999072  0.0
H  H39  1  0.37758000  0.97025955  0.89240785  1  0.50643  -2e-06  0.290072  0.291244  7.1e-05  0.998495  0.0
H  H40  1  0.59269832  0.62237560  0.55906364  1  0.5034  -1.1e-05  0.289939  0.29118  6.7e-05  0.999025  0.0
H  H41  1  0.02965747  0.40734304  0.22577386  1  0.53877  -0.0  0.290087  0.291278  6.7e-05  0.999334  0.0
H  H42  1  0.59790995  0.13559176  0.82448981  1  0.104463  0.001375  0.108089  0.104351  0.000857  0.992925  0.001
H  H43  1  0.86447892  0.46221582  0.15789978  1  0.075882  0.001276  0.108111  0.104869  0.000783  0.992976  0.001
H  H44  1  0.53763991  0.40216943  0.49117143  1  0.097349  0.001276  0.10823  0.104424  0.000781  0.993483  0.001
H  H45  1  0.46221652  0.86447898  0.84209989  1  0.075871  0.001278  0.108101  0.10485  0.000784  0.992986  0.001
H  H46  1  0.40216903  0.53764001  0.50882842  1  0.0974  0.001277  0.108224  0.104443  0.000781  0.993486  0.001
H  H47  1  0.13559063  0.59790856  0.17551012  1  0.10433  0.001375  0.10809  0.104373  0.000857  0.992903  0.001
H  H48  1  0.64814208  0.24171492  0.75992216  1  0.06903  -0.000259  0.11192  0.101836  -0.000177  0.976695  0.0
H  H49  1  0.75826318  0.40647004  0.09335619  1  0.091521  -0.000263  0.111901  0.102152  -0.000171  0.976588  0.0
H  H50  1  0.59344722  0.35180534  0.42663599  1  0.070996  -0.000264  0.111887  0.101926  -0.000167  0.976987  0.0
H  H51  1  0.40646849  0.75826377  0.90664355  1  0.091685  -0.000263  0.111895  0.102167  -0.000171  0.976593  0.0
H  H52  1  0.35180546  0.59344784  0.57336385  1  0.070944  -0.000264  0.111886  0.101914  -0.000167  0.977009  0.0
H  H53  1  0.24171606  0.64814286  0.24007770  1  0.069017  -0.000259  0.111913  0.101827  -0.000177  0.976692  0.0
H  H54  1  0.77002017  0.43928554  0.66651307  1  0.105104  0.000313  0.106987  0.070656  0.000417  1.010757  0.0
H  H55  1  0.56083508  0.33076358  0.99994277  1  0.081845  0.000327  0.106572  0.07029  0.000419  1.011022  0.0
H  H56  1  0.66914491  0.23007098  0.33330699  1  0.080634  0.000335  0.10665  0.070102  0.00042  1.011541  0.0
H  H57  1  0.33076401  0.56083336  0.00005661  1  0.081828  0.000327  0.106578  0.070326  0.000419  1.011065  0.0
H  H58  1  0.23007191  0.66914547  0.66669384  1  0.080663  0.000335  0.106634  0.070061  0.00042  1.011583  0.0
H  H59  1  0.43928543  0.77002038  0.33348665  1  0.105103  0.000313  0.106992  0.070649  0.000417  1.010711  0.0
H  H60  1  0.93787046  0.64189363  0.62518380  1  0.0883  0.000136  0.109297  0.131286  7e-05  0.967547  0.0
H  H61  1  0.35799228  0.29576842  0.95860490  1  0.087001  0.000135  0.109428  0.131675  7e-05  0.965899  0.0
H  H62  1  0.70415133  0.06214991  0.29206161  1  0.075654  0.000135  0.10952  0.132057  7.1e-05  0.966748  0.0
H  H63  1  0.29576884  0.35799071  0.04139605  1  0.087191  0.000135  0.109411  0.131651  7e-05  0.965898  0.0
H  H64  1  0.06215006  0.70415208  0.70793832  1  0.075636  0.000135  0.109527  0.132069  7.1e-05  0.96672  0.0
H  H65  1  0.64189557  0.93787160  0.37481624  1  0.088426  0.000136  0.109332  0.131346  7e-05  0.967538  0.0
H  H66  1  0.91531332  0.57880665  0.54659192  1  0.040496  0.000186  0.105528  0.123136  0.000105  0.96504  0.0
H  H67  1  0.42121759  0.33647325  0.88005361  1  0.070582  0.000179  0.105505  0.122896  0.000104  0.965392  0.0
H  H68  1  0.66339385  0.08461880  0.21350588  1  0.05236  0.000183  0.105509  0.123062  0.000105  0.965495  0.0
H  H69  1  0.33647250  0.42121835  0.11994680  1  0.07058  0.000179  0.105521  0.122942  0.000104  0.965332  0.0
H  H70  1  0.08461762  0.66339417  0.78649454  1  0.05238  0.000183  0.105539  0.123105  0.000105  0.965446  0.0
H  H71  1  0.57880592  0.91531361  0.45340816  1  0.040501  0.000186  0.105495  0.123092  0.000105  0.96509  0.0
H  H72  1  0.76785508  0.02031137  0.66761738  1  0.096692  -0.000388  0.108156  0.073823  -0.000489  1.005656  0.0
H  H73  1  0.97981576  0.74771021  0.00125898  1  0.082662  -0.000392  0.107991  0.073865  -0.00048  1.005607  0.0
H  H74  1  0.25210574  0.23185405  0.33448646  1  0.103292  -0.000391  0.107964  0.073623  -0.000485  1.006237  0.0
H  H75  1  0.74770920  0.97981563  0.99874051  1  0.082667  -0.000393  0.108017  0.073868  -0.00048  1.005572  0.0
H  H76  1  0.23185314  0.25210740  0.66551359  1  0.103288  -0.000391  0.107967  0.073621  -0.000485  1.006225  0.0
H  H77  1  0.02031360  0.76785523  0.33238302  1  0.096696  -0.000387  0.108146  0.073766  -0.000489  1.005657  0.0
H  H78  1  0.93718607  0.99966120  0.71665581  1  0.071579  -0.000159  0.105114  0.125477  -0.000102  0.967246  0.0
H  H79  1  0.00062889  0.93776955  0.05007730  1  0.088692  -0.000158  0.105066  0.12541  -0.000101  0.967164  0.0
H  H80  1  0.06231455  0.06258463  0.38352336  1  0.054896  -0.000159  0.104964  0.125252  -0.0001  0.967016  0.0
H  H81  1  0.93776753  0.00062915  0.94992352  1  0.088716  -0.000158  0.105079  0.125436  -0.000101  0.967123  0.0
H  H82  1  0.06258419  0.06231602  0.61647636  1  0.054915  -0.000159  0.10496  0.125243  -0.0001  0.967069  0.0
H  H83  1  0.99966149  0.93718533  0.28334407  1  0.071597  -0.000159  0.10509  0.125448  -0.000102  0.967294  0.0
H  H84  1  0.91486236  0.05451021  0.79176548  1  0.076861  -0.00012  0.103257  0.122648  -5.8e-05  0.993941  0.0
H  H85  1  0.94558176  0.86076976  0.12523126  1  0.074599  -0.000119  0.103226  0.122988  -5.7e-05  0.993895  0.0
H  H86  1  0.13954619  0.08491458  0.45863520  1  0.051232  -0.000119  0.103156  0.122716  -5.6e-05  0.994314  0.0
H  H87  1  0.86076964  0.94558158  0.87476966  1  0.074627  -0.000119  0.10322  0.122964  -5.7e-05  0.993921  0.0
H  H88  1  0.08491428  0.13954774  0.54136496  1  0.051105  -0.000119  0.103171  0.122699  -5.6e-05  0.994311  0.0
H  H89  1  0.05450980  0.91486243  0.20823532  1  0.076873  -0.00012  0.103272  0.122691  -5.8e-05  0.993898  0.0
H  H90  1  0.65495189  0.12542792  0.55296171  1  0.08525  0.000121  0.121976  0.120894  4e-05  0.952328  0.0
H  H91  1  0.87475463  0.52982228  0.88632483  1  0.084805  0.00012  0.122235  0.121074  4.4e-05  0.952395  0.0
H  H92  1  0.47014727  0.34505096  0.21974096  1  0.106694  0.000111  0.122055  0.12079  4.4e-05  0.952743  0.0
H  H93  1  0.52982194  0.87475449  0.11367529  1  0.084537  0.00012  0.122228  0.121059  4.4e-05  0.952396  0.0
H  H94  1  0.34505025  0.47014802  0.78025943  1  0.106706  0.000111  0.122023  0.120736  4.4e-05  0.952768  0.0
H  H95  1  0.12542568  0.65495025  0.44703918  1  0.085297  0.000121  0.121974  0.120876  4e-05  0.952361  0.0
H  H96  1  0.60423206  0.18773529  0.49224884  1  0.046814  -0.000434  0.098837  0.078052  -0.000227  1.015833  -0.001
H  H97  1  0.81238317  0.41685309  0.82552620  1  0.076713  -0.000552  0.098659  0.077962  -0.000302  1.015462  -0.001
H  H98  1  0.58309351  0.39557144  0.15896587  1  0.061916  -0.000536  0.098834  0.078217  -0.000294  1.015842  -0.001
H  H99  1  0.41685251  0.81238290  0.17447351  1  0.076719  -0.00055  0.098657  0.077927  -0.000301  1.015486  -0.001
H  H100  1  0.39557103  0.58309357  0.84103395  1  0.061908  -0.000536  0.098868  0.078282  -0.000294  1.015838  -0.001
H  H101  1  0.18773380  0.60423117  0.50775058  1  0.046835  -0.000434  0.09884  0.078063  -0.000227  1.015831  -0.001
C  C102  1  0.59019183  0.14685485  0.77185349  1  0.246453  -0.002783  -0.068144  -0.121603  -0.002177  3.923836  -0.002
C  C103  1  0.85311919  0.44329239  0.10526686  1  0.255976  -0.002818  -0.067491  -0.121921  -0.002238  3.924178  -0.002
C  C104  1  0.55659652  0.40982030  0.43854198  1  0.240642  -0.002814  -0.067636  -0.121142  -0.002233  3.9249  -0.002
C  C105  1  0.44329130  0.85311926  0.89473282  1  0.255721  -0.002818  -0.067496  -0.12191  -0.002237  3.924171  -0.002
C  C106  1  0.40981978  0.55659648  0.56145785  1  0.240682  -0.002814  -0.067652  -0.121193  -0.002233  3.924959  -0.002
C  C107  1  0.14685517  0.59019188  0.22814693  1  0.246448  -0.002784  -0.068135  -0.121593  -0.002177  3.923805  -0.002
C  C108  1  0.77612758  0.47197289  0.61648402  1  0.321553  0.008343  0.002278  0.028299  0.007508  3.890177  0.006
C  C109  1  0.52810308  0.30416265  0.94991849  1  0.37396  0.008232  0.003213  0.029731  0.0075  3.88879  0.006
C  C110  1  0.69577120  0.22389993  0.28330779  1  0.37401  0.008143  0.003392  0.03042  0.007428  3.888104  0.006
C  C111  1  0.30416328  0.52810249  0.05008091  1  0.373913  0.008234  0.003208  0.029626  0.007502  3.889028  0.006
C  C112  1  0.22389983  0.69577250  0.71669304  1  0.374002  0.008142  0.00337  0.030376  0.007427  3.888126  0.006
C  C113  1  0.47197315  0.77612725  0.38351569  1  0.321529  0.008343  0.002312  0.028401  0.007507  3.890048  0.006
C  C114  1  0.63485992  0.07873591  0.73167243  1  1.392265  -0.000485  0.243366  0.50146  -0.002266  4.051393  0.0
C  C115  1  0.92124847  0.55620447  0.06516290  1  1.400127  -0.000512  0.242863  0.500312  -0.002311  4.051117  0.0
C  C116  1  0.44370451  0.36502338  0.39840939  1  1.403367  -0.000511  0.24297  0.501146  -0.002314  4.051942  0.0
C  C117  1  0.55620384  0.92124799  0.93483670  1  1.400049  -0.000512  0.242865  0.500263  -0.00231  4.051125  0.0
C  C118  1  0.36502323  0.44370406  0.60159051  1  1.403373  -0.000511  0.243002  0.501154  -0.002314  4.051921  0.0
C  C119  1  0.07873724  0.63486011  0.26832849  1  1.39247  -0.000485  0.243365  0.501458  -0.002266  4.05153  0.0
C  C120  1  0.90554452  0.55737154  0.59907646  1  -0.10905  0.000267  -0.147434  -0.232743  0.000143  3.938035  0.0
C  C121  1  0.44257543  0.34805223  0.93254591  1  -0.124817  0.00027  -0.147349  -0.232854  0.000141  3.936849  0.0
C  C122  1  0.65185361  0.09444583  0.26599908  1  -0.107115  0.000265  -0.147718  -0.233763  0.00014  3.93816  0.0
C  C123  1  0.34805204  0.44257584  0.06745400  1  -0.124799  0.00027  -0.147358  -0.232892  0.000141  3.936928  0.0
C  C124  1  0.09444401  0.65185331  0.73400085  1  -0.106976  0.000265  -0.147748  -0.233797  0.000139  3.938078  0.0
C  C125  1  0.55737179  0.90554404  0.40092314  1  -0.109186  0.000267  -0.147463  -0.232827  0.000143  3.938117  0.0
C  C126  1  0.77416975  0.00693615  0.72001233  1  0.34044  -0.007821  0.00438  0.027187  -0.007121  3.88224  -0.006
C  C127  1  0.99312977  0.76735305  0.05365882  1  0.35217  -0.0078  0.004541  0.027538  -0.007096  3.882578  -0.006
C  C128  1  0.23259913  0.22562436  0.38690180  1  0.34133  -0.007841  0.004711  0.026636  -0.007151  3.884974  -0.006
C  C129  1  0.76735164  0.99312565  0.94634114  1  0.35206  -0.007799  0.00451  0.027566  -0.007096  3.882592  -0.006
C  C130  1  0.22562369  0.23259927  0.61309826  1  0.341223  -0.00784  0.004764  0.026666  -0.007151  3.884954  -0.006
C  C131  1  0.00693726  0.77416968  0.27998807  1  0.340422  -0.007821  0.004389  0.027347  -0.007121  3.881994  -0.006
C  C132  1  0.90429927  0.05500006  0.73853487  1  -0.110542  -1.9e-05  -0.148101  -0.222494  8.1e-05  3.905362  0.0
C  C133  1  0.94520958  0.84961006  0.07202006  1  -0.125166  -2e-05  -0.148072  -0.223219  7.9e-05  3.906282  0.0
C  C134  1  0.15054048  0.09549802  0.40541064  1  -0.0754  -1.8e-05  -0.148025  -0.222596  8e-05  3.905398  0.0
C  C135  1  0.84960838  0.94520607  0.92798086  1  -0.125341  -2e-05  -0.14805  -0.2232  7.9e-05  3.906288  0.0
C  C136  1  0.09549729  0.15054069  0.59458903  1  -0.074824  -1.7e-05  -0.148039  -0.222565  8e-05  3.905456  0.0
C  C137  1  0.05500119  0.90429911  0.26146545  1  -0.110544  -1.9e-05  -0.148103  -0.222575  8.1e-05  3.905363  0.0
C  C138  1  0.59396902  0.15983728  0.54379722  1  0.276008  0.003322  -0.063692  -0.125137  0.002815  3.942049  0.002
C  C139  1  0.84028131  0.43445070  0.87708272  1  0.258646  0.003293  -0.064437  -0.125387  0.002759  3.942519  0.002
C  C140  1  0.56553532  0.40589326  0.21052074  1  0.247194  0.003294  -0.06453  -0.125598  0.002753  3.942487  0.002
C  C141  1  0.43444947  0.84028036  0.12291746  1  0.258934  0.003295  -0.064427  -0.125348  0.00276  3.942482  0.002
C  C142  1  0.40589255  0.56553597  0.78947958  1  0.247555  0.003293  -0.064518  -0.125564  0.002753  3.942528  0.002
C  C143  1  0.15983588  0.59396824  0.45620319  1  0.275837  0.003322  -0.063691  -0.125154  0.002815  3.942006  0.002
C  C144  1  0.63240474  0.26564173  0.58932215  1  1.39533  0.001119  0.250353  0.504309  0.002765  4.051745  0.001
C  C145  1  0.73448905  0.36703753  0.92261750  1  1.41125  0.001032  0.250055  0.504121  0.002725  4.052426  0.001
C  C146  1  0.63295210  0.36747843  0.25602882  1  1.392029  0.001048  0.249754  0.502837  0.002709  4.051434  0.001
C  C147  1  0.36703594  0.73448875  0.07738080  1  1.411285  0.001034  0.25007  0.504196  0.002726  4.052403  0.001
C  C148  1  0.36747695  0.63295197  0.74397148  1  1.391671  0.001048  0.249687  0.502695  0.002709  4.05158  0.001
C  C149  1  0.26564087  0.63240530  0.41067868  1  1.395316  0.001119  0.250342  0.504351  0.002765  4.051626  0.001
C  C150  1  0.70254618  0.87082443  0.73282027  1  1.601134  -0.002881  0.211155  0.578553  -0.004107  4.142149  -0.001
C  C151  1  0.12923135  0.83165925  0.06648187  1  1.592597  -0.00285  0.210773  0.57782  -0.004126  4.14253  -0.001
C  C152  1  0.16836277  0.29749151  0.39967261  1  1.585916  -0.00285  0.210791  0.578386  -0.004056  4.143124  -0.001
C  C153  1  0.83165951  0.12922587  0.93351406  1  1.592068  -0.00285  0.21088  0.577986  -0.004126  4.142063  -0.001
C  C154  1  0.29749178  0.16836384  0.60032695  1  1.585437  -0.00285  0.210817  0.578394  -0.004056  4.143098  -0.001
C  C155  1  0.87082507  0.70254691  0.26718027  1  1.601055  -0.00288  0.211139  0.57854  -0.004106  4.142215  -0.001
C  C156  1  0.70506803  0.53889997  0.61260332  1  1.612133  0.000517  0.202457  0.57145  0.001871  4.182108  -0.001
C  C157  1  0.46136474  0.16622830  0.94598748  1  1.585168  0.000611  0.202297  0.571906  0.001867  4.180759  -0.001
C  C158  1  0.83373939  0.29505147  0.27940586  1  1.591569  0.000611  0.201812  0.570668  0.001852  4.184839  -0.001
C  C159  1  0.16622725  0.46136260  0.05401250  1  1.585177  0.000611  0.202344  0.572025  0.001867  4.180567  -0.001
C  C160  1  0.29505059  0.83373978  0.72059438  1  1.591567  0.000612  0.201838  0.57071  0.001852  4.184786  -0.001
C  C161  1  0.53889947  0.70506872  0.38739687  1  1.6121  0.000517  0.202444  0.57144  0.001871  4.182083  -0.001
S  S162  1  0.00289058  0.21060169  0.71618642  1  -0.006894  -0.000585  -0.023275  -0.035114  -0.000403  2.758681  0.0
S  S163  1  0.78965429  0.79267348  0.04957855  1  0.011242  -0.000583  -0.023422  -0.034864  -0.000401  2.757866  0.0
S  S164  1  0.20764454  0.99698716  0.38297933  1  -0.028883  -0.000596  -0.023149  -0.034218  -0.000411  2.758077  0.0
S  S165  1  0.79267332  0.78965243  0.95042198  1  -0.045198  -0.000583  -0.023417  -0.034881  -0.000401  2.757859  0.0
S  S166  1  0.99698551  0.20764411  0.61702040  1  -0.028905  -0.000596  -0.02315  -0.034198  -0.000411  2.75809  0.0
S  S167  1  0.21060311  0.00289207  0.28381375  1  -0.006923  -0.000585  -0.023258  -0.035047  -0.000403  2.758669  0.0
S  S168  1  0.00285496  0.49672642  0.61679994  1  -0.029135  0.001128  -0.010841  -0.030898  0.000818  2.789357  0.001
S  S169  1  0.50312253  0.50595481  0.95030058  1  -0.001416  0.001095  -0.010955  -0.031113  0.000786  2.790194  0.001
S  S170  1  0.49391063  0.99723630  0.28379139  1  -0.004436  0.001095  -0.010987  -0.031241  0.000783  2.789618  0.001
S  S171  1  0.50595604  0.50312332  0.04969874  1  -0.056165  0.001095  -0.010923  -0.03104  0.000786  2.790142  0.001
S  S172  1  0.99723623  0.49391071  0.71620870  1  -0.004528  0.001094  -0.010986  -0.031229  0.000783  2.789643  0.001
S  S173  1  0.49672534  0.00285289  0.38320010  1  -0.029122  0.001128  -0.010852  -0.030883  0.000818  2.789352  0.001
N  N174  1  0.72793261  0.36970603  0.57279190  1  -1.236728  0.004388  -0.415586  -0.376044  0.003196  3.602312  0.002
N  N175  1  0.63034201  0.35839624  0.90617158  1  -1.219833  0.004377  -0.414606  -0.376556  0.003223  3.602687  0.002
N  N176  1  0.64157465  0.27194422  0.23956259  1  -1.216351  0.004367  -0.415183  -0.37601  0.003202  3.600984  0.002
N  N177  1  0.35839645  0.63034001  0.09382824  1  -1.219821  0.004378  -0.414655  -0.376646  0.003223  3.602585  0.002
N  N178  1  0.27194258  0.64157441  0.76043775  1  -1.216076  0.004368  -0.415159  -0.375928  0.003202  3.601093  0.002
N  N179  1  0.36970487  0.72793186  0.42720836  1  -1.236685  0.004388  -0.415566  -0.376063  0.003195  3.602287  0.002
N  N180  1  0.72497351  0.06883916  0.75590023  1  -1.288766  -0.004242  -0.41645  -0.380246  -0.003042  3.59309  -0.002
N  N181  1  0.93102415  0.65615930  0.08946089  1  -1.262745  -0.00419  -0.415945  -0.379139  -0.003017  3.592164  -0.002
N  N182  1  0.34379369  0.27480321  0.42269183  1  -1.283262  -0.004223  -0.416462  -0.380239  -0.003014  3.593285  -0.002
N  N183  1  0.65615665  0.93101980  0.91053963  1  -1.262559  -0.00419  -0.415934  -0.379059  -0.003017  3.59223  -0.002
N  N184  1  0.27480140  0.34379348  0.57730864  1  -1.283052  -0.004223  -0.416497  -0.380174  -0.003014  3.593361  -0.002
N  N185  1  0.06884200  0.72497517  0.24409968  1  -1.288911  -0.004242  -0.416464  -0.380303  -0.003042  3.593109  -0.002
N  N186  1  0.47185730  0.06761451  0.56021805  1  -1.110523  0.001111  -0.626529  -0.543382  0.000695  3.458749  0.0
N  N187  1  0.93245280  0.40446024  0.89349744  1  -1.124261  -0.000295  -0.625629  -0.544213  -0.000477  3.45726  -0.001
N  N188  1  0.59560516  0.52810320  0.22688867  1  -1.11068  -0.000186  -0.625019  -0.542938  -0.000399  3.457114  -0.001
N  N189  1  0.40446017  0.93245208  0.10650222  1  -1.124275  -0.000271  -0.625566  -0.544055  -0.000457  3.457178  -0.001
N  N190  1  0.52810310  0.59560544  0.77311158  1  -1.111129  -0.000184  -0.625017  -0.542932  -0.000397  3.457088  -0.001
N  N191  1  0.06761278  0.47185544  0.43978149  1  -1.110429  0.001109  -0.626534  -0.543364  0.000694  3.458698  0.0
N  N192  1  0.46765261  0.10988561  0.75226832  1  -1.136508  0.006342  -0.633176  -0.533506  0.005665  3.468811  0.006
N  N193  1  0.89007992  0.35775058  0.08560788  1  -1.107321  0.004519  -0.633046  -0.533094  0.004145  3.467073  0.004
N  N194  1  0.64214330  0.53231384  0.41892785  1  -1.088706  0.004564  -0.633478  -0.533273  0.00416  3.469027  0.004
N  N195  1  0.35774931  0.89007984  0.91439183  1  -1.107454  0.00455  -0.633068  -0.533205  0.00417  3.46716  0.004
N  N196  1  0.53231338  0.64214319  0.58107188  1  -1.088697  0.004568  -0.633467  -0.533219  0.004164  3.468964  0.004
N  N197  1  0.10988514  0.46765198  0.24773218  1  -1.136458  0.006339  -0.63316  -0.533498  0.005662  3.468855  0.006
O  O198  1  0.67497830  0.56366683  0.66684607  1  -1.1451  0.074209  -0.32654  -0.5557  0.062412  2.272634  0.065
O  O199  1  0.43651665  0.11126882  0.00019250  1  -1.145637  0.074099  -0.326379  -0.555591  0.062217  2.271802  0.065
O  O200  1  0.88866403  0.32498778  0.33362321  1  -1.150272  0.073405  -0.326656  -0.555987  0.061694  2.272141  0.064
O  O201  1  0.11126681  0.43651271  0.99980849  1  -1.14567  0.074111  -0.326336  -0.555589  0.062226  2.271798  0.065
O  O202  1  0.32498702  0.88866449  0.66637700  1  -1.150264  0.073404  -0.326639  -0.555964  0.061693  2.272119  0.064
O  O203  1  0.56366572  0.67497839  0.33315364  1  -1.14508  0.074212  -0.326542  -0.55573  0.062415  2.272607  0.065
O  O204  1  0.58872046  0.03673171  0.67687956  1  -1.126918  -0.073303  -0.290899  -0.478825  -0.061491  2.243446  -0.063
O  O205  1  0.96339447  0.55226892  0.01039285  1  -1.13513  -0.072823  -0.290712  -0.478022  -0.061016  2.24223  -0.063
O  O206  1  0.44764737  0.41106653  0.34362458  1  -1.132563  -0.072737  -0.290492  -0.47856  -0.060775  2.243326  -0.063
O  O207  1  0.55226769  0.96339426  0.98960771  1  -1.135126  -0.072833  -0.290697  -0.478003  -0.061025  2.242221  -0.063
O  O208  1  0.41106586  0.44764726  0.65637530  1  -1.13256  -0.072735  -0.290494  -0.478561  -0.060774  2.243347  -0.063
O  O209  1  0.03673244  0.58872100  0.32311945  1  -1.126989  -0.073298  -0.29088  -0.478793  -0.061486  2.24351  -0.063
O  O210  1  0.57966820  0.25425125  0.64215587  1  -1.113368  0.064278  -0.268573  -0.444403  0.054336  2.279768  0.055
O  O211  1  0.74607753  0.32573158  0.97542463  1  -1.121251  0.064885  -0.268278  -0.44389  0.054754  2.28077  0.055
O  O212  1  0.67432959  0.42035214  0.30882696  1  -1.121802  0.064764  -0.268004  -0.443423  0.05472  2.279866  0.055
O  O213  1  0.32573337  0.74607707  0.02457515  1  -1.121296  0.064872  -0.268274  -0.443901  0.054743  2.280953  0.055
O  O214  1  0.42035192  0.67433155  0.69117330  1  -1.121763  0.064763  -0.26798  -0.443385  0.054719  2.279877  0.055
O  O215  1  0.25425097  0.57966849  0.35784402  1  -1.113331  0.064283  -0.26858  -0.444446  0.05434  2.27972  0.055
O  O216  1  0.66890652  0.83653318  0.79118459  1  -1.204463  -0.0028  -0.325884  -0.559692  -0.001882  2.193195  -0.002
O  O217  1  0.16354478  0.83219309  0.12482678  1  -1.201646  -0.002783  -0.326049  -0.559722  -0.001867  2.193898  -0.002
O  O218  1  0.16764966  0.33117069  0.45801630  1  -1.200525  -0.002747  -0.325846  -0.559411  -0.001847  2.194289  -0.002
O  O219  1  0.83219370  0.16353606  0.87516962  1  -1.201281  -0.002783  -0.326158  -0.559847  -0.001866  2.193731  -0.002
O  O220  1  0.33117081  0.16764966  0.54198277  1  -1.200096  -0.002746  -0.325833  -0.559434  -0.001847  2.194327  -0.002
O  O221  1  0.83653437  0.66890696  0.20881548  1  -1.204421  -0.0028  -0.325867  -0.559689  -0.001883  2.193194  -0.002
O  O222  1  0.68572713  0.80524812  0.68368449  1  -1.150219  -0.070803  -0.314631  -0.537418  -0.059246  2.28826  -0.061
O  O223  1  0.19481494  0.88045070  0.01735426  1  -1.147591  -0.070631  -0.313982  -0.536917  -0.059143  2.287556  -0.061
O  O224  1  0.11987244  0.31451750  0.35047138  1  -1.142075  -0.071222  -0.31398  -0.536565  -0.059677  2.289447  -0.062
O  O225  1  0.88044755  0.19480953  0.98264357  1  -1.147308  -0.070619  -0.314045  -0.537056  -0.059136  2.287427  -0.061
O  O226  1  0.31451726  0.11987392  0.64952820  1  -1.142064  -0.071221  -0.314029  -0.536575  -0.059676  2.289423  -0.062
O  O227  1  0.80524979  0.68572806  0.31631559  1  -1.150167  -0.070801  -0.314643  -0.537452  -0.059244  2.288329  -0.061
O  O228  1  0.68746276  0.56340850  0.55563828  1  -1.180321  0.001395  -0.326934  -0.552465  0.000787  2.17865  0.001
O  O229  1  0.43700427  0.12423398  0.88899866  1  -1.189359  0.001412  -0.327517  -0.553468  0.000811  2.178169  0.001
O  O230  1  0.87576087  0.31276253  0.22242494  1  -1.190039  0.001372  -0.327045  -0.552532  0.000771  2.179569  0.001
O  O231  1  0.12423496  0.43700598  0.11100135  1  -1.189364  0.001412  -0.327605  -0.553549  0.000811  2.178039  0.001
O  O232  1  0.31276185  0.87576230  0.77757528  1  -1.190064  0.001372  -0.327076  -0.552569  0.000772  2.179538  0.001
O  O233  1  0.56340746  0.68746381  0.44436191  1  -1.180152  0.001393  -0.326924  -0.552453  0.000787  2.178654  0.001
