# generated using pymatgen
data_HgH30C34N6(ClO2)2
_symmetry_space_group_name_H-M   'P 1'
_cell_length_a   4.98293335
_cell_length_b   12.06543278
_cell_length_c   15.40223393
_cell_angle_alpha   82.57699689
_cell_angle_beta   80.68653193
_cell_angle_gamma   78.08278790
_symmetry_Int_Tables_number   1
_chemical_formula_structural   HgH30C34N6(ClO2)2
_chemical_formula_sum   'Hg1 H30 C34 N6 Cl2 O4'
_cell_volume   889.69022672
_cell_formula_units_Z   1
loop_
 _symmetry_equiv_pos_site_id
 _symmetry_equiv_pos_as_xyz
  1  'x, y, z'
loop_
 _atom_site_type_symbol
 _atom_site_label
 _atom_site_symmetry_multiplicity
 _atom_site_fract_x
 _atom_site_fract_y
 _atom_site_fract_z
 _atom_site_occupancy
 _atom_site_hle17_bader_spin_density
 _atom_site_hle17_ddec_charge
 _atom_site_hle17_ddec_spin_density
 _atom_site_hle17_ddec_sum_bond_order
 _atom_site_hle17_magmom
 _atom_site_hse06_10hf_bader_spin_density
 _atom_site_hse06_10hf_ddec_charge
 _atom_site_hse06_10hf_ddec_spin_density
 _atom_site_hse06_10hf_ddec_sum_bond_order
 _atom_site_hse06_10hf_magmom
 _atom_site_hse06_bader_spin_density
 _atom_site_hse06_ddec_charge
 _atom_site_hse06_ddec_spin_density
 _atom_site_hse06_ddec_sum_bond_order
 _atom_site_hse06_magmom
 _atom_site_pbe_bader_spin_density
 _atom_site_pbe_cm5_charge
 _atom_site_pbe_ddec_charge
 _atom_site_pbe_ddec_spin_density
 _atom_site_pbe_ddec_sum_bond_order
 _atom_site_pbe_magmom
Hg  Hg0  1  0.36612848  0.99999745  0.99999454  1  0  0.7558  0  2.097363  0  0  0.592652  0  2.600264  0  0  0.639675  0  2.570642  0  0  0.516287  0.560809  0  2.61978  0
H  H1  1  0.97338231  0.25402173  0.95034170  1  0  0.077089  0  0.944685  0  0  0.083388  0  1.010344  0  0  0.086664  0  1.006974  0  0  0.104552  0.08102  0  1.012757  0
H  H2  1  0.17774876  0.74605736  0.04964468  1  0  0.076911  0  0.944337  0  0  0.083006  0  1.010055  0  0  0.086264  0  1.006719  0  0  0.104822  0.080655  0  1.012445  0
H  H3  1  0.63349051  0.35253656  0.85065332  1  0  0.105002  0  0.941933  0  0  0.119191  0  0.992845  0  0  0.12239  0  0.991856  0  0  0.108534  0.116902  0  0.993699  0
H  H4  1  0.83675321  0.64751561  0.14935257  1  0  0.10403  0  0.942322  0  0  0.117685  0  0.993887  0  0  0.120859  0  0.992947  0  0  0.107832  0.115451  0  0.994654  0
H  H5  1  0.73599667  0.03377729  0.73766709  1  0  0.108097  0  0.980679  0  0  0.118994  0  1.040936  0  0  0.122183  0  1.039457  0  0  0.106768  0.116685  0  1.04225  0
H  H6  1  0.50745322  0.96623977  0.26238345  1  0  0.108975  0  0.979746  0  0  0.119393  0  1.040511  0  0  0.122593  0  1.038997  0  0  0.106722  0.117078  0  1.041821  0
H  H7  1  0.06162397  0.94883966  0.84420937  1  0  0.077525  0  0.950267  0  0  0.083622  0  1.018405  0  0  0.086382  0  1.015795  0  0  0.103974  0.081558  0  1.020386  0
H  H8  1  0.85459007  0.05118985  0.15583661  1  0  0.076339  0  0.950542  0  0  0.082151  0  1.019081  0  0  0.084911  0  1.016462  0  0  0.103247  0.080076  0  1.021082  0
H  H9  1  0.39992764  0.09800057  0.67951166  1  0  0.099338  0  0.971845  0  0  0.109753  0  1.037435  0  0  0.112565  0  1.035883  0  0  0.106082  0.1077  0  1.038663  0
H  H10  1  0.17699496  0.90193231  0.32027572  1  0  0.098887  0  0.971794  0  0  0.109251  0  1.03729  0  0  0.112056  0  1.035746  0  0  0.105937  0.107207  0  1.03851  0
H  H11  1  0.96497801  0.40039668  0.54726041  1  0  0.118789  0  0.968628  0  0  0.126767  0  1.032323  0  0  0.1304  0  1.03001  0  0  0.109218  0.124169  0  1.033992  0
H  H12  1  0.91275379  0.59952736  0.45277524  1  0  0.120207  0  0.967916  0  0  0.127899  0  1.031685  0  0  0.131553  0  1.029397  0  0  0.109593  0.125271  0  1.033389  0
H  H13  1  0.48330315  0.42974421  0.73652255  1  0  0.111315  0  0.948055  0  0  0.12169  0  1.007897  0  0  0.125648  0  1.0048  0  0  0.10834  0.118862  0  1.010147  0
H  H14  1  0.64969118  0.57024378  0.26346728  1  0  0.110447  0  0.948682  0  0  0.121153  0  1.00814  0  0  0.125041  0  1.005154  0  0  0.108044  0.118337  0  1.010355  0
H  H15  1  0.47934579  0.25262008  0.43868784  1  0  0.074649  0  0.931455  0  0  0.081886  0  0.996588  0  0  0.083812  0  0.995727  0  0  0.116889  0.080464  0  0.997339  0
H  H16  1  0.17075675  0.74736233  0.56132196  1  0  0.07523  0  0.930566  0  0  0.08285  0  0.995478  0  0  0.084679  0  0.994703  0  0  0.117377  0.081418  0  0.996268  0
H  H17  1  0.40514963  0.26308623  0.26313435  1  0  0.089517  0  0.923744  0  0  0.107874  0  0.977913  0  0  0.109262  0  0.977635  0  0  0.097241  0.106861  0  0.97815  0
H  H18  1  0.93139875  0.73693516  0.73687059  1  0  0.090394  0  0.923236  0  0  0.108179  0  0.977815  0  0  0.109585  0  0.977552  0  0  0.097689  0.107147  0  0.978066  0
H  H19  1  0.53089364  0.13182175  0.32391294  1  0  0.093216  0  0.937054  0  0  0.113655  0  0.994118  0  0  0.114481  0  0.994942  0  0  0.10193  0.113014  0  0.993621  0
H  H20  1  0.98665845  0.86820321  0.67607622  1  0  0.092329  0  0.936134  0  0  0.11283  0  0.993085  0  0  0.113723  0  0.993829  0  0  0.101811  0.11215  0  0.992626  0
H  H21  1  0.92568460  0.22832473  0.29867605  1  0  0.073491  0  0.937042  0  0  0.091735  0  0.996444  0  0  0.092614  0  0.996795  0  0  0.091955  0.091074  0  0.996232  0
H  H22  1  0.45268882  0.77167456  0.70131829  1  0  0.073411  0  0.937797  0  0  0.092418  0  0.996613  0  0  0.093285  0  0.996958  0  0  0.092347  0.091762  0  0.996404  0
H  H23  1  0.12084521  0.09504729  0.26994890  1  0  0.079155  0  0.955574  0  0  0.095941  0  1.021094  0  0  0.096587  0  1.021373  0  0  0.091759  0.095454  0  1.020932  0
H  H24  1  0.48585340  0.90495211  0.73007507  1  0  0.07845  0  0.956574  0  0  0.095478  0  1.022174  0  0  0.096102  0  1.022467  0  0  0.091145  0.094991  0  1.022012  0
H  H25  1  0.80337424  0.10435373  0.43373090  1  0  0.072581  0  0.951711  0  0  0.084676  0  1.022055  0  0  0.085703  0  1.020792  0  0  0.102926  0.083854  0  1.02307  0
H  H26  1  0.34161623  0.89565301  0.56627937  1  0  0.073607  0  0.950319  0  0  0.085482  0  1.021064  0  0  0.086492  0  1.019818  0  0  0.1033  0.084694  0  1.02203  0
H  H27  1  0.14404760  0.02385368  0.42649357  1  0  0.074918  0  0.934536  0  0  0.089398  0  1.001294  0  0  0.090066  0  1.000482  0  0  0.103839  0.088743  0  1.002117  0
H  H28  1  0.59456796  0.97615947  0.57353137  1  0  0.074287  0  0.933886  0  0  0.088324  0  1.001483  0  0  0.08905  0  1.000597  0  0  0.103438  0.087696  0  1.002278  0
H  H29  1  0.54825158  0.41901693  0.37820972  1  0  0.315482  0  0.921539  0  0  0.294265  0  0.992415  0  0  0.302681  0  0.985045  0  0  0.308648  0.288296  0  0.997683  0
H  H30  1  0.34553986  0.58094867  0.62172443  1  0  0.316497  0  0.921643  0  0  0.295788  0  0.991967  0  0  0.304208  0  0.984573  0  0  0.309288  0.289811  0  0.997233  0
C  C31  1  0.91428965  0.20914177  0.90138043  1  0  0.126659  0  3.741706  0  0  0.094525  0  3.998967  0  0  0.101806  0  4.017555  0  0  0.03917  0.089849  0  3.986184  0
C  C32  1  0.02479693  0.79093712  0.09860976  1  0  0.129514  0  3.739109  0  0  0.09777  0  3.996164  0  0  0.105056  0  4.014747  0  0  0.040258  0.09308  0  3.983411  0
C  C33  1  0.72507778  0.26320309  0.84494140  1  0  -0.15937  0  3.708387  0  0  -0.177605  0  3.955509  0  0  -0.18546  0  3.977001  0  0  -0.084566  -0.172541  0  3.940974  0
C  C34  1  0.83320607  0.73685937  0.15504089  1  0  -0.160238  0  3.706817  0  0  -0.177497  0  3.95431  0  0  -0.185408  0  3.975807  0  0  -0.084729  -0.172415  0  3.939787  0
C  C35  1  0.65344574  0.20215560  0.78310820  1  0  0.101988  0  3.746055  0  0  0.113729  0  3.975006  0  0  0.118229  0  3.997854  0  0  0.012404  0.110976  0  3.959425  0
C  C36  1  0.63860314  0.79787425  0.21688241  1  0  0.102035  0  3.743167  0  0  0.112651  0  3.973679  0  0  0.1173  0  3.996343  0  0  0.011656  0.109786  0  3.958227  0
C  C37  1  0.77666175  0.08646436  0.78409782  1  0  -0.147658  0  3.713781  0  0  -0.169961  0  3.96651  0  0  -0.176632  0  3.985981  0  0  -0.084842  -0.165846  0  3.953585  0
C  C38  1  0.64715309  0.91354777  0.21592953  1  0  -0.148128  0  3.713174  0  0  -0.169756  0  3.966132  0  0  -0.176453  0  3.985565  0  0  -0.084014  -0.165622  0  3.953236  0
C  C39  1  0.96382062  0.03862841  0.84243792  1  0  0.110077  0  3.753149  0  0  0.08058  0  4.009826  0  0  0.087314  0  4.028001  0  0  0.033441  0.076282  0  3.997434  0
C  C40  1  0.84483190  0.96139601  0.15760480  1  0  0.111006  0  3.753143  0  0  0.082206  0  4.009585  0  0  0.088951  0  4.027786  0  0  0.033856  0.077903  0  3.997171  0
C  C41  1  0.46317804  0.25613132  0.71861678  1  0  0.061946  0  3.770465  0  0  0.078571  0  4.00532  0  0  0.077193  0  4.029457  0  0  -0.00377  0.079312  0  3.988875  0
C  C42  1  0.43789012  0.74383770  0.28135974  1  0  0.062263  0  3.77063  0  0  0.078971  0  4.005988  0  0  0.077526  0  4.030101  0  0  -0.003408  0.079791  0  3.989497  0
C  C43  1  0.35341041  0.19033583  0.66957535  1  0  -0.100976  0  3.676945  0  0  -0.137405  0  3.926238  0  0  -0.138039  0  3.946437  0  0  -0.07706  -0.136749  0  3.912572  0
C  C44  1  0.21307833  0.80959795  0.33034324  1  0  -0.100755  0  3.676433  0  0  -0.136481  0  3.925389  0  0  -0.137054  0  3.945687  0  0  -0.076825  -0.135867  0  3.911613  0
C  C45  1  0.18305054  0.24130089  0.60603155  1  0  -0.027384  0  3.785842  0  0  -0.003518  0  4.024395  0  0  -0.009222  0  4.046956  0  0  -0.011446  4e-05  0  4.009232  0
C  C46  1  0.03037576  0.75864193  0.39398593  1  0  -0.025029  0  3.783185  0  0  -0.001519  0  4.022365  0  0  -0.007329  0  4.045083  0  0  -0.010918  0.002112  0  4.007065  0
C  C47  1  0.10721725  0.35980394  0.59352873  1  0  -0.165525  0  3.682676  0  0  -0.201071  0  3.936314  0  0  -0.203001  0  3.9547  0  0  -0.087632  -0.199638  0  3.923961  0
C  C48  1  0.06067751  0.64013460  0.40652501  1  0  -0.167103  0  3.683347  0  0  -0.202345  0  3.937072  0  0  -0.204269  0  3.955502  0  0  -0.087795  -0.200912  0  3.924665  0
C  C49  1  0.21633646  0.42637380  0.64172969  1  0  0.261094  0  3.780492  0  0  0.259532  0  4.028761  0  0  0.266088  0  4.049548  0  0  0.093939  0.254924  0  4.014741  0
C  C50  1  0.28454557  0.57359144  0.35826443  1  0  0.25744  0  3.784699  0  0  0.256176  0  4.032449  0  0  0.26271  0  4.053289  0  0  0.093352  0.251597  0  4.018381  0
C  C51  1  0.39419251  0.37505199  0.70287821  1  0  -0.178546  0  3.669565  0  0  -0.209486  0  3.919086  0  0  -0.212196  0  3.936828  0  0  -0.0828  -0.207453  0  3.906989  0
C  C52  1  0.47222256  0.62493488  0.29711987  1  0  -0.176179  0  3.670437  0  0  -0.207595  0  3.919924  0  0  -0.210186  0  3.937696  0  0  -0.082409  -0.205641  0  3.907823  0
C  C53  1  0.08283934  0.16515588  0.55381906  1  0  0.490922  0  3.820813  0  0  0.44099  0  4.109083  0  0  0.470953  0  4.107393  0  0  0.242129  0.420857  0  4.109558  0
C  C54  1  0.80180305  0.83482421  0.44620482  1  0  0.488374  0  3.823374  0  0  0.438166  0  4.112981  0  0  0.468138  0  4.111377  0  0  0.240529  0.418035  0  4.113382  0
C  C55  1  0.29085891  0.25779556  0.40869799  1  0  -0.002796  0  3.615755  0  0  -0.025402  0  3.859431  0  0  -0.024611  0  3.871593  0  0  0.017315  -0.025999  0  3.851139  0
C  C56  1  0.95744276  0.74220787  0.59132366  1  0  -0.003112  0  3.614851  0  0  -0.026329  0  3.859621  0  0  -0.025403  0  3.871762  0  0  0.016523  -0.026983  0  3.851353  0
C  C57  1  0.35435400  0.20298499  0.32024066  1  0  -0.139635  0  3.617702  0  0  -0.186339  0  3.87454  0  0  -0.187143  0  3.886418  0  0  -0.154972  -0.185608  0  3.866226  0
C  C58  1  0.87763824  0.79703374  0.67976056  1  0  -0.138198  0  3.614676  0  0  -0.18405  0  3.871071  0  0  -0.184951  0  3.882965  0  0  -0.154511  -0.183274  0  3.862774  0
C  C59  1  0.09072159  0.15802606  0.31764633  1  0  -0.124981  0  3.674158  0  0  -0.168128  0  3.938066  0  0  -0.169197  0  3.950484  0  0  -0.164373  -0.167238  0  3.929368  0
C  C60  1  0.56644081  0.84197339  0.68237947  1  0  -0.126075  0  3.675174  0  0  -0.169995  0  3.939514  0  0  -0.171038  0  3.951947  0  0  -0.165093  -0.169104  0  3.930828  0
C  C61  1  0.02152683  0.10966835  0.41309975  1  0  0.005018  0  3.62796  0  0  -0.060223  0  3.898773  0  0  -0.054218  0  3.90767  0  0  -0.068186  -0.064157  0  3.89266  0
C  C62  1  0.54440813  0.89033612  0.58692987  1  0  0.00441  0  3.625958  0  0  -0.060705  0  3.898129  0  0  -0.054684  0  3.906924  0  0  -0.068705  -0.064671  0  3.892061  0
C  C63  1  0.15645946  0.38336955  0.39207563  1  0  0.541584  0  3.811284  0  0  0.494059  0  4.110623  0  0  0.521958  0  4.110277  0  0  0.244535  0.475268  0  4.110205  0
C  C64  1  0.93194121  0.61662860  0.60791787  1  0  0.541417  0  3.809315  0  0  0.494018  0  4.108768  0  0  0.521861  0  4.108413  0  0  0.244328  0.47527  0  4.108326  0
N  N65  1  0.03426311  0.09889511  0.89968071  1  0  -0.312456  0  3.273267  0  0  -0.237862  0  3.541853  0  0  -0.258182  0  3.563724  0  0  -0.319534  -0.224022  0  3.526566  0
N  N66  1  0.03284449  0.90116846  0.10034048  1  0  -0.313828  0  3.272889  0  0  -0.239861  0  3.542161  0  0  -0.260137  0  3.563929  0  0  -0.320087  -0.22604  0  3.526902  0
N  N67  1  0.10663772  0.18844770  0.46424588  1  0  -0.230072  0  3.343912  0  0  -0.148513  0  3.579788  0  0  -0.16949  0  3.599043  0  0  -0.273767  -0.134248  0  3.566244  0
N  N68  1  0.75939889  0.81156047  0.53578365  1  0  -0.229148  0  3.345693  0  0  -0.147395  0  3.581966  0  0  -0.168401  0  3.601226  0  0  -0.272665  -0.133121  0  3.568429  0
N  N69  1  0.34243118  0.45342487  0.37508556  1  0  -0.461175  0  3.344347  0  0  -0.405523  0  3.582878  0  0  -0.427989  0  3.591805  0  0  -0.40117  -0.390137  0  3.576489  0
N  N70  1  0.17101299  0.54653780  0.62484828  1  0  -0.463734  0  3.343525  0  0  -0.408343  0  3.582046  0  0  -0.430754  0  3.590833  0  0  -0.401473  -0.392935  0  3.575672  0
Cl  Cl71  1  0.57789132  0.83479404  0.92364749  1  0  -0.49406  0  0.8948  0  0  -0.433386  0  1.138151  0  0  -0.451473  0  1.122027  0  0  -0.29816  -0.421086  0  1.149072  0
Cl  Cl72  1  0.33650651  0.16518607  0.07633987  1  0  -0.494005  0  0.894307  0  0  -0.43324  0  1.137468  0  0  -0.451364  0  1.121419  0  0  -0.298254  -0.420904  0  1.148332  0
O  O73  1  0.98273852  0.08181963  0.59089185  1  0  -0.539834  0  1.936233  0  0  -0.497986  0  2.168668  0  0  -0.519149  0  2.164673  0  0  -0.29286  -0.483086  0  2.170859  0
O  O74  1  0.65545313  0.91818164  0.40915821  1  0  -0.538345  0  1.936923  0  0  -0.496698  0  2.170177  0  0  -0.517865  0  2.166226  0  0  -0.291747  -0.481807  0  2.172346  0
O  O75  1  0.90299620  0.41588260  0.39123656  1  0  -0.561941  0  1.976433  0  0  -0.517538  0  2.205609  0  0  -0.537643  0  2.198493  0  0  -0.298671  -0.503576  0  2.210085  0
O  O76  1  0.71013835  0.58411693  0.60876682  1  0  -0.561424  0  1.97595  0  0  -0.517558  0  2.205689  0  0  -0.537657  0  2.198589  0  0  -0.298525  -0.503613  0  2.210145  0
