# generated using pymatgen
data_MnH14C20(NO2)2
_symmetry_space_group_name_H-M   'P 1'
_cell_length_a   8.86068656
_cell_length_b   9.83123812
_cell_length_c   12.24013378
_cell_angle_alpha   95.30446859
_cell_angle_beta   100.15411800
_cell_angle_gamma   112.78480961
_symmetry_Int_Tables_number   1
_chemical_formula_structural   MnH14C20(NO2)2
_chemical_formula_sum   'Mn2 H28 C40 N4 O8'
_cell_volume   952.35890967
_cell_formula_units_Z   2
loop_
 _symmetry_equiv_pos_site_id
 _symmetry_equiv_pos_as_xyz
  1  'x, y, z'
loop_
 _atom_site_type_symbol
 _atom_site_label
 _atom_site_symmetry_multiplicity
 _atom_site_fract_x
 _atom_site_fract_y
 _atom_site_fract_z
 _atom_site_occupancy
 _atom_site_pbe_bader_charge
 _atom_site_pbe_bader_spin_density
 _atom_site_pbe_cm5_charge
 _atom_site_pbe_ddec_charge
 _atom_site_pbe_ddec_spin_density
 _atom_site_pbe_ddec_sum_bond_order
 _atom_site_pbe_magmom
Mn  Mn0  1  0.96598615  0.11611960  0.13240960  1  1.500586  4.501736  0.611966  0.882455  4.643617  2.429302  4.423
Mn  Mn1  1  0.03401682  0.88388425  0.86759257  1  1.500604  4.501738  0.611956  0.882427  4.643632  2.429287  4.423
H  H2  1  0.62497105  0.25677736  0.61933540  1  0.034467  0.000165  0.099272  0.092877  4.9e-05  1.038628  0.0
H  H3  1  0.37502527  0.74321987  0.38066293  1  0.034509  0.000165  0.099303  0.092913  4.9e-05  1.038614  0.0
H  H4  1  0.44418129  0.95747373  0.79902161  1  0.125514  0.000543  0.112163  0.131696  -8.1e-05  1.02543  0.0
H  H5  1  0.55582284  0.04252779  0.20098379  1  0.125508  0.000543  0.112175  0.13169  -8.1e-05  1.025459  0.0
H  H6  1  0.61049009  0.96336098  0.98508091  1  0.071374  0.001631  0.118001  0.079824  0.000905  1.027377  0.001
H  H7  1  0.38951849  0.03664499  0.01492459  1  0.071347  0.001631  0.118012  0.079821  0.000905  1.027405  0.001
H  H8  1  0.32137152  0.97854220  0.64504917  1  0.129061  0.00026  0.10616  0.116102  -0.000241  1.040374  0.0
H  H9  1  0.67862588  0.02145725  0.35495111  1  0.129083  0.00026  0.106151  0.116095  -0.000241  1.040347  0.0
H  H10  1  0.85914919  0.36722503  0.77901571  1  0.117937  0.00086  0.106575  0.121067  0.000317  1.019166  0.0
H  H11  1  0.14085046  0.63277669  0.22098095  1  0.117987  0.00086  0.106578  0.121055  0.000317  1.019197  0.0
H  H12  1  0.49552731  0.28031325  0.46429578  1  0.056477  0.000536  0.104034  0.108173  0.000242  1.03244  0.0
H  H13  1  0.50447348  0.71968611  0.53570738  1  0.05659  0.000535  0.104008  0.108148  0.000242  1.032424  0.0
H  H14  1  0.00855192  0.35292097  0.96716649  1  0.081348  0.001452  0.120771  0.08741  0.00076  0.992132  0.0
H  H15  1  0.99145619  0.64708399  0.03282908  1  0.081423  0.001452  0.120791  0.087398  0.00076  0.992149  0.0
H  H16  1  0.08802671  0.87045776  0.48882414  1  0.086479  0.000657  0.107427  0.11751  0.000269  1.007197  0.0
H  H17  1  0.91197192  0.12953715  0.51117512  1  0.086524  0.000657  0.107419  0.117513  0.000269  1.007204  0.0
H  H18  1  0.32883850  0.26808215  0.27506529  1  0.100102  0.001182  0.120285  0.091735  0.000368  1.000899  0.0
H  H19  1  0.67116229  0.73191722  0.72493705  1  0.100071  0.001182  0.120272  0.091738  0.000369  1.000867  0.0
H  H20  1  0.93436250  0.88103483  0.29919444  1  0.122611  0.001098  0.120216  0.095497  0.000226  0.994681  0.0
H  H21  1  0.06563771  0.11896570  0.70080629  1  0.122594  0.001098  0.120209  0.09549  0.000227  0.994698  0.0
H  H22  1  0.25025379  0.51889657  0.42637733  1  0.061494  0.000271  0.099955  0.096439  1e-06  1.028905  0.0
H  H23  1  0.74973468  0.48109629  0.57362046  1  0.061418  0.000271  0.099951  0.096408  1e-06  1.028879  0.0
H  H24  1  0.71643633  0.31927197  0.38969133  1  0.072937  0.000501  0.102017  0.101945  0.00021  1.02232  0.0
H  H25  1  0.28355101  0.68072093  0.61030550  1  0.072677  0.000501  0.102045  0.101956  0.00021  1.022431  0.0
H  H26  1  0.44697343  0.30077578  0.83906024  1  0.10606  0.000447  0.097581  0.099236  -2.3e-05  1.041741  0.0
H  H27  1  0.55303352  0.69922917  0.16093762  1  0.106041  0.000447  0.097607  0.099291  -2.3e-05  1.041762  0.0
H  H28  1  0.31889285  0.44355855  0.13887055  1  0.116829  5.9e-05  0.10488  0.114208  -0.000544  1.028019  0.0
H  H29  1  0.68111408  0.55644636  0.86113058  1  0.11676  5.9e-05  0.104863  0.114189  -0.000544  1.028051  0.0
C  C30  1  0.55209416  0.16623540  0.65917160  1  -0.000309  0.006106  -0.079622  -0.113242  0.004927  3.94776  0.003
C  C31  1  0.44790441  0.83376176  0.34082865  1  -0.000401  0.006104  -0.079641  -0.113267  0.004926  3.947923  0.003
C  C32  1  0.63937464  0.16079258  0.76991276  1  0.019125  0.008936  0.008815  0.145307  0.006778  4.019444  0.005
C  C33  1  0.36062902  0.83920561  0.23008741  1  0.019081  0.008935  0.00878  0.145242  0.006777  4.019473  0.005
C  C34  1  0.56948319  0.04713367  0.83140118  1  -0.027641  0.000544  -0.077177  -0.167427  -0.000366  3.895627  0.0
C  C35  1  0.43052152  0.95286902  0.16860030  1  -0.0279  0.000544  -0.077164  -0.167401  -0.000366  3.895412  0.0
C  C36  1  0.66163183  0.04999988  0.93595326  1  0.496263  0.008991  0.04833  0.097748  0.007037  3.964928  0.006
C  C37  1  0.33836893  0.95000179  0.06404599  1  0.496501  0.00899  0.048282  0.097719  0.007038  3.964898  0.006
C  C38  1  0.39379834  0.06945896  0.60497355  1  -0.072588  0.005937  -0.080016  -0.121173  0.004743  3.929192  0.003
C  C39  1  0.60620025  0.93053821  0.39502589  1  -0.072467  0.005936  -0.080028  -0.121186  0.004744  3.929146  0.003
C  C40  1  0.80056512  0.27332460  0.82064535  1  -0.061456  0.000997  -0.080152  -0.173756  0.000214  3.910154  0.0
C  C41  1  0.19943792  0.72667703  0.17935338  1  -0.061476  0.000997  -0.080144  -0.173727  0.000213  3.910185  0.0
C  C42  1  0.37253256  0.18806790  0.43139283  1  -0.024425  0.000596  -0.087323  -0.183804  -0.000188  3.943379  0.0
C  C43  1  0.62746764  0.81193262  0.56860871  1  -0.024509  0.000596  -0.087304  -0.183769  -0.000188  3.94329  0.0
C  C44  1  0.30646964  0.07482364  0.49421262  1  -0.058304  0.009013  0.005449  0.147975  0.006898  4.028232  0.005
C  C45  1  0.69352889  0.92517578  0.50578862  1  -0.05841  0.009011  0.005487  0.148009  0.006896  4.028183  0.005
C  C46  1  0.88368724  0.26699786  0.92620328  1  0.476593  0.010441  0.053165  0.101902  0.007989  3.947475  0.007
C  C47  1  0.11631861  0.73300483  0.07379589  1  0.476617  0.01044  0.053151  0.101908  0.007989  3.947427  0.007
C  C48  1  0.14561053  0.96147393  0.44453501  1  -0.016916  0.001223  -0.082823  -0.179875  0.00045  3.932021  0.0
C  C49  1  0.85438632  0.03852440  0.55546593  1  -0.016895  0.001223  -0.082837  -0.179889  0.00045  3.932027  0.0
C  C50  1  0.28022763  0.18299871  0.32611191  1  0.488073  0.00804  0.046926  0.092813  0.006137  3.968801  0.005
C  C51  1  0.71977431  0.81700065  0.67388895  1  0.487977  0.008039  0.046959  0.092807  0.006136  3.968697  0.005
C  C52  1  0.06000396  0.96608114  0.33922855  1  0.467137  0.009066  0.051327  0.095287  0.007038  3.953238  0.006
C  C53  1  0.93999456  0.03391828  0.66077351  1  0.467167  0.009065  0.051354  0.095259  0.007038  3.953275  0.006
C  C54  1  0.96411527  0.31552923  0.29028571  1  1.534291  0.007726  0.197324  0.548766  0.009167  4.23114  0.005
C  C55  1  0.03587480  0.68446929  0.70971029  1  1.534425  0.007719  0.197374  0.548775  0.009165  4.231102  0.005
C  C56  1  0.98160915  0.41199386  0.39770863  1  -0.084279  0.002037  -0.015442  -0.019342  0.0009  3.973226  0.0
C  C57  1  0.01837987  0.58800014  0.60228769  1  -0.084028  0.002038  -0.015449  -0.019251  0.000901  3.97324  0.0
C  C58  1  0.14189486  0.51301666  0.45964168  1  -0.02909  0.002358  -0.089569  -0.109672  0.001711  3.999705  0.001
C  C59  1  0.85809303  0.48697737  0.54035450  1  -0.029017  0.002357  -0.089578  -0.109668  0.00171  3.999561  0.001
C  C60  1  0.83971344  0.39914706  0.43891403  1  0.006544  0.002832  -0.08737  -0.103733  0.002118  3.988158  0.002
C  C61  1  0.16027385  0.60084811  0.56108297  1  0.006643  0.002832  -0.087403  -0.103785  0.002118  3.988438  0.002
C  C62  1  0.23659098  0.20412972  0.97668963  1  1.564113  0.028595  0.219861  0.568969  0.02827  4.21495  0.024
C  C63  1  0.76341880  0.79587399  0.02331258  1  1.564261  0.028593  0.219844  0.568921  0.028271  4.214945  0.024
C  C64  1  0.37088954  0.35772934  0.98785666  1  -0.037314  0.007808  -0.018924  -0.039242  0.005436  3.985972  0.004
C  C65  1  0.62911966  0.64227554  0.01214394  1  -0.012009  0.007793  -0.018882  -0.039041  0.005434  3.985829  0.004
C  C66  1  0.47140184  0.38925859  0.90888564  1  -0.037744  0.005653  -0.089521  -0.095359  0.004215  3.977112  0.003
C  C67  1  0.52860284  0.61074640  0.09111357  1  -0.037769  0.005654  -0.089518  -0.095465  0.004216  3.977242  0.003
C  C68  1  0.39966546  0.46932382  0.07908287  1  -0.095485  0.004636  -0.087762  -0.101287  0.003302  3.965167  0.002
C  C69  1  0.60034035  0.53068114  0.92091567  1  -0.120855  0.004651  -0.087738  -0.101305  0.003303  3.965003  0.002
N  N70  1  0.81710831  0.15641250  0.98363875  1  -1.258251  0.050145  -0.321063  -0.251258  0.031917  3.506211  0.012
N  N71  1  0.18289749  0.84359245  0.01636142  1  -1.258298  0.050147  -0.321049  -0.251224  0.031915  3.506173  0.012
N  N72  1  0.12508477  0.07475682  0.28002316  1  -1.247214  0.050262  -0.318006  -0.241123  0.032915  3.478626  0.019
N  N73  1  0.87491711  0.92524479  0.71997868  1  -1.247174  0.050259  -0.318031  -0.241082  0.032914  3.47865  0.019
O  O74  1  0.83888922  0.18757845  0.25994781  1  -1.19287  0.05275  -0.314067  -0.558396  0.037544  2.213594  0.028
O  O75  1  0.16110371  0.81241888  0.74004847  1  -1.192836  0.052756  -0.314043  -0.558386  0.037543  2.213655  0.028
O  O76  1  0.07774862  0.36006185  0.23466720  1  -1.176427  0.046506  -0.314625  -0.561109  0.033041  2.193049  0.025
O  O77  1  0.92224655  0.63993538  0.76533344  1  -1.176396  0.046503  -0.314682  -0.561176  0.033039  2.192956  0.025
O  O78  1  0.17104413  0.17119879  0.06043541  1  -1.216472  0.076841  -0.31174  -0.572942  0.055558  2.452561  0.033
O  O79  1  0.82896156  0.82881067  0.93956755  1  -1.216862  0.076842  -0.311759  -0.572954  0.055557  2.452578  0.033
O  O80  1  0.19915448  0.11190907  0.88525841  1  -1.198669  0.080572  -0.307301  -0.542193  0.056168  2.331659  0.04
O  O81  1  0.80085592  0.88809119  0.11474687  1  -1.198463  0.080567  -0.307318  -0.542204  0.056168  2.331611  0.04
