# generated using pymatgen
data_CaH14C16O7
_symmetry_space_group_name_H-M   'P 1'
_cell_length_a   6.63311036
_cell_length_b   9.72786745
_cell_length_c   25.44603800
_cell_angle_alpha   89.99999384
_cell_angle_beta   95.79354046
_cell_angle_gamma   90.00023287
_symmetry_Int_Tables_number   1
_chemical_formula_structural   CaH14C16O7
_chemical_formula_sum   'Ca4 H56 C64 O28'
_cell_volume   1633.54468478
_cell_formula_units_Z   4
loop_
 _symmetry_equiv_pos_site_id
 _symmetry_equiv_pos_as_xyz
  1  'x, y, z'
loop_
 _atom_site_type_symbol
 _atom_site_label
 _atom_site_symmetry_multiplicity
 _atom_site_fract_x
 _atom_site_fract_y
 _atom_site_fract_z
 _atom_site_occupancy
 _atom_site_pbe_bader_charge
 _atom_site_pbe_bader_spin_density
 _atom_site_pbe_cm5_charge
 _atom_site_pbe_ddec_charge
 _atom_site_pbe_ddec_spin_density
 _atom_site_pbe_ddec_sum_bond_order
 _atom_site_pbe_magmom
Ca  Ca0  1  0.26649835  0.04803453  0.03681169  1  1.626527  0  0.914982  1.346999  0  1.557405  0
Ca  Ca1  1  0.23350581  0.54803506  0.46318804  1  1.626544  0  0.91499  1.347015  0  1.557386  0
Ca  Ca2  1  0.73350639  0.95195977  0.96318808  1  1.626548  0  0.914943  1.34696  0  1.557462  0
Ca  Ca3  1  0.76649745  0.45196027  0.53681248  1  1.626548  0  0.914967  1.346988  0  1.557405  0
H  H4  1  0.17868340  0.00392811  0.21851772  1  0.08325  0  0.10188  0.105919  0  1.032927  0
H  H5  1  0.32132051  0.50392997  0.28148240  1  0.083358  0  0.101858  0.105838  0  1.032957  0
H  H6  1  0.82131215  0.99608059  0.78147948  1  0.083335  0  0.101879  0.105886  0  1.032971  0
H  H7  1  0.67868128  0.49607050  0.71851927  1  0.083394  0  0.101851  0.105852  0  1.032982  0
H  H8  1  0.47059803  0.98267436  0.28367858  1  0.0717  0  0.101348  0.111093  0  1.045801  0
H  H9  1  0.02940575  0.48267723  0.21632231  1  0.071742  0  0.101373  0.111141  0  1.045766  0
H  H10  1  0.52939454  0.01733022  0.71631973  1  0.071586  0  0.101374  0.111132  0  1.045825  0
H  H11  1  0.97059606  0.51732530  0.78367975  1  0.071716  0  0.101357  0.111102  0  1.04582  0
H  H12  1  0.97073666  0.35201474  0.30387987  1  0.085231  0  0.105924  0.112253  0  1.007619  0
H  H13  1  0.52926848  0.85201992  0.19612149  1  0.085148  0  0.105976  0.112406  0  1.007635  0
H  H14  1  0.02925297  0.64798779  0.69612033  1  0.085193  0  0.105906  0.112252  0  1.007583  0
H  H15  1  0.47073638  0.14798055  0.80388104  1  0.085185  0  0.105969  0.112388  0  1.007496  0
H  H16  1  0.02772426  0.09955318  0.15257096  1  0.133982  0  0.110857  0.11367  0  1.044392  0
H  H17  1  0.47227723  0.59955441  0.34742989  1  0.134003  0  0.11086  0.113674  0  1.044409  0
H  H18  1  0.97227592  0.90044935  0.84742832  1  0.133976  0  0.110821  0.113566  0  1.04448  0
H  H19  1  0.52772458  0.40044503  0.65257217  1  0.134019  0  0.110844  0.113575  0  1.04447  0
H  H20  1  0.40380737  0.34178150  0.19215615  1  0.087358  0  0.102818  0.113419  0  1.042793  0
H  H21  1  0.09620163  0.84178170  0.30784487  1  0.087262  0  0.10279  0.113401  0  1.042771  0
H  H22  1  0.59618966  0.65822308  0.80784030  1  0.087462  0  0.102833  0.113432  0  1.042746  0
H  H23  1  0.90380624  0.15821260  0.69215734  1  0.087318  0  0.102786  0.113389  0  1.042808  0
H  H24  1  0.67413101  0.30397811  0.26282543  1  0.063667  0  0.102274  0.104314  0  1.002862  0
H  H25  1  0.82587683  0.80397897  0.23717521  1  0.063435  0  0.102269  0.104326  0  1.002871  0
H  H26  1  0.32586303  0.69602956  0.73717174  1  0.063637  0  0.10225  0.104294  0  1.002868  0
H  H27  1  0.17412951  0.19601739  0.76282657  1  0.063582  0  0.102279  0.104313  0  1.002791  0
H  H28  1  0.82247612  0.06412099  0.39471952  1  0.018567  0  0.106718  0.111628  0  0.984996  0
H  H29  1  0.67753023  0.56412046  0.10527951  1  0.018164  0  0.106654  0.111548  0  0.985059  0
H  H30  1  0.17751792  0.93587845  0.60527764  1  0.018444  0  0.106698  0.111663  0  0.985009  0
H  H31  1  0.32247309  0.43588001  0.89472259  1  0.01807  0  0.106732  0.111655  0  0.985087  0
H  H32  1  0.77097840  0.06532366  0.32427016  1  0.06614  0  0.094072  0.094391  0  1.036517  0
H  H33  1  0.72902646  0.56532222  0.17572923  1  0.066182  0  0.094106  0.094474  0  1.036503  0
H  H34  1  0.22900657  0.93468092  0.67572718  1  0.06609  0  0.094068  0.094478  0  1.036444  0
H  H35  1  0.27098293  0.43468134  0.82427301  1  0.066226  0  0.094061  0.094453  0  1.036486  0
H  H36  1  0.64589218  0.94404023  0.36317107  1  0.065934  0  0.095155  0.092128  0  1.049188  0
H  H37  1  0.85411494  0.44404094  0.13682837  1  0.065998  0  0.095158  0.09211  0  1.049198  0
H  H38  1  0.35410186  0.05595921  0.63682610  1  0.065827  0  0.095117  0.092112  0  1.049131  0
H  H39  1  0.14588838  0.55595953  0.86317373  1  0.065836  0  0.095145  0.092147  0  1.049118  0
H  H40  1  0.17080565  0.37137145  0.05857880  1  0.115591  0  0.119037  0.132063  0  0.984027  0
H  H41  1  0.32920051  0.87137123  0.44142254  1  0.115525  0  0.119034  0.132062  0  0.983997  0
H  H42  1  0.82919444  0.62863005  0.94141811  1  0.115663  0  0.118974  0.131986  0  0.984076  0
H  H43  1  0.67080429  0.12862616  0.55857881  1  0.115574  0  0.119051  0.132115  0  0.98398  0
H  H44  1  0.33080970  0.46266711  0.10825261  1  0.059065  0  0.099192  0.100124  0  1.014123  0
H  H45  1  0.16919396  0.96266749  0.39174828  1  0.059085  0  0.099134  0.100076  0  1.01407  0
H  H46  1  0.66918431  0.53733644  0.89174377  1  0.059195  0  0.099162  0.100116  0  1.01417  0
H  H47  1  0.83081085  0.03733093  0.60825307  1  0.059153  0  0.099178  0.1001  0  1.014106  0
H  H48  1  0.15986842  0.33233203  0.12720612  1  0.064022  0  0.09882  0.094725  0  1.037168  0
H  H49  1  0.34013899  0.83233392  0.37279447  1  0.064016  0  0.098821  0.094754  0  1.037069  0
H  H50  1  0.84012860  0.66767152  0.87278993  1  0.063894  0  0.098815  0.094725  0  1.037035  0
H  H51  1  0.65986583  0.16766449  0.62720727  1  0.064094  0  0.098815  0.094717  0  1.037164  0
H  H52  1  0.04104228  0.22863481  0.95621428  1  0.665307  0  0.301493  0.399111  0  0.941551  0
H  H53  1  0.45896258  0.72863610  0.54378471  1  0.665289  0  0.301524  0.39919  0  0.941451  0
H  H54  1  0.95896701  0.77136052  0.04378560  1  0.665269  0  0.301525  0.399204  0  0.941427  0
H  H55  1  0.54103005  0.27135923  0.45621517  1  0.665204  0  0.301531  0.399182  0  0.941457  0
H  H56  1  0.26892757  0.25073555  0.94773018  1  0.590719  0  0.327499  0.400446  0  0.891434  0
H  H57  1  0.23107898  0.75073620  0.55226963  1  0.590654  0  0.327512  0.400469  0  0.891458  0
H  H58  1  0.73108019  0.74925978  0.05226927  1  0.590503  0  0.327495  0.400426  0  0.891536  0
H  H59  1  0.76891360  0.24926118  0.44772867  1  0.590497  0  0.327497  0.400451  0  0.891473  0
C  C60  1  0.04626185  0.17892208  0.25541127  1  -0.000231  0  -0.024845  0.032309  0  4.04121  0
C  C61  1  0.45373860  0.67892329  0.24458955  1  -0.000244  0  -0.024813  0.0323  0  4.041265  0
C  C62  1  0.95372924  0.82108251  0.74458779  1  -6e-06  0  -0.024904  0.032122  0  4.041366  0
C  C63  1  0.54626319  0.32107512  0.75541212  1  -0.000213  0  -0.02489  0.032235  0  4.041276  0
C  C64  1  0.19201558  0.07532506  0.25167017  1  -0.048754  0  -0.085609  -0.091059  0  3.965031  0
C  C65  1  0.30798725  0.57532690  0.24832992  1  -0.048822  0  -0.085656  -0.090965  0  3.964999  0
C  C66  1  0.80798004  0.92468055  0.74832860  1  -0.048899  0  -0.085559  -0.090823  0  3.964963  0
C  C67  1  0.69201603  0.42467460  0.75167100  1  -0.048843  0  -0.085627  -0.091014  0  3.964908  0
C  C68  1  0.35950099  0.06248178  0.28897727  1  -0.012404  0  -0.110547  -0.219898  0  4.020651  0
C  C69  1  0.14050176  0.56248418  0.21102282  1  -0.012436  0  -0.110512  -0.219954  0  4.020643  0
C  C70  1  0.64048858  0.93752075  0.71102175  1  -0.012877  0  -0.110555  -0.219977  0  4.020547  0
C  C71  1  0.85950304  0.43751629  0.78897853  1  -0.012833  0  -0.11052  -0.219861  0  4.020541  0
C  C72  1  0.38579251  0.15204923  0.33232510  1  0.446787  0  0.086645  0.231459  0  4.039144  0
C  C73  1  0.11421384  0.65205055  0.16767586  1  0.446775  0  0.086613  0.231486  0  4.039092  0
C  C74  1  0.61419708  0.84795227  0.66767432  1  0.447275  0  0.086671  0.231506  0  4.039073  0
C  C75  1  0.88579248  0.34794787  0.83232552  1  0.447241  0  0.08665  0.231465  0  4.039157  0
C  C76  1  0.23836295  0.25426875  0.33806016  1  -0.030984  0  -0.030416  -0.145065  0  3.979721  0
C  C77  1  0.26163947  0.75427151  0.16194070  1  -0.030959  0  -0.030397  -0.145062  0  3.979663  0
C  C78  1  0.76162517  0.74572966  0.66194040  1  -0.03097  0  -0.03042  -0.145099  0  3.97972  0
C  C79  1  0.73836533  0.24572690  0.83806025  1  -0.031008  0  -0.030389  -0.145088  0  3.979724  0
C  C80  1  0.07483513  0.26707812  0.29914062  1  -0.048061  0  -0.084956  -0.132289  0  3.970191  0
C  C81  1  0.42517191  0.76708235  0.20086035  1  -0.048068  0  -0.084979  -0.132415  0  3.970217  0
C  C82  1  0.92515448  0.73292440  0.70085919  1  -0.047796  0  -0.084887  -0.132164  0  3.970055  0
C  C83  1  0.57483444  0.23291812  0.79914182  1  -0.048074  0  -0.084945  -0.132343  0  3.970169  0
C  C84  1  0.87522883  0.19789759  0.21400368  1  -0.020685  0  -0.023023  0.034573  0  4.044866  0
C  C85  1  0.62477534  0.69789890  0.28599648  1  -0.020626  0  -0.022977  0.034722  0  4.044795  0
C  C86  1  0.12476674  0.80211110  0.78599391  1  -0.021178  0  -0.023078  0.034487  0  4.044898  0
C  C87  1  0.37522952  0.30209951  0.71400605  1  -0.020645  0  -0.023072  0.034514  0  4.044783  0
C  C88  1  0.89005274  0.15068583  0.16240235  1  -0.075804  0  -0.082721  -0.136149  0  3.961713  0
C  C89  1  0.60995116  0.65068606  0.33759819  1  -0.075674  0  -0.082741  -0.136211  0  3.961732  0
C  C90  1  0.10994438  0.84931772  0.83759606  1  -0.075617  0  -0.082664  -0.13588  0  3.961513  0
C  C91  1  0.39005369  0.34931235  0.66240433  1  -0.075673  0  -0.082678  -0.135897  0  3.961512  0
C  C92  1  0.73507771  0.16823006  0.12148538  1  -0.052314  0  -0.019194  -0.151493  0  3.966401  0
C  C93  1  0.76492627  0.66823071  0.37851477  1  -0.052759  0  -0.019219  -0.151498  0  3.966198  0
C  C94  1  0.26492092  0.83177452  0.87851307  1  -0.052303  0  -0.019167  -0.151549  0  3.966394  0
C  C95  1  0.23507702  0.33176976  0.62148654  1  -0.052728  0  -0.019156  -0.151465  0  3.966399  0
C  C96  1  0.55713136  0.23897399  0.13201515  1  0.465973  0  0.101483  0.254535  0  3.984844  0
C  C97  1  0.94287610  0.73897411  0.36798547  1  0.46633  0  0.101543  0.254643  0  3.9846  0
C  C98  1  0.44286571  0.76103059  0.86798208  1  0.465933  0  0.101488  0.254482  0  3.984976  0
C  C99  1  0.05713024  0.26102430  0.63201630  1  0.466332  0  0.101487  0.254403  0  3.984934  0
C  C100  1  0.53973206  0.28764547  0.18312508  1  0.034328  0  -0.102742  -0.199287  0  3.985648  0
C  C101  1  0.96027722  0.78764668  0.31687598  1  0.034303  0  -0.102701  -0.199191  0  3.985567  0
C  C102  1  0.46026651  0.71236014  0.81687180  1  0.034341  0  -0.102679  -0.199184  0  3.985738  0
C  C103  1  0.03972762  0.21235070  0.68312615  1  0.034321  0  -0.102686  -0.199111  0  3.985549  0
C  C104  1  0.69543872  0.26638306  0.22335187  1  -0.073323  0  -0.084748  -0.098935  0  3.975491  0
C  C105  1  0.80456890  0.76638282  0.27664877  1  -0.073049  0  -0.084716  -0.099062  0  3.97563  0
C  C106  1  0.30455384  0.73362358  0.77664605  1  -0.073354  0  -0.084709  -0.098948  0  3.975638  0
C  C107  1  0.19543592  0.23361457  0.72335298  1  -0.073325  0  -0.084756  -0.099034  0  3.975403  0
C  C108  1  0.70495318  0.04932417  0.36170471  1  0.41233  0  -0.142461  -0.181987  0  3.91172  0
C  C109  1  0.79505163  0.54932498  0.13829586  1  0.4127  0  -0.142399  -0.181931  0  3.911805  0
C  C110  1  0.29503786  0.95067630  0.63829317  1  0.412529  0  -0.142373  -0.182068  0  3.911506  0
C  C111  1  0.20495473  0.45067652  0.86170631  1  0.41283  0  -0.142432  -0.182061  0  3.911795  0
C  C112  1  0.25882540  0.36366792  0.09722259  1  0.331437  0  -0.131044  -0.174388  0  3.859373  0
C  C113  1  0.24118070  0.86366747  0.40277836  1  0.331472  0  -0.130994  -0.174339  0  3.859088  0
C  C114  1  0.74117317  0.63633357  0.90277429  1  0.331384  0  -0.130942  -0.17434  0  3.859263  0
C  C115  1  0.75882261  0.13632992  0.59722334  1  0.331256  0  -0.131053  -0.174439  0  3.859275  0
C  C116  1  0.24587422  0.35372632  0.38324822  1  1.568786  0  0.199136  0.58593  0  4.229389  0
C  C117  1  0.25412576  0.85372907  0.11675259  1  1.568735  0  0.19911  0.585894  0  4.22938  0
C  C118  1  0.75411996  0.64627312  0.61675249  1  1.568754  0  0.199091  0.585802  0  4.229578  0
C  C119  1  0.74587604  0.14627037  0.88324908  1  1.56859  0  0.199111  0.585921  0  4.229541  0
C  C120  1  0.76745828  0.10987406  0.06862417  1  1.59856  0  0.242931  0.651177  0  4.164003  0
C  C121  1  0.73254386  0.60987563  0.43137634  1  1.598856  0  0.242978  0.65117  0  4.163882  0
C  C122  1  0.23254343  0.89012435  0.93137553  1  1.59854  0  0.242912  0.651138  0  4.163941  0
C  C123  1  0.26745940  0.39011867  0.56862419  1  1.598592  0  0.242816  0.650905  0  4.16428  0
O  O124  1  0.55109224  0.14905085  0.36886072  1  -1.082362  0  -0.186097  -0.165322  0  2.599138  0
O  O125  1  0.94891315  0.64905106  0.13113947  1  -1.082365  0  -0.186162  -0.165392  0  2.599133  0
O  O126  1  0.44889585  0.85094756  0.63113906  1  -1.082393  0  -0.186195  -0.165429  0  2.599105  0
O  O127  1  0.05109467  0.35094736  0.86886155  1  -1.082381  0  -0.186128  -0.165348  0  2.599077  0
O  O128  1  0.41038648  0.26047080  0.09075834  1  -1.093593  0  -0.19324  -0.190757  0  2.61523  0
O  O129  1  0.08962051  0.76046889  0.40924224  1  -1.093651  0  -0.193302  -0.190914  0  2.61516  0
O  O130  1  0.58961211  0.73953173  0.90923893  1  -1.093551  0  -0.193318  -0.190761  0  2.615285  0
O  O131  1  0.91038433  0.23952849  0.59075989  1  -1.093561  0  -0.193242  -0.190713  0  2.615187  0
O  O132  1  0.30721709  0.31522361  0.43044277  1  -1.204538  0  -0.356202  -0.623863  0  2.187036  0
O  O133  1  0.19278116  0.81522621  0.06955839  1  -1.204456  0  -0.356186  -0.623845  0  2.187008  0
O  O134  1  0.69277253  0.68477172  0.56955743  1  -1.204468  0  -0.356166  -0.623781  0  2.187083  0
O  O135  1  0.80722669  0.18477118  0.93044343  1  -1.204359  0  -0.356228  -0.623884  0  2.187091  0
O  O136  1  0.17988478  0.47446492  0.37298508  1  -1.197703  0  -0.364723  -0.606565  0  2.196181  0
O  O137  1  0.32011138  0.97446888  0.12701564  1  -1.19772  0  -0.364722  -0.606585  0  2.196346  0
O  O138  1  0.82010791  0.52553452  0.62701599  1  -1.197681  0  -0.364689  -0.606531  0  2.196301  0
O  O139  1  0.67989038  0.02553158  0.87298524  1  -1.197706  0  -0.364673  -0.606546  0  2.196392  0
O  O140  1  0.61481891  0.06684387  0.03838922  1  -1.228143  0  -0.413103  -0.670816  0  2.316147  0
O  O141  1  0.88518602  0.56684688  0.46161174  1  -1.228234  0  -0.41316  -0.670844  0  2.316087  0
O  O142  1  0.38518582  0.93315146  0.96161016  1  -1.228146  0  -0.413118  -0.670826  0  2.316126  0
O  O143  1  0.11481882  0.43315154  0.53839039  1  -1.228119  0  -0.41308  -0.670728  0  2.316211  0
O  O144  1  0.94581388  0.09965522  0.05551567  1  -1.232483  0  -0.370299  -0.629188  0  2.242248  0
O  O145  1  0.55419121  0.59965423  0.44448452  1  -1.232709  0  -0.370314  -0.629193  0  2.242247  0
O  O146  1  0.05418783  0.90034320  0.94448404  1  -1.232444  0  -0.370283  -0.629174  0  2.242248  0
O  O147  1  0.44581355  0.40033391  0.55551565  1  -1.232458  0  -0.370236  -0.629081  0  2.242349  0
O  O148  1  0.18106439  0.23270886  0.97521964  1  -1.253925  0  -0.606301  -0.805194  0  1.982113  0
O  O149  1  0.31894052  0.73270977  0.52477974  1  -1.253853  0  -0.606349  -0.805293  0  1.98212  0
O  O150  1  0.81894640  0.76728544  0.02477989  1  -1.253664  0  -0.606319  -0.805248  0  1.982177  0
O  O151  1  0.68105361  0.26728556  0.47521939  1  -1.253593  0  -0.606331  -0.805263  0  1.982149  0
