# generated using pymatgen
data_H19Rh2C17N7O8
_symmetry_space_group_name_H-M   'P 1'
_cell_length_a   8.23204675
_cell_length_b   13.76994495
_cell_length_c   13.76990798
_cell_angle_alpha   109.44325472
_cell_angle_beta   103.76747477
_cell_angle_gamma   103.76804256
_symmetry_Int_Tables_number   1
_chemical_formula_structural   H19Rh2C17N7O8
_chemical_formula_sum   'H38 Rh4 C34 N14 O16'
_cell_volume   1341.10280093
_cell_formula_units_Z   2
loop_
 _symmetry_equiv_pos_site_id
 _symmetry_equiv_pos_as_xyz
  1  'x, y, z'
loop_
 _atom_site_type_symbol
 _atom_site_label
 _atom_site_symmetry_multiplicity
 _atom_site_fract_x
 _atom_site_fract_y
 _atom_site_fract_z
 _atom_site_occupancy
 _atom_site_pbe_bader_charge
 _atom_site_pbe_bader_spin_density
 _atom_site_pbe_cm5_charge
 _atom_site_pbe_ddec_charge
 _atom_site_pbe_ddec_spin_density
 _atom_site_pbe_ddec_sum_bond_order
 _atom_site_pbe_magmom
H  H0  1  0.03145480  0.74398347  0.03929013  1  0.061251  0  0.09288  0.141203  0  1.023221  0
H  H1  1  0.53145321  0.03929105  0.74397631  1  0.061354  0  0.09289  0.141218  0  1.023313  0
H  H2  1  0.96855858  0.25602387  0.96071817  1  0.061268  0  0.092853  0.14113  0  1.023334  0
H  H3  1  0.46855056  0.96070311  0.25602419  1  0.061172  0  0.092899  0.141198  0  1.023256  0
H  H4  1  0.07226281  0.61601037  0.00487322  1  0.108036  0  0.106117  0.175253  0  1.002575  0
H  H5  1  0.57226572  0.00486867  0.61600453  1  0.107991  0  0.106111  0.175232  0  1.002473  0
H  H6  1  0.92774089  0.38399283  0.99513603  1  0.107996  0  0.106075  0.175186  0  1.002523  0
H  H7  1  0.42773805  0.99512549  0.38399598  1  0.108024  0  0.106123  0.175246  0  1.002527  0
H  H8  1  0.11185935  0.69850672  0.14287792  1  0.056466  0  0.098818  0.149915  0  1.016288  0
H  H9  1  0.61186639  0.14287550  0.69849914  1  0.056369  0  0.09877  0.149866  0  1.016349  0
H  H10  1  0.88813299  0.30149393  0.85713038  1  0.056512  0  0.098776  0.149869  0  1.016402  0
H  H11  1  0.38813861  0.85711865  0.30150008  1  0.056067  0  0.098777  0.149851  0  1.016288  0
H  H12  1  0.44650774  0.72661544  0.32010544  1  0.061492  0  0.096015  0.149033  0  1.030033  0
H  H13  1  0.94651548  0.32010418  0.72662089  1  0.061806  0  0.095994  0.148989  0  1.030028  0
H  H14  1  0.55348680  0.27337782  0.67989496  1  0.061705  0  0.095979  0.148963  0  1.030067  0
H  H15  1  0.05346872  0.67988826  0.27338580  1  0.061879  0  0.096001  0.148985  0  1.030211  0
H  H16  1  0.62550228  0.68710572  0.37513165  1  0.102504  0  0.104222  0.167131  0  1.001758  0
H  H17  1  0.12551459  0.37513207  0.68710811  1  0.10276  0  0.104189  0.16707  0  1.001746  0
H  H18  1  0.37449434  0.31288915  0.62486592  1  0.102923  0  0.104204  0.167103  0  1.001748  0
H  H19  1  0.87447646  0.62486614  0.31290067  1  0.102463  0  0.104209  0.167052  0  1.001844  0
H  H20  1  0.40268849  0.59550389  0.32667129  1  0.063074  0  0.104543  0.157828  0  0.975521  0
H  H21  1  0.90269911  0.32666878  0.59551062  1  0.063207  0  0.104559  0.157819  0  0.975688  0
H  H22  1  0.59730981  0.40448940  0.67332890  1  0.06306  0  0.104561  0.157805  0  0.975592  0
H  H23  1  0.09729222  0.67332293  0.40449827  1  0.062713  0  0.104555  0.15781  0  0.97559  0
H  H24  1  0.33799608  0.79852467  0.05568478  1  0.1537  0  0.1485  0.121447  0  0.997765  0
H  H25  1  0.83802092  0.05569201  0.79852563  1  0.153831  0  0.148569  0.121538  0  0.997658  0
H  H26  1  0.66197694  0.20146827  0.94430527  1  0.153727  0  0.14852  0.12141  0  0.997745  0
H  H27  1  0.16200918  0.94432108  0.20147595  1  0.1538  0  0.148537  0.121521  0  0.997699  0
H  H28  1  0.38529138  0.63367004  0.75259676  1  0.136082  0  0.143868  0.115359  0  0.961354  0
H  H29  1  0.88529068  0.75259612  0.63366840  1  0.13613  0  0.143878  0.115351  0  0.961306  0
H  H30  1  0.61472587  0.36632832  0.24740479  1  0.13627  0  0.143883  0.115407  0  0.961353  0
H  H31  1  0.11471117  0.24740615  0.36633230  1  0.136056  0  0.143862  0.115336  0  0.961328  0
H  H32  1  0.29326763  0.95464770  0.79490453  1  0.152403  0  0.114777  0.140241  0  1.032291  0
H  H33  1  0.79325465  0.79490618  0.95463785  1  0.152195  0  0.114776  0.140228  0  1.032192  0
H  H34  1  0.70673053  0.04536421  0.20509009  1  0.152265  0  0.11477  0.140237  0  1.032296  0
H  H35  1  0.20673160  0.20509748  0.04535461  1  0.152394  0  0.114771  0.140202  0  1.032243  0
H  H36  1  0.24999470  0.13634856  0.86364713  1  0.105798  0  0.119187  0.12743  0  0.970211  0
H  H37  1  0.74999238  0.86365190  0.13634876  1  0.106053  0  0.119148  0.127293  0  0.970242  0
Rh  Rh38  1  0.45271220  0.56647652  0.97243826  1  0.990411  0  0.608338  0.514393  0  3.749355  0
Rh  Rh39  1  0.95271528  0.97243950  0.56647954  1  0.99042  0  0.608408  0.514443  0  3.749514  0
Rh  Rh40  1  0.54728537  0.43352485  0.02755865  1  0.98782  0  0.608357  0.51435  0  3.749567  0
Rh  Rh41  1  0.04728995  0.02755961  0.43352641  1  0.987876  0  0.608318  0.514353  0  3.749284  0
C  C42  1  0.50313641  0.60496024  0.19967622  1  1.530829  0  0.213995  0.648244  0  4.071358  0
C  C43  1  0.00314278  0.19967586  0.60496223  1  1.531092  0  0.213981  0.648274  0  4.071337  0
C  C44  1  0.49686027  0.39503708  0.80032216  1  1.530837  0  0.213919  0.648077  0  4.071468  0
C  C45  1  0.99685402  0.80031913  0.39504484  1  1.531157  0  0.21412  0.648465  0  4.0711  0
C  C46  1  0.83494478  0.61250639  0.04325110  1  1.50258  0  0.214345  0.649275  0  4.066641  0
C  C47  1  0.33495244  0.04325351  0.61250336  1  1.50239  0  0.214383  0.649287  0  4.066621  0
C  C48  1  0.16504945  0.38749575  0.95674487  1  1.502489  0  0.214405  0.649298  0  4.066479  0
C  C49  1  0.66505481  0.95674477  0.38749969  1  1.502756  0  0.214426  0.649391  0  4.066628  0
C  C50  1  0.02376582  0.67222168  0.05833414  1  -0.083017  0  -0.242069  -0.518888  0  3.875453  0
C  C51  1  0.52376704  0.05833336  0.67221975  1  -0.082788  0  -0.242025  -0.51879  0  3.875476  0
C  C52  1  0.97623566  0.32777981  0.94166989  1  -0.082826  0  -0.241996  -0.518679  0  3.875488  0
C  C53  1  0.47623888  0.94166246  0.32778232  1  -0.082532  0  -0.242099  -0.518844  0  3.875452  0
C  C54  1  0.49337473  0.65747028  0.31209205  1  -0.11008  0  -0.241133  -0.51482  0  3.885321  0
C  C55  1  0.99337533  0.31209041  0.65747288  1  -0.110787  0  -0.24108  -0.51468  0  3.885353  0
C  C56  1  0.50662104  0.34252297  0.68790633  1  -0.110717  0  -0.241075  -0.514642  0  3.885341  0
C  C57  1  0.00660678  0.68790281  0.34253304  1  -0.110327  0  -0.241124  -0.514694  0  3.885673  0
C  C58  1  0.33861189  0.77349652  0.97261178  1  1.010062  0  0.16774  0.09631  0  3.879675  0
C  C59  1  0.83862977  0.97261339  0.77349660  1  1.011077  0  0.16757  0.096044  0  3.880107  0
C  C60  1  0.66138056  0.22650474  0.02737930  1  1.010688  0  0.167608  0.096315  0  3.879766  0
C  C61  1  0.16138386  0.02739225  0.22650465  1  1.010269  0  0.167629  0.096083  0  3.879852  0
C  C62  1  0.36232809  0.69309563  0.81782486  1  0.977449  0  0.153977  0.144916  0  3.961646  0
C  C63  1  0.86233250  0.81782998  0.69309624  1  0.977703  0  0.154  0.14497  0  3.961746  0
C  C64  1  0.63767965  0.30690832  0.18217574  1  0.97739  0  0.153909  0.144884  0  3.961223  0
C  C65  1  0.13767701  0.18217726  0.30690640  1  0.977761  0  0.153997  0.144984  0  3.96146  0
C  C66  1  0.27660426  0.93037112  0.94039315  1  0.878885  0  0.224646  0.295962  0  4.062885  0
C  C67  1  0.77661384  0.94039446  0.93036886  1  0.87863  0  0.224561  0.295946  0  4.063128  0
C  C68  1  0.72339280  0.06962939  0.05959978  1  0.878951  0  0.224621  0.296117  0  4.062813  0
C  C69  1  0.22339042  0.05960778  0.06962708  1  0.878978  0  0.22455  0.295786  0  4.063184  0
C  C70  1  0.27604811  0.98748079  0.87368144  1  0.021482  0  -0.090171  -0.224447  0  3.942624  0
C  C71  1  0.77604117  0.87368578  0.98747505  1  0.022421  0  -0.09018  -0.224533  0  3.942694  0
C  C72  1  0.72394321  0.01252294  0.12631392  1  0.022328  0  -0.090207  -0.224611  0  3.942679  0
C  C73  1  0.22394675  0.12631629  0.01251930  1  0.022122  0  -0.090138  -0.224353  0  3.94258  0
C  C74  1  0.24999392  0.08786582  0.91212876  1  0.004019  0  -0.059652  0.010325  0  3.950047  0
C  C75  1  0.74999600  0.91213299  0.08786408  1  0.003375  0  -0.059559  0.010651  0  3.949883  0
N  N76  1  0.37128830  0.68600552  0.91591383  1  -1.163648  0  -0.339426  -0.250972  0  3.527562  0
N  N77  1  0.87130164  0.91591326  0.68600341  1  -1.164165  0  -0.339363  -0.250794  0  3.527868  0
N  N78  1  0.62870835  0.31399418  0.08408024  1  -1.163777  0  -0.33934  -0.250896  0  3.527579  0
N  N79  1  0.12871483  0.08409073  0.31399479  1  -1.164108  0  -0.339327  -0.250828  0  3.527625  0
N  N80  1  0.31014124  0.83034535  0.91026899  1  -0.85674  0  -0.114903  0.103645  0  3.74998  0
N  N81  1  0.81015354  0.91027675  0.83034556  1  -0.857647  0  -0.114899  0.103729  0  3.750412  0
N  N82  1  0.68986125  0.16965359  0.08972490  1  -0.857066  0  -0.114899  0.103572  0  3.750182  0
N  N83  1  0.18985641  0.08973372  0.16965457  1  -0.8568  0  -0.114966  0.103617  0  3.749987  0
N  N84  1  0.32586345  0.77978952  0.81088108  1  -0.674707  0  -0.224954  -0.265819  0  3.089064  0
N  N85  1  0.82587067  0.81088405  0.77979192  1  -0.674654  0  -0.22498  -0.265908  0  3.089007  0
N  N86  1  0.67414740  0.22020869  0.18911374  1  -0.674989  0  -0.2249  -0.265858  0  3.08905  0
N  N87  1  0.17414051  0.18912401  0.22020977  1  -0.674871  0  -0.224895  -0.265768  0  3.088699  0
N  N88  1  0.24999728  0.96378241  0.03621626  1  -1.231875  0  -0.318019  -0.419459  0  3.341389  0
N  N89  1  0.75000700  0.03622224  0.96377756  1  -1.232302  0  -0.317897  -0.41957  0  3.341237  0
O  O90  1  0.71652089  0.65187712  0.01152613  1  -1.088002  0  -0.297167  -0.455553  0  2.422374  0
O  O91  1  0.21652688  0.01153127  0.65187475  1  -1.087781  0  -0.297255  -0.455679  0  2.422381  0
O  O92  1  0.28347795  0.34812668  0.98846884  1  -1.087875  0  -0.297261  -0.455637  0  2.422373  0
O  O93  1  0.78347800  0.98847190  0.34813030  1  -1.087872  0  -0.29724  -0.455671  0  2.422442  0
O  O94  1  0.80628776  0.52600386  0.06186074  1  -1.087131  0  -0.302012  -0.461605  0  2.404637  0
O  O95  1  0.30629344  0.06186008  0.52599885  1  -1.087315  0  -0.301982  -0.461582  0  2.404558  0
O  O96  1  0.19370653  0.47400073  0.93813604  1  -1.087326  0  -0.301944  -0.461584  0  2.404505  0
O  O97  1  0.69371500  0.93813577  0.47400358  1  -1.087409  0  -0.30201  -0.461603  0  2.404528  0
O  O98  1  0.46210450  0.64669309  0.13096342  1  -1.093312  0  -0.304687  -0.464759  0  2.363453  0
O  O99  1  0.96209804  0.13096080  0.64669143  1  -1.093582  0  -0.304716  -0.464811  0  2.363498  0
O  O100  1  0.53790069  0.35330841  0.86903822  1  -1.093306  0  -0.304705  -0.464703  0  2.363498  0
O  O101  1  0.03789112  0.86903164  0.35331231  1  -1.093361  0  -0.304742  -0.464806  0  2.363241  0
O  O102  1  0.55207476  0.52079152  0.18168876  1  -1.08812  0  -0.307016  -0.472383  0  2.410706  0
O  O103  1  0.05208645  0.18169219  0.52079769  1  -1.08811  0  -0.30697  -0.472391  0  2.410731  0
O  O104  1  0.44791214  0.47920160  0.81830544  1  -1.087962  0  -0.306935  -0.472321  0  2.410669  0
O  O105  1  0.94791724  0.81830860  0.47921368  1  -1.08816  0  -0.307053  -0.472525  0  2.410686  0
