# generated using pymatgen
data_CdH12C10(SN3)2
_symmetry_space_group_name_H-M   'P 1'
_cell_length_a   6.88957883
_cell_length_b   10.03739720
_cell_length_c   10.03739058
_cell_angle_alpha   92.76908789
_cell_angle_beta   89.99959350
_cell_angle_gamma   90.00040667
_symmetry_Int_Tables_number   1
_chemical_formula_structural   CdH12C10(SN3)2
_chemical_formula_sum   'Cd2 H24 C20 S4 N12'
_cell_volume   693.30958841
_cell_formula_units_Z   2
loop_
 _symmetry_equiv_pos_site_id
 _symmetry_equiv_pos_as_xyz
  1  'x, y, z'
loop_
 _atom_site_type_symbol
 _atom_site_label
 _atom_site_symmetry_multiplicity
 _atom_site_fract_x
 _atom_site_fract_y
 _atom_site_fract_z
 _atom_site_occupancy
 _atom_site_hle17_bader_spin_density
 _atom_site_hle17_ddec_charge
 _atom_site_hle17_ddec_spin_density
 _atom_site_hle17_ddec_sum_bond_order
 _atom_site_hle17_magmom
 _atom_site_hse06_10hf_bader_spin_density
 _atom_site_hse06_10hf_ddec_charge
 _atom_site_hse06_10hf_ddec_spin_density
 _atom_site_hse06_10hf_ddec_sum_bond_order
 _atom_site_hse06_10hf_magmom
 _atom_site_hse06_bader_spin_density
 _atom_site_hse06_ddec_charge
 _atom_site_hse06_ddec_spin_density
 _atom_site_hse06_ddec_sum_bond_order
 _atom_site_hse06_magmom
 _atom_site_pbe_bader_spin_density
 _atom_site_pbe_cm5_charge
 _atom_site_pbe_ddec_charge
 _atom_site_pbe_ddec_spin_density
 _atom_site_pbe_ddec_sum_bond_order
 _atom_site_pbe_magmom
Cd  Cd0  1  0.43903629  0.15156654  0.84843281  1  0  1.04477  0  1.815054  0  0  0.857065  0  2.27228  0  0  0.902057  0  2.233648  0  0  0.775237  0.826488  0  2.298522  0
Cd  Cd1  1  0.93903341  0.84842878  0.15157200  1  0  1.04477  0  1.815054  0  0  0.857064  0  2.272281  0  0  0.902064  0  2.233624  0  0  0.775248  0.826477  0  2.298528  0
H  H2  1  0.80511636  0.52924756  0.17234164  1  0  0.113257  0  0.97901  0  0  0.119731  0  1.045873  0  0  0.122215  0  1.045127  0  0  0.114147  0.117961  0  1.046353  0
H  H3  1  0.30511403  0.47075818  0.82765144  1  0  0.113328  0  0.979047  0  0  0.119841  0  1.045844  0  0  0.122317  0  1.045106  0  0  0.114185  0.118071  0  1.046328  0
H  H4  1  0.30511404  0.17235007  0.52924508  1  0  0.113317  0  0.979049  0  0  0.11984  0  1.045844  0  0  0.122316  0  1.045107  0  0  0.114171  0.118071  0  1.046323  0
H  H5  1  0.80512071  0.82765763  0.47075408  1  0  0.113255  0  0.979023  0  0  0.11972  0  1.045904  0  0  0.122215  0  1.045147  0  0  0.114132  0.117953  0  1.046383  0
H  H6  1  0.81495104  0.36464601  0.94009269  1  0  0.090866  0  0.99955  0  0  0.095737  0  1.071039  0  0  0.097744  0  1.071004  0  0  0.100858  0.094007  0  1.07174  0
H  H7  1  0.31495110  0.63535678  0.05990117  1  0  0.09083  0  0.999611  0  0  0.095698  0  1.071103  0  0  0.097704  0  1.07107  0  0  0.100844  0.093965  0  1.071806  0
H  H8  1  0.31495109  0.94010049  0.36464506  1  0  0.090823  0  0.999566  0  0  0.095669  0  1.071092  0  0  0.097672  0  1.071065  0  0  0.100854  0.093938  0  1.071793  0
H  H9  1  0.81495250  0.05990623  0.63535798  1  0  0.090874  0  0.999573  0  0  0.095758  0  1.071042  0  0  0.097765  0  1.071006  0  0  0.100852  0.094027  0  1.07174  0
H  H10  1  0.12390725  0.31917861  0.07185541  1  0  0.11837  0  0.979314  0  0  0.134303  0  1.048358  0  0  0.135309  0  1.049961  0  0  0.089006  0.13328  0  1.047866  0
H  H11  1  0.62390332  0.68082025  0.92814615  1  0  0.118362  0  0.979376  0  0  0.134286  0  1.048411  0  0  0.135293  0  1.050014  0  0  0.088965  0.133263  0  1.047919  0
H  H12  1  0.62390478  0.07185367  0.31917964  1  0  0.118369  0  0.979382  0  0  0.134296  0  1.048411  0  0  0.135303  0  1.050014  0  0  0.088971  0.133273  0  1.047921  0
H  H13  1  0.12390724  0.92814421  0.68081887  1  0  0.118378  0  0.97932  0  0  0.13431  0  1.048362  0  0  0.135317  0  1.049966  0  0  0.088995  0.133284  0  1.047873  0
H  H14  1  0.18176631  0.33884641  0.24465909  1  0  0.12889  0  0.964089  0  0  0.144067  0  1.029253  0  0  0.146162  0  1.029046  0  0  0.091097  0.142328  0  1.029818  0
H  H15  1  0.68176251  0.66115073  0.75534209  1  0  0.128919  0  0.964073  0  0  0.144061  0  1.029254  0  0  0.146154  0  1.029053  0  0  0.091086  0.142319  0  1.029827  0
H  H16  1  0.68176252  0.24465763  0.33884907  1  0  0.128922  0  0.964073  0  0  0.144061  0  1.029258  0  0  0.146155  0  1.029054  0  0  0.091084  0.142321  0  1.029826  0
H  H17  1  0.18176630  0.75533952  0.66115012  1  0  0.128905  0  0.964063  0  0  0.144065  0  1.029236  0  0  0.146159  0  1.029032  0  0  0.091083  0.142321  0  1.029811  0
H  H18  1  0.22882836  0.18448729  0.15439119  1  0  0.137527  0  0.956898  0  0  0.155301  0  1.019077  0  0  0.156378  0  1.020586  0  0  0.096751  0.154367  0  1.01844  0
H  H19  1  0.72882812  0.81551206  0.84560988  1  0  0.13756  0  0.956852  0  0  0.155333  0  1.019013  0  0  0.156408  0  1.020525  0  0  0.096751  0.154402  0  1.018373  0
H  H20  1  0.72882959  0.15439021  0.18448890  1  0  0.137566  0  0.956867  0  0  0.155348  0  1.019006  0  0  0.156424  0  1.020517  0  0  0.096758  0.154416  0  1.018367  0
H  H21  1  0.22882835  0.84560814  0.81551212  1  0  0.137541  0  0.956859  0  0  0.155317  0  1.019026  0  0  0.156394  0  1.020535  0  0  0.096744  0.154387  0  1.018381  0
H  H22  1  0.47236518  0.47996289  0.27687310  1  0  0.275344  0  0.948214  0  0  0.252702  0  1.024551  0  0  0.260041  0  1.019622  0  0  0.287864  0.247855  0  1.027479  0
H  H23  1  0.97236316  0.52003861  0.72312391  1  0  0.275351  0  0.948236  0  0  0.252645  0  1.024649  0  0  0.259974  0  1.019729  0  0  0.287842  0.247797  0  1.027579  0
H  H24  1  0.97236172  0.27687720  0.47996196  1  0  0.275445  0  0.948102  0  0  0.252716  0  1.024546  0  0  0.260051  0  1.019621  0  0  0.287863  0.247866  0  1.027475  0
H  H25  1  0.47236663  0.72312729  0.52003522  1  0  0.275352  0  0.948217  0  0  0.25271  0  1.024564  0  0  0.260048  0  1.019635  0  0  0.287876  0.247864  0  1.027492  0
C  C26  1  0.47513782  0.91462456  0.08537466  1  0  0.303755  0  3.976388  0  0  0.285447  0  4.276428  0  0  0.306038  0  4.289513  0  0  0.156  0.271525  0  4.267216  0
C  C27  1  0.97513369  0.08536592  0.91463270  1  0  0.30358  0  3.976349  0  0  0.285271  0  4.276397  0  0  0.305865  0  4.289484  0  0  0.155779  0.271352  0  4.267183  0
C  C28  1  0.61948646  0.37174386  0.62825456  1  0  0.307787  0  4.013082  0  0  0.288711  0  4.314631  0  0  0.310599  0  4.327095  0  0  0.137568  0.273962  0  4.30537  0
C  C29  1  0.11949338  0.62825400  0.37174497  1  0  0.307825  0  4.012797  0  0  0.288759  0  4.314348  0  0  0.310647  0  4.326814  0  0  0.137627  0.274002  0  4.305095  0
C  C30  1  0.42500828  0.34202972  0.11495280  1  0  0.424839  0  3.702924  0  0  0.408723  0  3.957342  0  0  0.425404  0  3.971609  0  0  0.22163  0.397736  0  3.947454  0
C  C31  1  0.92500455  0.65796955  0.88504731  1  0  0.424942  0  3.703012  0  0  0.408745  0  3.957506  0  0  0.425416  0  3.971777  0  0  0.221646  0.397759  0  3.947615  0
C  C32  1  0.92500457  0.11495354  0.34203105  1  0  0.424909  0  3.703035  0  0  0.408722  0  3.957531  0  0  0.425397  0  3.971806  0  0  0.221619  0.397731  0  3.947648  0
C  C33  1  0.42500972  0.88504772  0.65796917  1  0  0.42494  0  3.702787  0  0  0.408753  0  3.957312  0  0  0.425432  0  3.97158  0  0  0.221646  0.39777  0  3.947419  0
C  C34  1  0.70021431  0.45921219  0.12909988  1  0  -0.012694  0  3.688449  0  0  -0.050089  0  3.951038  0  0  -0.048322  0  3.969316  0  0  -0.007007  -0.051083  0  3.939191  0
C  C35  1  0.20021516  0.54079007  0.87089253  1  0  -0.012806  0  3.688461  0  0  -0.050214  0  3.95104  0  0  -0.048454  0  3.96932  0  0  -0.006986  -0.051216  0  3.9392  0
C  C36  1  0.20021372  0.12910671  0.45921008  1  0  -0.012797  0  3.688538  0  0  -0.050196  0  3.951115  0  0  -0.048431  0  3.9694  0  0  -0.006966  -0.051195  0  3.939272  0
C  C37  1  0.70021721  0.87089850  0.54078945  1  0  -0.012705  0  3.688412  0  0  -0.050066  0  3.951007  0  0  -0.048314  0  3.969281  0  0  -0.006948  -0.051072  0  3.939169  0
C  C38  1  0.70300130  0.37735912  0.01551969  1  0  -0.000378  0  3.752544  0  0  -0.03171  0  4.014871  0  0  -0.029839  0  4.036099  0  0  -0.013061  -0.033018  0  4.000856  0
C  C39  1  0.20300181  0.62264314  0.98447668  1  0  -0.000284  0  3.752486  0  0  -0.031609  0  4.014796  0  0  -0.029738  0  4.036029  0  0  -0.013051  -0.03291  0  4.000778  0
C  C40  1  0.20300038  0.01552586  0.37735845  1  0  -0.000308  0  3.752575  0  0  -0.031626  0  4.014917  0  0  -0.029754  0  4.03615  0  0  -0.013099  -0.032938  0  4.000906  0
C  C41  1  0.70300419  0.98447936  0.62264307  1  0  -0.00036  0  3.752493  0  0  -0.031698  0  4.014775  0  0  -0.02983  0  4.036011  0  0  -0.013071  -0.033001  0  4.000755  0
C  C42  1  0.22893491  0.29341742  0.14871182  1  0  -0.406966  0  3.702028  0  0  -0.483292  0  3.933754  0  0  -0.48793  0  3.94037  0  0  -0.244267  -0.479861  0  3.929679  0
C  C43  1  0.72893059  0.70657892  0.85129208  1  0  -0.407075  0  3.70203  0  0  -0.483303  0  3.933724  0  0  -0.487946  0  3.94035  0  0  -0.244213  -0.479875  0  3.929652  0
C  C44  1  0.72892915  0.14870804  0.29342160  1  0  -0.407089  0  3.702035  0  0  -0.483314  0  3.933726  0  0  -0.487954  0  3.940348  0  0  -0.244213  -0.479886  0  3.929657  0
C  C45  1  0.22893635  0.85128932  0.70657937  1  0  -0.407035  0  3.701925  0  0  -0.483313  0  3.93366  0  0  -0.487954  0  3.94028  0  0  -0.244222  -0.479881  0  3.929586  0
S  S46  1  0.56089669  0.80947057  0.19052898  1  0  -0.340087  0  2.185724  0  0  -0.302248  0  2.525569  0  0  -0.317552  0  2.515728  0  0  -0.121983  -0.291784  0  2.53337  0
S  S47  1  0.06090472  0.19051898  0.80947936  1  0  -0.33991  0  2.185696  0  0  -0.302054  0  2.525513  0  0  -0.317362  0  2.51567  0  0  -0.121894  -0.291608  0  2.533342  0
S  S48  1  0.77360126  0.45682923  0.54317005  1  0  -0.367385  0  2.10551  0  0  -0.344196  0  2.408546  0  0  -0.358637  0  2.402946  0  0  -0.147328  -0.333243  0  2.410045  0
S  S49  1  0.27360642  0.54317035  0.45682783  1  0  -0.367303  0  2.105442  0  0  -0.344162  0  2.40848  0  0  -0.358603  0  2.402881  0  0  -0.147325  -0.333206  0  2.40998  0
N  N50  1  0.40912440  0.98963620  0.01036261  1  0  -0.521631  0  2.835178  0  0  -0.467293  0  3.111091  0  0  -0.486641  0  3.118687  0  0  -0.374229  -0.453694  0  3.105985  0
N  N51  1  0.90911291  0.01035597  0.98964317  1  0  -0.521615  0  2.835219  0  0  -0.46728  0  3.111157  0  0  -0.486632  0  3.118753  0  0  -0.374094  -0.453691  0  3.106069  0
N  N52  1  0.50379081  0.31124208  0.68875691  1  0  -0.569202  0  2.845985  0  0  -0.509449  0  3.117218  0  0  -0.529609  0  3.122185  0  0  -0.400709  -0.495715  0  3.113224  0
N  N53  1  0.00379898  0.68875624  0.31124322  1  0  -0.56931  0  2.845789  0  0  -0.509532  0  3.116987  0  0  -0.529696  0  3.121963  0  0  -0.400796  -0.495795  0  3.112995  0
N  N54  1  0.53199776  0.30455234  0.00797609  1  0  -0.464231  0  3.220355  0  0  -0.381826  0  3.488303  0  0  -0.405925  0  3.506439  0  0  -0.367378  -0.365737  0  3.47597  0
N  N55  1  0.03199460  0.69544811  0.99202202  1  0  -0.464293  0  3.220394  0  0  -0.381843  0  3.488342  0  0  -0.405945  0  3.506485  0  0  -0.367405  -0.365754  0  3.476005  0
N  N56  1  0.03199607  0.00797877  0.30455318  1  0  -0.464258  0  3.220432  0  0  -0.381787  0  3.488352  0  0  -0.405887  0  3.506491  0  0  -0.367379  -0.365697  0  3.476019  0
N  N57  1  0.53199775  0.99202266  0.69544896  1  0  -0.464354  0  3.220334  0  0  -0.381889  0  3.488278  0  0  -0.40599  0  3.506415  0  0  -0.367416  -0.365805  0  3.475946  0
N  N58  1  0.52432650  0.43558390  0.18931844  1  0  -0.333836  0  3.472101  0  0  -0.267692  0  3.693771  0  0  -0.284397  0  3.708501  0  0  -0.38191  -0.256613  0  3.683975  0
N  N59  1  0.02432386  0.56441752  0.81067876  1  0  -0.333849  0  3.472044  0  0  -0.26766  0  3.693821  0  0  -0.284311  0  3.708484  0  0  -0.381943  -0.256583  0  3.68403  0
N  N60  1  0.02432387  0.18932222  0.43558465  1  0  -0.3339  0  3.471937  0  0  -0.267729  0  3.693795  0  0  -0.284397  0  3.708469  0  0  -0.381935  -0.256647  0  3.684002  0
N  N61  1  0.52432794  0.81068118  0.56441564  1  0  -0.333807  0  3.472011  0  0  -0.267706  0  3.693806  0  0  -0.284387  0  3.708496  0  0  -0.381951  -0.256628  0  3.684013  0
