# generated using pymatgen
data_ZnH12C8S2N4(OF)6
_symmetry_space_group_name_H-M   'P 1'
_cell_length_a   9.19280142
_cell_length_b   9.60799207
_cell_length_c   11.02797797
_cell_angle_alpha   98.11006089
_cell_angle_beta   112.12392472
_cell_angle_gamma   92.85036057
_symmetry_Int_Tables_number   1
_chemical_formula_structural   ZnH12C8S2N4(OF)6
_chemical_formula_sum   'Zn2 H24 C16 S4 N8 O12 F12'
_cell_volume   887.66177019
_cell_formula_units_Z   2
loop_
 _symmetry_equiv_pos_site_id
 _symmetry_equiv_pos_as_xyz
  1  'x, y, z'
loop_
 _atom_site_type_symbol
 _atom_site_label
 _atom_site_symmetry_multiplicity
 _atom_site_fract_x
 _atom_site_fract_y
 _atom_site_fract_z
 _atom_site_occupancy
 _atom_site_hle17_bader_spin_density
 _atom_site_hle17_ddec_charge
 _atom_site_hle17_ddec_spin_density
 _atom_site_hle17_ddec_sum_bond_order
 _atom_site_hle17_magmom
 _atom_site_hse06_10hf_bader_spin_density
 _atom_site_hse06_10hf_ddec_charge
 _atom_site_hse06_10hf_ddec_spin_density
 _atom_site_hse06_10hf_ddec_sum_bond_order
 _atom_site_hse06_10hf_magmom
 _atom_site_hse06_bader_spin_density
 _atom_site_hse06_ddec_charge
 _atom_site_hse06_ddec_spin_density
 _atom_site_hse06_ddec_sum_bond_order
 _atom_site_hse06_magmom
 _atom_site_pbe_bader_spin_density
 _atom_site_pbe_cm5_charge
 _atom_site_pbe_ddec_charge
 _atom_site_pbe_ddec_spin_density
 _atom_site_pbe_ddec_sum_bond_order
 _atom_site_pbe_magmom
Zn  Zn0  1  0.50000087  0.49999922  0.50000042  1  0  1.258333  0  1.721504  0  0  1.10107  0  2.19101  0  0  1.143668  0  2.132957  0  0  0.761654  1.071016  0  2.231365  0
Zn  Zn1  1  0.49999387  0.99999881  0.49999676  1  0  1.250939  0  1.745542  0  0  1.094573  0  2.215444  0  0  1.136177  0  2.158011  0  0  0.767807  1.064938  0  2.256082  0
H  H2  1  0.13178021  0.88105031  0.43614293  1  0  0.1219  0  0.967263  0  0  0.139937  0  1.030841  0  0  0.141074  0  1.030922  0  0  0.108024  0.138996  0  1.031063  0
H  H3  1  0.86822160  0.11894917  0.56386169  1  0  0.121952  0  0.967204  0  0  0.139956  0  1.030812  0  0  0.141095  0  1.030893  0  0  0.108034  0.139012  0  1.031039  0
H  H4  1  0.93496622  0.84468370  0.42941009  1  0  0.113412  0  0.928522  0  0  0.133521  0  0.988638  0  0  0.1346  0  0.988397  0  0  0.107002  0.132657  0  0.988919  0
H  H5  1  0.06503585  0.15531789  0.57059488  1  0  0.113414  0  0.928561  0  0  0.133535  0  0.988664  0  0  0.134615  0  0.988422  0  0  0.107005  0.132673  0  0.988945  0
H  H6  1  0.97129970  0.82741759  0.27917821  1  0  0.104357  0  0.925157  0  0  0.122545  0  0.986809  0  0  0.123626  0  0.986055  0  0  0.101926  0.121722  0  0.987399  0
H  H7  1  0.02870459  0.17258294  0.72082734  1  0  0.104317  0  0.925119  0  0  0.122513  0  0.98677  0  0  0.123596  0  0.986014  0  0  0.10191  0.121693  0  0.987356  0
H  H8  1  0.81582525  0.13451835  0.15441277  1  0  0.104421  0  0.958565  0  0  0.118926  0  1.0287  0  0  0.120242  0  1.027641  0  0  0.094796  0.117914  0  1.02955  0
H  H9  1  0.18417545  0.86548115  0.84558786  1  0  0.104399  0  0.958592  0  0  0.118899  0  1.028729  0  0  0.12022  0  1.027668  0  0  0.094802  0.117888  0  1.029575  0
H  H10  1  0.63607404  0.06482454  0.01648463  1  0  0.113758  0  0.943101  0  0  0.128571  0  1.013392  0  0  0.129905  0  1.012862  0  0  0.104009  0.127753  0  1.013525  0
H  H11  1  0.36392780  0.93517494  0.98351818  1  0  0.113766  0  0.943172  0  0  0.128569  0  1.013463  0  0  0.129902  0  1.012936  0  0  0.104018  0.12775  0  1.013598  0
H  H12  1  0.71093172  0.97083388  0.15261826  1  0  0.120278  0  0.929617  0  0  0.14325  0  0.98624  0  0  0.144327  0  0.985812  0  0  0.113152  0.142432  0  0.986615  0
H  H13  1  0.28906896  0.02916561  0.84738327  1  0  0.120273  0  0.929641  0  0  0.143238  0  0.986263  0  0  0.144314  0  0.985836  0  0  0.113151  0.142423  0  0.986637  0
H  H14  1  0.85452270  0.56334739  0.21770143  1  0  0.100743  0  0.932181  0  0  0.114747  0  1.002657  0  0  0.116439  0  1.000718  0  0  0.098786  0.11339  0  1.004153  0
H  H15  1  0.14547717  0.43665526  0.78230206  1  0  0.100726  0  0.932236  0  0  0.114746  0  1.002686  0  0  0.116441  0  1.000748  0  0  0.098767  0.113391  0  1.00418  0
H  H16  1  0.81307116  0.58674546  0.36517161  1  0  0.116495  0  0.949018  0  0  0.132769  0  1.017292  0  0  0.133726  0  1.017663  0  0  0.104717  0.132015  0  1.017095  0
H  H17  1  0.18692753  0.41325719  0.63483150  1  0  0.116505  0  0.949062  0  0  0.132799  0  1.017301  0  0  0.133761  0  1.017673  0  0  0.104709  0.132045  0  1.017103  0
H  H18  1  0.93707917  0.45525356  0.34126382  1  0  0.12228  0  0.95372  0  0  0.142303  0  1.014003  0  0  0.143632  0  1.013605  0  0  0.110158  0.141276  0  1.01439  0
H  H19  1  0.06291704  0.54474802  0.65873835  1  0  0.122288  0  0.953636  0  0  0.142281  0  1.013945  0  0  0.14361  0  1.013549  0  0  0.110163  0.141254  0  1.014331  0
H  H20  1  0.48263629  0.32908486  0.20213956  1  0  0.124836  0  0.957598  0  0  0.13975  0  1.027855  0  0  0.141075  0  1.027242  0  0  0.106187  0.138661  0  1.028518  0
H  H21  1  0.51736716  0.67091782  0.79786146  1  0  0.124834  0  0.95764  0  0  0.139787  0  1.027845  0  0  0.141111  0  1.027238  0  0  0.106196  0.138699  0  1.02851  0
H  H22  1  0.47836599  0.26397782  0.03957698  1  0  0.114916  0  0.939251  0  0  0.132425  0  1.005175  0  0  0.133886  0  1.004044  0  0  0.104124  0.131224  0  1.006315  0
H  H23  1  0.52163862  0.73602486  0.96042532  1  0  0.114871  0  0.939261  0  0  0.132428  0  1.005146  0  0  0.133892  0  1.004013  0  0  0.104099  0.131222  0  1.006296  0
H  H24  1  0.65253799  0.36307123  0.16489565  1  0  0.102281  0  0.937894  0  0  0.12438  0  0.998613  0  0  0.124678  0  0.999207  0  0  0.103002  0.124055  0  0.99846  0
H  H25  1  0.34746427  0.63693144  0.83510589  1  0  0.102238  0  0.937783  0  0  0.124318  0  0.998545  0  0  0.124614  0  0.999142  0  0  0.102961  0.123992  0  0.998389  0
C  C26  1  0.18150762  0.62468668  0.44336803  1  0  0.493179  0  3.836369  0  0  0.440924  0  4.112236  0  0  0.465797  0  4.125649  0  0  0.339587  0.423867  0  4.103115  0
C  C27  1  0.81849173  0.37531174  0.55663475  1  0  0.49323  0  3.836269  0  0  0.440986  0  4.112152  0  0  0.465857  0  4.125562  0  0  0.339649  0.423928  0  4.103033  0
C  C28  1  0.60086676  0.11851536  0.29640924  1  0  0.501579  0  3.835922  0  0  0.448707  0  4.108777  0  0  0.473951  0  4.120986  0  0  0.342439  0.431554  0  4.099891  0
C  C29  1  0.39913433  0.88148730  0.70359192  1  0  0.501649  0  3.835998  0  0  0.448798  0  4.108836  0  0  0.474044  0  4.121039  0  0  0.342506  0.431645  0  4.09995  0
C  C30  1  0.01911679  0.81454463  0.38398883  1  0  -0.159158  0  3.599638  0  0  -0.258459  0  3.842351  0  0  -0.255294  0  3.85102  0  0  -0.127794  -0.260429  0  3.836486  0
C  C31  1  0.98088871  0.18545592  0.61601530  1  0  -0.159203  0  3.599526  0  0  -0.25848  0  3.842255  0  0  -0.25532  0  3.850924  0  0  -0.1278  -0.260454  0  3.836394  0
C  C32  1  0.69902950  0.07575403  0.12430999  1  0  -0.167623  0  3.610156  0  0  -0.272755  0  3.862444  0  0  -0.269115  0  3.870026  0  0  -0.132423  -0.274878  0  3.856966  0
C  C33  1  0.30097144  0.92424757  0.87569189  1  0  -0.167599  0  3.610179  0  0  -0.2727  0  3.862435  0  0  -0.269065  0  3.870021  0  0  -0.132411  -0.274825  0  3.85696  0
C  C34  1  0.90271479  0.56065407  0.32493357  1  0  -0.170917  0  3.605406  0  0  -0.271759  0  3.854222  0  0  -0.26908  0  3.863214  0  0  -0.131389  -0.273224  0  3.847999  0
C  C35  1  0.09728599  0.43934646  0.67506994  1  0  -0.170979  0  3.605383  0  0  -0.271803  0  3.854199  0  0  -0.269138  0  3.8632  0  0  -0.131366  -0.273265  0  3.847971  0
C  C36  1  0.55124112  0.28586769  0.14648186  1  0  -0.164011  0  3.597853  0  0  -0.26885  0  3.847933  0  0  -0.265238  0  3.856018  0  0  -0.132798  -0.27114  0  3.842701  0
C  C37  1  0.44876334  0.71413392  0.85352116  1  0  -0.163894  0  3.597706  0  0  -0.268797  0  3.847788  0  0  -0.265187  0  3.85587  0  0  -0.132723  -0.271087  0  3.842557  0
C  C38  1  0.27194051  0.61821575  0.11928513  1  0  0.596979  0  3.677441  0  0  0.524076  0  4.050306  0  0  0.552427  0  4.022916  0  0  0.289304  0.503436  0  4.070802  0
C  C39  1  0.72805638  0.38178162  0.88071491  1  0  0.596994  0  3.67753  0  0  0.524014  0  4.05052  0  0  0.552395  0  4.023072  0  0  0.289265  0.503361  0  4.071033  0
C  C40  1  0.15365150  0.12004274  0.17252829  1  0  0.603106  0  3.682153  0  0  0.528259  0  4.056875  0  0  0.557297  0  4.028731  0  0  0.292227  0.508291  0  4.075903  0
C  C41  1  0.84635018  0.87995467  0.82746787  1  0  0.603264  0  3.681588  0  0  0.528092  0  4.056916  0  0  0.557134  0  4.02877  0  0  0.292181  0.508129  0  4.075943  0
S  S42  1  0.45186111  0.71315391  0.26083166  1  0  1.162158  0  5.745097  0  0  1.058958  0  6.279428  0  0  1.10304  0  6.259376  0  0  0.503685  1.028397  0  6.292931  0
S  S43  1  0.54813814  0.28684347  0.73916824  1  0  1.162058  0  5.745045  0  0  1.058907  0  6.279345  0  0  1.102981  0  6.259291  0  0  0.503679  1.028342  0  6.292852  0
S  S44  1  0.22372680  0.21429895  0.34778096  1  0  1.167468  0  5.739214  0  0  1.059541  0  6.275151  0  0  1.104092  0  6.254402  0  0  0.510687  1.028999  0  6.288301  0
S  S45  1  0.77626938  0.78570162  0.65221473  1  0  1.167632  0  5.738787  0  0  1.059804  0  6.274725  0  0  1.10436  0  6.253965  0  0  0.510776  1.02926  0  6.287882  0
N  N46  1  0.30545688  0.58519087  0.49489856  1  0  -0.586471  0  2.908193  0  0  -0.529433  0  3.219  0  0  -0.553373  0  3.220964  0  0  -0.373474  -0.5131  0  3.217752  0
N  N47  1  0.69454365  0.41480756  0.50510370  1  0  -0.586504  0  2.908226  0  0  -0.529457  0  3.219046  0  0  -0.553395  0  3.221005  0  0  -0.373481  -0.513125  0  3.2178  0
N  N48  1  0.59775038  0.08721169  0.39449562  1  0  -0.587407  0  2.948695  0  0  -0.527563  0  3.258642  0  0  -0.551267  0  3.259366  0  0  -0.374559  -0.511265  0  3.258059  0
N  N49  1  0.40224707  0.91278992  0.60550332  1  0  -0.587449  0  2.948719  0  0  -0.527637  0  3.2587  0  0  -0.55134  0  3.25942  0  0  -0.374579  -0.511337  0  3.258118  0
N  N50  1  0.04220384  0.66561063  0.39160574  1  0  -0.104735  0  3.535565  0  0  -0.005039  0  3.771231  0  0  -0.023207  0  3.792151  0  0  -0.266281  0.007445  0  3.756527  0
N  N51  1  0.95779929  0.33438991  0.60839853  1  0  -0.10468  0  3.535468  0  0  -0.00503  0  3.771181  0  0  -0.023196  0  3.792105  0  0  -0.266326  0.007454  0  3.756477  0
N  N52  1  0.60699685  0.15342404  0.18904564  1  0  -0.111911  0  3.537426  0  0  -0.010089  0  3.771737  0  0  -0.02832  0  3.79209  0  0  -0.269579  0.002616  0  3.757141  0
N  N53  1  0.39300554  0.84657969  0.81095607  1  0  -0.111987  0  3.537439  0  0  -0.010189  0  3.771777  0  0  -0.028418  0  3.792123  0  0  -0.269682  0.002517  0  3.75718  0
O  O54  1  0.51972254  0.59985264  0.33402601  1  0  -0.645854  0  2.090737  0  0  -0.596827  0  2.377054  0  0  -0.617667  0  2.361277  0  0  -0.326232  -0.582103  0  2.387753  0
O  O55  1  0.48027465  0.40014686  0.66597168  1  0  -0.64584  0  2.090734  0  0  -0.596802  0  2.376997  0  0  -0.617645  0  2.361224  0  0  -0.326221  -0.582082  0  2.387703  0
O  O56  1  0.34904546  0.31833789  0.35258257  1  0  -0.648437  0  2.125912  0  0  -0.597782  0  2.414284  0  0  -0.619072  0  2.398928  0  0  -0.324025  -0.582725  0  2.424229  0
O  O57  1  0.65095459  0.68165632  0.64741628  1  0  -0.64846  0  2.125688  0  0  -0.597867  0  2.414147  0  0  -0.619153  0  2.398786  0  0  -0.324074  -0.58283  0  2.424141  0
O  O58  1  0.38405876  0.81540382  0.33047927  1  0  -0.640742  0  2.085017  0  0  -0.596653  0  2.367824  0  0  -0.61703  0  2.352731  0  0  -0.327763  -0.582171  0  2.377902  0
O  O59  1  0.61593822  0.18459358  0.66951537  1  0  -0.640751  0  2.08501  0  0  -0.596661  0  2.367793  0  0  -0.617036  0  2.3527  0  0  -0.327778  -0.582177  0  2.377867  0
O  O60  1  0.28121024  0.10330030  0.42731837  1  0  -0.640842  0  2.100206  0  0  -0.589659  0  2.385574  0  0  -0.610132  0  2.368413  0  0  -0.324189  -0.575178  0  2.396989  0
O  O61  1  0.71877898  0.89670129  0.57267792  1  0  -0.640942  0  2.100271  0  0  -0.589736  0  2.3856  0  0  -0.610214  0  2.36844  0  0  -0.32417  -0.575227  0  2.396955  0
O  O62  1  0.54712383  0.77147803  0.19706603  1  0  -0.585898  0  1.951783  0  0  -0.557962  0  2.194842  0  0  -0.576461  0  2.18415  0  0  -0.33094  -0.545212  0  2.202067  0
O  O63  1  0.45287534  0.22851831  0.80293099  1  0  -0.585827  0  1.951786  0  0  -0.557926  0  2.194856  0  0  -0.576423  0  2.184167  0  0  -0.330932  -0.54518  0  2.202085  0
O  O64  1  0.08453720  0.26907164  0.35894482  1  0  -0.57574  0  1.971522  0  0  -0.542915  0  2.213102  0  0  -0.561779  0  2.203214  0  0  -0.318889  -0.52975  0  2.219545  0
O  O65  1  0.91546054  0.73093109  0.64104439  1  0  -0.575808  0  1.971359  0  0  -0.542983  0  2.212895  0  0  -0.561858  0  2.203025  0  0  -0.318923  -0.529823  0  2.219344  0
F  F66  1  0.16630992  0.56052064  0.16194970  1  0  -0.221383  0  1.201799  0  0  -0.177925  0  1.362832  0  0  -0.186888  0  1.346711  0  0  -0.091493  -0.171583  0  1.374283  0
F  F67  1  0.83368866  0.43948096  0.83805233  1  0  -0.221399  0  1.20175  0  0  -0.177913  0  1.362801  0  0  -0.186883  0  1.346668  0  0  -0.091507  -0.171576  0  1.374258  0
F  F68  1  0.27124530  0.05955130  0.14685573  1  0  -0.22864  0  1.255594  0  0  -0.177709  0  1.425089  0  0  -0.192544  0  1.415114  0  0  -0.080505  -0.170174  0  1.434933  0
F  F69  1  0.72875355  0.94044290  0.85314454  1  0  -0.228707  0  1.255421  0  0  -0.177664  0  1.42501  0  0  -0.192512  0  1.415045  0  0  -0.080496  -0.170132  0  1.434853  0
F  F70  1  0.19938396  0.70837424  0.03744157  1  0  -0.219818  0  1.215215  0  0  -0.188084  0  1.396054  0  0  -0.197348  0  1.379252  0  0  -0.092699  -0.18143  0  1.407743  0
F  F71  1  0.80061348  0.29162737  0.96255738  1  0  -0.219793  0  1.215392  0  0  -0.188047  0  1.396268  0  0  -0.197319  0  1.379455  0  0  -0.092666  -0.181398  0  1.407963  0
F  F72  1  0.03590864  0.01594227  0.14858574  1  0  -0.232688  0  1.225741  0  0  -0.189689  0  1.397056  0  0  -0.199092  0  1.38066  0  0  -0.08757  -0.182654  0  1.408127  0
F  F73  1  0.96409266  0.98406149  0.85141019  1  0  -0.232684  0  1.225535  0  0  -0.189621  0  1.396979  0  0  -0.199022  0  1.380582  0  0  -0.087544  -0.182589  0  1.408049  0
F  F74  1  0.31303144  0.51224184  0.04686770  1  0  -0.232612  0  1.189709  0  0  -0.186578  0  1.351787  0  0  -0.19733  0  1.337227  0  0  -0.089137  -0.177951  0  1.360962  0
F  F75  1  0.68696198  0.48775553  0.95312851  1  0  -0.232619  0  1.189772  0  0  -0.186569  0  1.351884  0  0  -0.19733  0  1.337315  0  0  -0.089104  -0.1779  0  1.361025  0
F  F76  1  0.09832795  0.21168557  0.08765734  1  0  -0.213882  0  1.204324  0  0  -0.185656  0  1.380015  0  0  -0.193468  0  1.362203  0  0  -0.096816  -0.179692  0  1.392083  0
F  F77  1  0.90167823  0.78830976  0.91233547  1  0  -0.213936  0  1.204252  0  0  -0.185631  0  1.380079  0  0  -0.19344  0  1.362266  0  0  -0.096804  -0.179668  0  1.392146  0
