# generated using pymatgen
data_HoH45C40S3N8O17
_symmetry_space_group_name_H-M   'P 1'
_cell_length_a   9.35655635
_cell_length_b   16.59990285
_cell_length_c   17.47215791
_cell_angle_alpha   76.55810586
_cell_angle_beta   73.51015640
_cell_angle_gamma   86.29611712
_symmetry_Int_Tables_number   1
_chemical_formula_structural   HoH45C40S3N8O17
_chemical_formula_sum   'Ho2 H90 C80 S6 N16 O34'
_cell_volume   2530.83849836
_cell_formula_units_Z   2
loop_
 _symmetry_equiv_pos_site_id
 _symmetry_equiv_pos_as_xyz
  1  'x, y, z'
loop_
 _atom_site_type_symbol
 _atom_site_label
 _atom_site_symmetry_multiplicity
 _atom_site_fract_x
 _atom_site_fract_y
 _atom_site_fract_z
 _atom_site_occupancy
 _atom_site_pbe_bader_charge
 _atom_site_pbe_bader_spin_density
 _atom_site_pbe_cm5_charge
 _atom_site_pbe_ddec_charge
 _atom_site_pbe_ddec_spin_density
 _atom_site_pbe_ddec_sum_bond_order
 _atom_site_pbe_magmom
Ho  Ho0  1  0.73670818  0.50111314  0.00266509  1  2.210148  0  1.528546  2.135883  0  2.118728  0
Ho  Ho1  1  0.26328791  0.49888727  0.99733616  1  2.210169  0  1.528544  2.135808  0  2.118865  0
H  H2  1  0.83962731  0.31108516  0.02826680  1  0.634757  0  0.286375  0.341786  0  1.017372  0
H  H3  1  0.16037213  0.68891530  0.97173222  1  0.634762  0  0.286403  0.341822  0  1.017326  0
H  H4  1  0.78291342  0.34205020  0.11242770  1  0.624758  0  0.324856  0.40644  0  0.877386  0
H  H5  1  0.21708490  0.65795149  0.88757124  1  0.624746  0  0.324881  0.406463  0  0.877341  0
H  H6  1  0.81000066  0.67006415  0.01005208  1  0.666061  0  0.303521  0.407067  0  0.91559  0
H  H7  1  0.18999875  0.32993814  0.98994771  1  0.666067  0  0.303551  0.407088  0  0.915561  0
H  H8  1  0.96478804  0.63561440  0.96083624  1  0.665871  0  0.298726  0.407033  0  0.921389  0
H  H9  1  0.03521025  0.36438915  0.03916231  1  0.665872  0  0.298724  0.407034  0  0.921386  0
H  H10  1  0.19345415  0.63728865  0.53378646  1  0.482283  0  0.328384  0.295474  0  0.910983  0
H  H11  1  0.80656184  0.36272236  0.46621133  1  0.482737  0  0.328346  0.295449  0  0.911019  0
H  H12  1  0.63147288  0.42817150  0.21076678  1  0.504356  0  0.301306  0.282338  0  0.994222  0
H  H13  1  0.36852314  0.57183070  0.78923868  1  0.504344  0  0.301296  0.282376  0  0.994172  0
H  H14  1  0.77009937  0.88365486  0.41524522  1  0.457703  0  0.328584  0.285339  0  0.91497  0
H  H15  1  0.22990466  0.11633822  0.58475236  1  0.457664  0  0.328567  0.285396  0  0.914812  0
H  H16  1  0.14998022  0.57253993  0.16159909  1  0.533831  0  0.308364  0.290654  0  1.013122  0
H  H17  1  0.85001705  0.42745554  0.83840301  1  0.533823  0  0.308348  0.290624  0  1.013121  0
H  H18  1  0.34705637  0.07533982  0.24992129  1  0.457173  0  0.328027  0.286003  0  0.917978  0
H  H19  1  0.65294974  0.92466317  0.75007449  1  0.457116  0  0.328019  0.286007  0  0.917939  0
H  H20  1  0.46964917  0.64336098  0.22467631  1  0.507897  0  0.316545  0.300859  0  0.957768  0
H  H21  1  0.53034918  0.35663506  0.77532837  1  0.507978  0  0.31657  0.300859  0  0.957786  0
H  H22  1  0.20269388  0.84224572  0.48455630  1  0.076272  0  0.096844  0.152353  0  1.015717  0
H  H23  1  0.79731998  0.15775911  0.51544194  1  0.076394  0  0.096932  0.152417  0  1.01575  0
H  H24  1  0.13021717  0.75475097  0.56628114  1  0.051338  0  0.099425  0.15246  0  0.986534  0
H  H25  1  0.86980891  0.24525639  0.43371532  1  0.051184  0  0.099418  0.152365  0  0.98671  0
H  H26  1  0.29496248  0.80532796  0.56246232  1  0.098668  0  0.104411  0.166693  0  0.985005  0
H  H27  1  0.70505466  0.19468123  0.43753395  1  0.099007  0  0.104351  0.166595  0  0.985176  0
H  H28  1  0.17485392  0.50580377  0.52516112  1  0.112122  0  0.105094  0.123144  0  1.032137  0
H  H29  1  0.82515192  0.49421397  0.47483965  1  0.112203  0  0.105099  0.12317  0  1.032112  0
H  H30  1  0.28855146  0.38491618  0.46832870  1  0.091147  0  0.105695  0.109186  0  1.011126  0
H  H31  1  0.71143442  0.61509274  0.53167918  1  0.09084  0  0.105652  0.10915  0  1.011267  0
H  H32  1  0.65208775  0.53959059  0.30538109  1  0.088895  0  0.10264  0.095199  0  1.05725  0
H  H33  1  0.34791732  0.46040745  0.69461472  1  0.089041  0  0.102661  0.095321  0  1.05717  0
H  H34  1  0.54228412  0.65934254  0.36237406  1  0.144597  0  0.103258  0.1186  0  1.060581  0
H  H35  1  0.45773425  0.34065988  0.63762114  1  0.144626  0  0.103261  0.118619  0  1.060701  0
H  H36  1  0.33982193  0.33912198  0.26601400  1  0.079464  0  0.114834  0.116269  0  0.968822  0
H  H37  1  0.66017302  0.66088029  0.73398646  1  0.079506  0  0.114833  0.116263  0  0.968862  0
H  H38  1  0.34443113  0.44693809  0.26033147  1  0.118443  0  0.107721  0.11023  0  1.027982  0
H  H39  1  0.65556940  0.55306423  0.73966700  1  0.118552  0  0.107735  0.110274  0  1.027933  0
H  H40  1  0.88565125  0.07681929  0.38425529  1  0.108508  0  0.106109  0.167974  0  0.990888  0
H  H41  1  0.11434048  0.92317621  0.61574363  1  0.108426  0  0.106131  0.167953  0  0.990932  0
H  H42  1  0.73570914  0.00617360  0.43853652  1  0.002795  0  0.095762  0.138472  0  0.997867  0
H  H43  1  0.26429270  0.99381766  0.56145890  1  0.002669  0  0.095766  0.138462  0  0.99776  0
H  H44  1  0.87183200  0.02313651  0.48692455  1  0.083889  0  0.102105  0.163061  0  1.011268  0
H  H45  1  0.12815748  0.97685892  0.51307815  1  0.084173  0  0.102072  0.163005  0  1.011286  0
H  H46  1  0.72067108  0.75477293  0.40836688  1  0.13082  0  0.110417  0.128674  0  1.010236  0
H  H47  1  0.27933396  0.24522505  0.59163353  1  0.130654  0  0.11039  0.128724  0  1.010236  0
H  H48  1  0.81033413  0.62298633  0.36984234  1  0.100675  0  0.112022  0.114998  0  1.004085  0
H  H49  1  0.18966982  0.37701105  0.63015722  1  0.100621  0  0.112024  0.115027  0  1.004051  0
H  H50  1  0.26115020  0.71641726  0.28306586  1  0.081979  0  0.104837  0.105179  0  1.037388  0
H  H51  1  0.73885045  0.28357827  0.71693228  1  0.081906  0  0.10487  0.105221  0  1.037302  0
H  H52  1  0.17195450  0.84885231  0.32255106  1  0.136262  0  0.10307  0.119984  0  1.051987  0
H  H53  1  0.82806056  0.15114698  0.67744586  1  0.135874  0  0.103094  0.120009  0  1.052032  0
H  H54  1  0.87693346  0.48153617  0.26687894  1  0.120477  0  0.117229  0.130871  0  0.998699  0
H  H55  1  0.12306039  0.51846486  0.73312195  1  0.120515  0  0.117264  0.130903  0  0.998691  0
H  H56  1  0.83892261  0.58691024  0.22501199  1  0.101779  0  0.105419  0.100876  0  1.035088  0
H  H57  1  0.16107574  0.41308960  0.77498675  1  0.101799  0  0.105429  0.100882  0  1.03511  0
H  H58  1  0.31102057  0.26856921  0.12758302  1  0.134946  0  0.115863  0.188535  0  0.980093  0
H  H59  1  0.68898335  0.73143067  0.87241373  1  0.134967  0  0.115849  0.188533  0  0.980108  0
H  H60  1  0.27275473  0.20639762  0.23013179  1  0.032437  0  0.102067  0.14831  0  0.98774  0
H  H61  1  0.72725142  0.79360098  0.76986833  1  0.032358  0  0.102111  0.148378  0  0.987803  0
H  H62  1  0.45285884  0.25015497  0.17874247  1  0.079487  0  0.110576  0.174707  0  0.974728  0
H  H63  1  0.54715177  0.74984495  0.82125327  1  0.079423  0  0.110559  0.174695  0  0.974725  0
H  H64  1  0.39009758  0.94308951  0.30913338  1  0.086931  0  0.109972  0.12109  0  0.997248  0
H  H65  1  0.60989628  0.05691152  0.69086750  1  0.086945  0  0.109967  0.121097  0  0.997331  0
H  H66  1  0.49751006  0.80616291  0.29657900  1  0.151801  0  0.108951  0.123701  0  1.053747  0
H  H67  1  0.50247937  0.19383752  0.70341981  1  0.151757  0  0.108959  0.123766  0  1.053721  0
H  H68  1  0.64221074  0.89091998  0.03378565  1  0.125597  0  0.106233  0.11042  0  1.043318  0
H  H69  1  0.35777871  0.10907858  0.96621469  1  0.138042  0  0.106195  0.110378  0  1.043208  0
H  H70  1  0.54026067  0.03187004  0.04692093  1  0.126337  0  0.10559  0.118372  0  1.062086  0
H  H71  1  0.45972881  0.96812668  0.95307807  1  0.126267  0  0.105583  0.118363  0  1.062089  0
H  H72  1  0.29809412  0.70673897  0.14269023  1  0.098207  0  0.103368  0.090636  0  1.023557  0
H  H73  1  0.70189979  0.29325769  0.85731327  1  0.098126  0  0.103349  0.090571  0  1.023562  0
H  H74  1  0.45574874  0.75044960  0.06242591  1  0.136406  0  0.121496  0.128842  0  0.99607  0
H  H75  1  0.54424511  0.24955015  0.93757753  1  0.13629  0  0.121478  0.128801  0  0.996033  0
H  H76  1  0.24466046  0.85671642  0.91706338  1  0.107102  0  0.112436  0.080755  0  1.000987  0
H  H77  1  0.75534675  0.14328464  0.08293778  1  0.107121  0  0.11243  0.080758  0  1.001007  0
H  H78  1  0.17626033  0.97620178  0.98294787  1  0.085103  0  0.102367  0.106611  0  1.041664  0
H  H79  1  0.82374580  0.02379680  0.01705397  1  0.085193  0  0.102385  0.106622  0  1.041772  0
H  H80  1  0.93648659  0.80439242  0.20223160  1  0.105595  0  0.103377  0.112612  0  1.041692  0
H  H81  1  0.06349835  0.19561175  0.79776424  1  0.105403  0  0.103363  0.11259  0  1.041624  0
H  H82  1  0.01281568  0.69325536  0.12651446  1  0.095925  0  0.117083  0.086117  0  1.018805  0
H  H83  1  0.98717483  0.30674820  0.87348182  1  0.095701  0  0.117053  0.086059  0  1.018867  0
H  H84  1  0.10300508  0.16274093  0.14453453  1  0.093891  0  0.113787  0.087209  0  0.988696  0
H  H85  1  0.89699104  0.83725508  0.85547163  1  0.09379  0  0.113796  0.087279  0  0.988678  0
H  H86  1  0.20348071  0.04367059  0.08151891  1  0.093385  0  0.10485  0.112177  0  1.02326  0
H  H87  1  0.79651097  0.95632481  0.91848633  1  0.093262  0  0.10486  0.112229  0  1.023085  0
H  H88  1  0.78171868  0.92009902  0.20902991  1  0.089828  0  0.100259  0.10708  0  1.04659  0
H  H89  1  0.21827081  0.07989771  0.79096852  1  0.089957  0  0.100245  0.107055  0  1.046719  0
H  H90  1  0.70285713  0.04235751  0.26998401  1  0.064719  0  0.105449  0.070136  0  0.987959  0
H  H91  1  0.29713567  0.95764046  0.73001480  1  0.064773  0  0.105459  0.070116  0  0.988  0
C  C92  1  0.23196058  0.78655132  0.52517290  1  -0.122676  0  -0.242726  -0.530314  0  3.918575  0
C  C93  1  0.76805994  0.21345542  0.47482280  1  -0.123017  0  -0.242754  -0.530168  0  3.918872  0
C  C94  1  0.33291932  0.73403880  0.47253937  1  1.399273  0  0.244434  0.592059  0  4.064653  0
C  C95  1  0.66709564  0.26596856  0.52745474  1  1.399376  0  0.244591  0.59229  0  4.064418  0
C  C96  1  0.35246722  0.59010762  0.44861747  1  0.27651  0  0.106876  0.265368  0  4.001334  0
C  C97  1  0.64754773  0.40989464  0.55138743  1  0.277048  0  0.107005  0.265369  0  4.001224  0
C  C98  1  0.28074253  0.51266016  0.47742699  1  0.063314  0  -0.091438  -0.179296  0  3.932603  0
C  C99  1  0.71926902  0.48734516  0.52257950  1  0.06306  0  -0.091485  -0.179468  0  3.932629  0
C  C100  1  0.34355359  0.44504612  0.44567367  1  -0.006659  0  -0.0804  -0.058749  0  3.99612  0
C  C101  1  0.65644242  0.55495924  0.55432713  1  -0.006627  0  -0.080389  -0.058582  0  3.996087  0
C  C102  1  0.47893107  0.45438291  0.38455378  1  -0.145826  0  -0.031853  -0.120975  0  4.007811  0
C  C103  1  0.52107605  0.54561989  0.61545448  1  -0.145477  0  -0.031794  -0.121083  0  4.007892  0
C  C104  1  0.54834084  0.53182699  0.35404962  1  -0.057367  0  -0.088018  -0.070758  0  4.012327  0
C  C105  1  0.45166964  0.46817521  0.64595883  1  -0.05779  0  -0.08809  -0.070884  0  4.012266  0
C  C106  1  0.48674428  0.59967299  0.38550918  1  -0.044316  0  -0.099582  -0.185577  0  3.947492  0
C  C107  1  0.51326065  0.40033240  0.61449143  1  -0.044446  0  -0.099614  -0.185537  0  3.947544  0
C  C108  1  0.40657084  0.39553480  0.23586738  1  0.25879  0  -0.071302  -0.162776  0  3.898873  0
C  C109  1  0.59342745  0.60446747  0.76413373  1  0.25866  0  -0.071324  -0.162894  0  3.898993  0
C  C110  1  0.42110271  0.41580788  0.14436494  1  1.610774  0  0.234494  0.687465  0  4.126557  0
C  C111  1  0.57890234  0.58419013  0.85563375  1  1.610856  0  0.234604  0.687659  0  4.126134  0
C  C112  1  0.85454549  0.01768830  0.42863461  1  -0.0973  0  -0.239901  -0.531429  0  3.915219  0
C  C113  1  0.14544955  0.98230780  0.57136598  1  -0.097358  0  -0.239927  -0.531349  0  3.915107  0
C  C114  1  0.95590464  0.95106287  0.39700572  1  1.366108  0  0.241343  0.585908  0  4.07252  0
C  C115  1  0.04409040  0.04893512  0.60299218  1  1.365775  0  0.241428  0.58593  0  4.072497  0
C  C116  1  0.94151654  0.81022167  0.36901585  1  0.27725  0  0.100827  0.251556  0  4.024847  0
C  C117  1  0.05849191  0.18977518  0.63097799  1  0.277119  0  0.100793  0.251492  0  4.02497  0
C  C118  1  0.83972609  0.74645988  0.38109647  1  -0.037049  0  -0.088466  -0.182262  0  3.924982  0
C  C119  1  0.16028122  0.25353691  0.61890099  1  -0.036699  0  -0.088378  -0.182277  0  3.92507  0
C  C120  1  0.88984592  0.67231784  0.35883618  1  -0.019679  0  -0.077526  -0.05086  0  3.974133  0
C  C121  1  0.11015914  0.32767700  0.64116774  1  -0.019288  0  -0.077558  -0.050885  0  3.973942  0
C  C122  1  0.04199387  0.66132903  0.32345342  1  -0.195164  0  -0.029246  -0.121099  0  4.000709  0
C  C123  1  0.95800566  0.33866713  0.67654361  1  -0.194988  0  -0.029261  -0.121086  0  4.000568  0
C  C124  1  0.14280766  0.72508829  0.31006754  1  0.059614  0  -0.085482  -0.074375  0  4.013169  0
C  C125  1  0.85719521  0.27490853  0.68992772  1  0.059174  0  -0.085459  -0.074362  0  4.013242  0
C  C126  1  0.09375591  0.79944805  0.33253635  1  -0.031976  0  -0.09712  -0.176698  0  3.937327  0
C  C127  1  0.90625359  0.20054933  0.66746352  1  -0.031434  0  -0.097209  -0.176807  0  3.937664  0
C  C128  1  0.91871283  0.53563216  0.21682101  1  0.263374  0  -0.064891  -0.161682  0  3.901355  0
C  C129  1  0.08128553  0.46436643  0.78317856  1  0.263295  0  -0.064968  -0.161773  0  3.901509  0
C  C130  1  0.91586090  0.51402668  0.13726408  1  1.629359  0  0.244145  0.697451  0  4.086416  0
C  C131  1  0.08413857  0.48597255  0.86273462  1  1.629343  0  0.244134  0.697383  0  4.08646  0
C  C132  1  0.35633464  0.22223775  0.17039576  1  -0.105507  0  -0.236698  -0.5342  0  3.893313  0
C  C133  1  0.64367035  0.77776460  0.82960146  1  -0.105395  0  -0.236766  -0.534329  0  3.893377  0
C  C134  1  0.41189254  0.14844262  0.13429026  1  1.360576  0  0.242765  0.573852  0  4.093014  0
C  C135  1  0.58810466  0.85155780  0.86571083  1  1.360289  0  0.242743  0.573829  0  4.092928  0
C  C136  1  0.45971906  0.99688720  0.17851760  1  0.342425  0  0.104015  0.253681  0  4.032865  0
C  C137  1  0.54028151  0.00311327  0.82148010  1  0.342187  0  0.103968  0.253648  0  4.033149  0
C  C138  1  0.44736319  0.93229627  0.24857352  1  0.006593  0  -0.091135  -0.181663  0  3.951952  0
C  C139  1  0.55262846  0.06770478  0.75142540  1  0.00678  0  -0.091147  -0.181679  0  3.952232  0
C  C140  1  0.50655409  0.85475353  0.24135700  1  -0.098365  0  -0.085517  -0.079253  0  3.991855  0
C  C141  1  0.49344201  0.14524817  0.75864055  1  -0.098424  0  -0.085497  -0.079367  0  3.991952  0
C  C142  1  0.57850273  0.84097093  0.16349858  1  -0.191045  0  -0.030692  -0.118471  0  4.025712  0
C  C143  1  0.42149784  0.15902827  0.83650226  1  -0.191024  0  -0.030646  -0.118316  0  4.025546  0
C  C144  1  0.58932746  0.90389843  0.09366455  1  -0.014781  0  -0.084177  -0.075259  0  4.00927  0
C  C145  1  0.41066091  0.09609766  0.90633532  1  -0.027147  0  -0.084124  -0.075199  0  4.009027  0
C  C146  1  0.53056993  0.98195726  0.10067857  1  -0.029925  0  -0.100098  -0.188887  0  3.948731  0
C  C147  1  0.46942513  0.01804011  0.89931889  1  -0.029834  0  -0.100104  -0.188879  0  3.948771  0
C  C148  1  0.41531564  0.69602010  0.11253507  1  0.266535  0  -0.062733  -0.147736  0  3.902149  0
C  C149  1  0.58467824  0.30397843  0.88746747  1  0.266799  0  -0.062712  -0.147647  0  3.902051  0
C  C150  1  0.42877708  0.62185135  0.07299064  1  1.617364  0  0.23977  0.696244  0  4.070748  0
C  C151  1  0.57122012  0.37814972  0.92700859  1  1.618585  0  0.239805  0.696225  0  4.070768  0
C  C152  1  0.17727529  0.84748471  0.98050618  1  0.52804  0  0.045732  0.100761  0  3.971946  0
C  C153  1  0.82272640  0.15251389  0.01949346  1  0.528028  0  0.045648  0.100688  0  3.972006  0
C  C154  1  0.13959078  0.91424047  0.01792269  1  -0.084655  0  -0.086427  -0.176854  0  3.947056  0
C  C155  1  0.86041536  0.08575811  0.98207857  1  -0.084822  0  -0.086384  -0.176876  0  3.947209  0
C  C156  1  0.05029074  0.90108398  0.09918270  1  -0.023776  0  0.009356  0.103559  0  3.975864  0
C  C157  1  0.94970313  0.09891708  0.90081646  1  -0.023777  0  0.009292  0.103542  0  3.975832  0
C  C158  1  0.00533803  0.81955522  0.13907370  1  0.018287  0  -0.085247  -0.177501  0  3.944856  0
C  C159  1  0.99465252  0.18044522  0.86092436  1  0.01845  0  -0.085177  -0.177361  0  3.944866  0
C  C160  1  0.04818026  0.75673195  0.09665905  1  0.465662  0  0.046486  0.104337  0  3.957825  0
C  C161  1  0.95181698  0.24326917  0.90333615  1  0.465833  0  0.046418  0.104236  0  3.957957  0
C  C162  1  0.03552356  0.10708372  0.15882598  1  0.502098  0  0.038936  0.090114  0  4.0035  0
C  C163  1  0.96447704  0.89291238  0.84117549  1  0.520665  0  0.038837  0.089864  0  4.003744  0
C  C164  1  0.09093205  0.04085267  0.12248860  1  -0.04456  0  -0.085449  -0.173078  0  3.933654  0
C  C165  1  0.90906298  0.95914403  0.87751301  1  -0.063349  0  -0.085403  -0.172943  0  3.933417  0
C  C166  1  0.00097384  0.97097633  0.13956012  1  -0.067473  0  0.007617  0.101602  0  3.980733  0
C  C167  1  0.99902229  0.02902289  0.86043851  1  -0.067699  0  0.007656  0.101543  0  3.980685  0
C  C168  1  0.85858737  0.97162408  0.19430774  1  0.038483  0  -0.088657  -0.179432  0  3.948651  0
C  C169  1  0.14140428  0.02837699  0.80569003  1  0.038514  0  -0.088689  -0.179498  0  3.948963  0
C  C170  1  0.81414983  0.04062248  0.22792635  1  0.43135  0  0.032421  0.078969  0  4.041287  0
C  C171  1  0.18584848  0.95937792  0.77207571  1  0.431369  0  0.032484  0.079099  0  4.04133  0
S  S172  1  0.56482231  0.36890285  0.34421400  1  2.908781  0  0.54844  1.084902  0  5.962159  0
S  S173  1  0.43516480  0.63109931  0.65579224  1  2.908623  0  0.548421  1.084962  0  5.962148  0
S  S174  1  0.10828115  0.56543000  0.29771612  1  2.963641  0  0.563612  1.091367  0  5.971476  0
S  S175  1  0.89171501  0.43456546  0.70228615  1  2.963155  0  0.563582  1.09127  0  5.971226  0
S  S176  1  0.64812485  0.74103629  0.15448763  1  3.016497  0  0.56687  1.088213  0  5.981106  0
S  S177  1  0.35186793  0.25896037  0.84551604  1  3.016707  0  0.566812  1.088069  0  5.981572  0
N  N178  1  0.28418537  0.65456911  0.48513361  1  -1.257812  0  -0.394203  -0.388074  0  3.552446  0
N  N179  1  0.71582845  0.34543819  0.51486470  1  -1.258315  0  -0.394256  -0.388121  0  3.552596  0
N  N180  1  0.55428441  0.38452650  0.24989378  1  -1.312481  0  -0.467436  -0.474672  0  3.448228  0
N  N181  1  0.44571163  0.61547573  0.75010939  1  -1.312567  0  -0.467419  -0.474694  0  3.448208  0
N  N182  1  0.88305573  0.88278807  0.39429558  1  -1.24878  0  -0.39494  -0.387239  0  3.549221  0
N  N183  1  0.11694827  0.11720622  0.60570346  1  -1.248506  0  -0.39496  -0.387287  0  3.549013  0
N  N184  1  0.06622446  0.55882525  0.21609860  1  -1.404728  0  -0.461612  -0.470831  0  3.545159  0
N  N185  1  0.93377280  0.44117209  0.78390197  1  -1.404159  0  -0.461541  -0.470688  0  3.54507  0
N  N186  1  0.40178173  0.07411285  0.19095575  1  -1.244327  0  -0.397933  -0.397925  0  3.570634  0
N  N187  1  0.59822327  0.92588952  0.80904032  1  -1.243824  0  -0.397917  -0.397949  0  3.570484  0
N  N188  1  0.50363331  0.68520662  0.17011889  1  -1.393254  0  -0.460783  -0.462926  0  3.565138  0
N  N189  1  0.49635049  0.31479368  0.82988766  1  -1.393496  0  -0.460806  -0.462881  0  3.565285  0
N  N190  1  0.13227187  0.76961990  0.01853544  1  -1.238597  0  -0.3019  -0.228697  0  3.377585  0
N  N191  1  0.86772759  0.23037994  0.98146371  1  -1.238458  0  -0.301805  -0.228562  0  3.377409  0
N  N192  1  0.89932608  0.10804052  0.21119823  1  -1.202036  0  -0.336119  -0.290188  0  3.3133  0
N  N193  1  0.10067780  0.89195801  0.78880625  1  -1.201576  0  -0.336091  -0.290116  0  3.313347  0
O  O194  1  0.84411050  0.35871362  0.05591912  1  -1.252987  0  -0.581137  -0.791658  0  2.166516  0
O  O195  1  0.15589119  0.64128560  0.94408040  1  -1.252972  0  -0.581177  -0.791688  0  2.166456  0
O  O196  1  0.85437551  0.63118775  0.97505787  1  -1.314404  0  -0.648556  -0.861515  0  2.076089  0
O  O197  1  0.14562167  0.36881580  0.02494027  1  -1.31444  0  -0.648588  -0.861535  0  2.076071  0
O  O198  1  0.45026217  0.76250911  0.42136582  1  -1.170205  0  -0.304093  -0.512349  0  2.132514  0
O  O199  1  0.54975612  0.23749888  0.57862881  1  -1.170126  0  -0.30418  -0.51253  0  2.132322  0
O  O200  1  0.72313733  0.37135738  0.33661095  1  -1.304593  0  -0.324557  -0.550909  0  2.176571  0
O  O201  1  0.27684874  0.62863792  0.66339973  1  -1.304486  0  -0.324513  -0.55092  0  2.176428  0
O  O202  1  0.47785365  0.29584215  0.39157606  1  -1.321127  0  -0.335428  -0.552216  0  2.126386  0
O  O203  1  0.52212788  0.70416124  0.60842962  1  -1.321144  0  -0.335448  -0.552241  0  2.126348  0
O  O204  1  0.55225244  0.42105652  0.09617606  1  -1.210923  0  -0.421886  -0.714853  0  2.407912  0
O  O205  1  0.44775272  0.57893408  0.90382301  1  -1.210948  0  -0.42199  -0.715024  0  2.407773  0
O  O206  1  0.30222200  0.42713289  0.12296474  1  -1.185736  0  -0.384952  -0.649879  0  2.279008  0
O  O207  1  0.69778413  0.57286632  0.87703582  1  -1.185862  0  -0.384993  -0.649927  0  2.278895  0
O  O208  1  0.09349795  0.95814420  0.37642364  1  -1.136058  0  -0.308684  -0.51731  0  2.08122  0
O  O209  1  0.90649595  0.04185692  0.62357149  1  -1.136186  0  -0.308682  -0.517306  0  2.081302  0
O  O210  1  0.26971635  0.57019433  0.27485952  1  -1.285373  0  -0.304891  -0.534677  0  2.269355  0
O  O211  1  0.73028317  0.42980117  0.72514052  1  -1.285533  0  -0.304861  -0.5346  0  2.269327  0
O  O212  1  0.02882936  0.50096158  0.36485879  1  -1.3207  0  -0.317643  -0.534994  0  2.153431  0
O  O213  1  0.97117347  0.49903517  0.63514106  1  -1.320675  0  -0.317651  -0.535014  0  2.15324  0
O  O214  1  0.78835928  0.49855258  0.13125213  1  -1.204816  0  -0.374527  -0.663418  0  2.263638  0
O  O215  1  0.21164129  0.50144728  0.86874570  1  -1.204769  0  -0.374505  -0.663334  0  2.263599  0
O  O216  1  0.03586735  0.51487006  0.08130774  1  -1.215084  0  -0.403674  -0.662195  0  2.361877  0
O  O217  1  0.96413430  0.48513162  0.91869241  1  -1.215071  0  -0.403667  -0.662197  0  2.361837  0
O  O218  1  0.46738354  0.15450196  0.05997411  1  -1.147532  0  -0.279237  -0.477918  0  2.151193  0
O  O219  1  0.53260710  0.84549357  0.94002210  1  -1.147672  0  -0.279169  -0.477796  0  2.151329  0
O  O220  1  0.73825748  0.74976165  0.07028328  1  -1.328507  0  -0.299761  -0.532831  0  2.229291  0
O  O221  1  0.26173426  0.25023197  0.92971775  1  -1.328645  0  -0.299716  -0.532769  0  2.229699  0
O  O222  1  0.71248033  0.70672273  0.22140999  1  -1.326988  0  -0.304532  -0.535564  0  2.241291  0
O  O223  1  0.28752133  0.29327833  0.77859029  1  -1.326998  0  -0.304551  -0.535565  0  2.241254  0
O  O224  1  0.55723078  0.59308778  0.04828282  1  -1.211059  0  -0.395468  -0.668092  0  2.346359  0
O  O225  1  0.44277086  0.40691389  0.95171791  1  -1.211098  0  -0.395511  -0.668083  0  2.346442  0
O  O226  1  0.30799369  0.59587078  0.06731289  1  -1.195123  0  -0.383229  -0.66764  0  2.366027  0
O  O227  1  0.69200580  0.40412723  0.93268492  1  -1.196253  0  -0.383262  -0.667668  0  2.366101  0
