# generated using pymatgen
data_KH24AuC14S2(NO3)2
_symmetry_space_group_name_H-M   'P 1'
_cell_length_a   7.20750427
_cell_length_b   8.01703481
_cell_length_c   10.26569713
_cell_angle_alpha   75.11526789
_cell_angle_beta   70.44204101
_cell_angle_gamma   72.37502425
_symmetry_Int_Tables_number   1
_chemical_formula_structural   KH24AuC14S2(NO3)2
_chemical_formula_sum   'K1 H24 Au1 C14 S2 N2 O6'
_cell_volume   524.67029674
_cell_formula_units_Z   1
loop_
 _symmetry_equiv_pos_site_id
 _symmetry_equiv_pos_as_xyz
  1  'x, y, z'
loop_
 _atom_site_type_symbol
 _atom_site_label
 _atom_site_symmetry_multiplicity
 _atom_site_fract_x
 _atom_site_fract_y
 _atom_site_fract_z
 _atom_site_occupancy
 _atom_site_hle17_bader_spin_density
 _atom_site_hle17_ddec_charge
 _atom_site_hle17_ddec_spin_density
 _atom_site_hle17_ddec_sum_bond_order
 _atom_site_hle17_magmom
 _atom_site_hse06_10hf_bader_spin_density
 _atom_site_hse06_10hf_ddec_charge
 _atom_site_hse06_10hf_ddec_spin_density
 _atom_site_hse06_10hf_ddec_sum_bond_order
 _atom_site_hse06_10hf_magmom
 _atom_site_hse06_bader_spin_density
 _atom_site_hse06_ddec_charge
 _atom_site_hse06_ddec_spin_density
 _atom_site_hse06_ddec_sum_bond_order
 _atom_site_hse06_magmom
 _atom_site_pbe_bader_spin_density
 _atom_site_pbe_cm5_charge
 _atom_site_pbe_ddec_charge
 _atom_site_pbe_ddec_spin_density
 _atom_site_pbe_ddec_sum_bond_order
 _atom_site_pbe_magmom
K  K0  1  0.00001997  0.99998588  0.99999575  1  0  0.893705  0  0.523045  0  0  0.814336  0  0.734049  0  0  0.832711  0  0.709675  0  0  0.837427  0.800701  0  0.751533  0
H  H1  1  0.80353520  0.22697267  0.58717770  1  0  0.031599  0  0.978922  0  0  0.037113  0  1.065223  0  0  0.038336  0  1.062661  0  0  0.077701  0.036157  0  1.067117  0
H  H2  1  0.19646674  0.77302269  0.41282284  1  0  0.03158  0  0.978954  0  0  0.037078  0  1.065262  0  0  0.038299  0  1.0627  0  0  0.077674  0.036123  0  1.067154  0
H  H3  1  0.04350571  0.09732342  0.61341611  1  0  0.059133  0  0.928447  0  0  0.071106  0  0.995053  0  0  0.07163  0  0.99521  0  0  0.098672  0.070712  0  0.994925  0
H  H4  1  0.95649702  0.90267459  0.38658275  1  0  0.059173  0  0.92836  0  0  0.071069  0  0.995037  0  0  0.07159  0  0.995194  0  0  0.098638  0.070676  0  0.994907  0
H  H5  1  0.96936702  0.43335268  0.60353675  1  0  0.038124  0  0.957973  0  0  0.049633  0  1.034301  0  0  0.049728  0  1.034107  0  0  0.087464  0.049351  0  1.034794  0
H  H6  1  0.03063683  0.56664665  0.39645963  1  0  0.038115  0  0.957989  0  0  0.049644  0  1.034312  0  0  0.049737  0  1.034124  0  0  0.087476  0.049363  0  1.034805  0
H  H7  1  0.78143565  0.40664435  0.76765599  1  0  0.051749  0  0.918395  0  0  0.066357  0  0.984436  0  0  0.067173  0  0.983326  0  0  0.099523  0.065608  0  0.985416  0
H  H8  1  0.21856490  0.59335633  0.23234187  1  0  0.05172  0  0.918458  0  0  0.066341  0  0.984504  0  0  0.067171  0  0.983381  0  0  0.099512  0.065593  0  0.985486  0
H  H9  1  0.97530838  0.49442455  0.87753017  1  0  0.061595  0  0.94889  0  0  0.074827  0  1.014186  0  0  0.075624  0  1.013918  0  0  0.104808  0.074176  0  1.014573  0
H  H10  1  0.02469104  0.50557483  0.12246725  1  0  0.061623  0  0.948975  0  0  0.074838  0  1.01422  0  0  0.075635  0  1.013952  0  0  0.104804  0.074188  0  1.014606  0
H  H11  1  0.16812444  0.51905431  0.71532704  1  0  0.033796  0  0.97417  0  0  0.043698  0  1.05548  0  0  0.044307  0  1.053481  0  0  0.078242  0.043289  0  1.056932  0
H  H12  1  0.83187750  0.48094105  0.28467448  1  0  0.033827  0  0.974154  0  0  0.043678  0  1.055476  0  0  0.044287  0  1.053478  0  0  0.078229  0.043272  0  1.056928  0
H  H13  1  0.41683519  0.27317760  0.82267977  1  0  0.059718  0  0.933873  0  0  0.070182  0  1.004884  0  0  0.071829  0  1.002853  0  0  0.097542  0.068884  0  1.006565  0
H  H14  1  0.58316144  0.72680985  0.17732553  1  0  0.059758  0  0.933782  0  0  0.070167  0  1.004861  0  0  0.071826  0  1.002817  0  0  0.097532  0.06887  0  1.006545  0
H  H15  1  0.31427855  0.46541723  0.90589550  1  0  0.05621  0  0.929898  0  0  0.069834  0  0.996667  0  0  0.070041  0  0.996361  0  0  0.10013  0.069735  0  0.996858  0
H  H16  1  0.68572565  0.53458078  0.09410106  1  0  0.056167  0  0.929911  0  0  0.069795  0  0.996682  0  0  0.070002  0  0.99638  0  0  0.100099  0.069699  0  0.996874  0
H  H17  1  0.35470150  0.30393876  0.12974242  1  0  0.045768  0  0.9384  0  0  0.058453  0  1.009392  0  0  0.058534  0  1.009018  0  0  0.096811  0.058294  0  1.009863  0
H  H18  1  0.64529874  0.69606321  0.87026111  1  0  0.045752  0  0.938395  0  0  0.05846  0  1.009337  0  0  0.058538  0  1.008962  0  0  0.09681  0.058298  0  1.00981  0
H  H19  1  0.47832713  0.10899410  0.05419242  1  0  0.061493  0  0.92961  0  0  0.07375  0  0.996271  0  0  0.074937  0  0.994976  0  0  0.106816  0.072851  0  0.997464  0
H  H20  1  0.52167421  0.89100924  0.94580377  1  0  0.061521  0  0.929603  0  0  0.073766  0  0.99625  0  0  0.074952  0  0.994954  0  0  0.106808  0.072868  0  0.997444  0
H  H21  1  0.67898031  0.95393697  0.68505301  1  0  0.049184  0  0.953784  0  0  0.058729  0  1.027127  0  0  0.058464  0  1.028314  0  0  0.090909  0.058771  0  1.026553  0
H  H22  1  0.32102833  0.04606096  0.31494642  1  0  0.04918  0  0.953744  0  0  0.058742  0  1.027038  0  0  0.058476  0  1.028225  0  0  0.090908  0.058787  0  1.026458  0
H  H23  1  0.92343838  0.83985487  0.71051489  1  0  0.052161  0  0.924282  0  0  0.067194  0  0.988894  0  0  0.067262  0  0.989005  0  0  0.098526  0.067076  0  0.988867  0
H  H24  1  0.07656619  0.16014175  0.28949063  1  0  0.052161  0  0.924365  0  0  0.06719  0  0.988953  0  0  0.067257  0  0.989063  0  0  0.098521  0.06703  0  0.988968  0
Au  Au25  1  0.49999032  0.50001039  0.49999881  1  0  0.112762  0  2.150264  0  0  0.06133  0  2.642093  0  0  0.077324  0  2.610228  0  0  0.264343  0.050453  0  2.664287  0
C  C26  1  0.60039435  0.21670906  0.32004406  1  0  0.223357  0  3.961182  0  0  0.217842  0  4.260551  0  0  0.23329  0  4.276899  0  0  0.136113  0.20715  0  4.249674  0
C  C27  1  0.39957918  0.78330508  0.67996921  1  0  0.22337  0  3.962008  0  0  0.217854  0  4.261359  0  0  0.2333  0  4.277702  0  0  0.136108  0.207163  0  4.250484  0
C  C28  1  0.89501917  0.17974747  0.66301544  1  0  0.054425  0  3.682736  0  0  -0.002487  0  3.952979  0  0  0.003451  0  3.958999  0  0  -0.080919  -0.006423  0  3.948641  0
C  C29  1  0.10498173  0.82025188  0.33698358  1  0  0.054444  0  3.682638  0  0  -0.002387  0  3.952871  0  0  0.00355  0  3.958885  0  0  -0.08082  -0.006322  0  3.948529  0
C  C30  1  0.92515083  0.33776921  0.70045665  1  0  0.056628  0  3.690409  0  0  -0.005517  0  3.965987  0  0  0.000784  0  3.972481  0  0  -0.080269  -0.00969  0  3.961341  0
C  C31  1  0.07485519  0.66222743  0.29954268  1  0  0.056738  0  3.690342  0  0  -0.00546  0  3.965997  0  0  0.000831  0  3.972489  0  0  -0.080252  -0.009633  0  3.961356  0
C  C32  1  0.11576115  0.42283409  0.81013909  1  0  0.055899  0  3.666363  0  0  -0.001661  0  3.935291  0  0  0.004421  0  3.941504  0  0  -0.080316  -0.005694  0  3.930771  0
C  C33  1  0.88424635  0.57716254  0.18985989  1  0  0.055652  0  3.666629  0  0  -0.001705  0  3.935287  0  0  0.004368  0  3.941522  0  0  -0.080348  -0.005739  0  3.930779  0
C  C34  1  0.27720892  0.35142179  0.88644970  1  0  0.053851  0  3.662109  0  0  -0.006461  0  3.936716  0  0  -0.000277  0  3.942208  0  0  -0.077645  -0.010799  0  3.932969  0
C  C35  1  0.72278755  0.64857760  0.11355133  1  0  0.053914  0  3.66205  0  0  -0.006408  0  3.936671  0  0  -0.000232  0  3.942166  0  0  -0.077598  -0.010752  0  3.932933  0
C  C36  1  0.32865636  0.18742755  0.10578849  1  0  0.056251  0  3.67373  0  0  -0.004613  0  3.949939  0  0  0.001589  0  3.95572  0  0  -0.073829  -0.00899  0  3.946067  0
C  C37  1  0.67134273  0.81257314  0.89421168  1  0  0.056177  0  3.673686  0  0  -0.004598  0  3.949837  0  0  0.001612  0  3.955609  0  0  -0.073792  -0.008981  0  3.945977  0
C  C38  1  0.77194902  0.91932907  0.75889060  1  0  0.057789  0  3.660073  0  0  0.000115  0  3.929714  0  0  0.006245  0  3.936447  0  0  -0.076662  -0.004012  0  3.925108  0
C  C39  1  0.22805259  0.08066759  0.24111464  1  0  0.057733  0  3.660122  0  0  0.000112  0  3.929676  0  0  0.00624  0  3.936406  0  0  -0.076674  -0.003981  0  3.925075  0
S  S40  1  0.44109504  0.24171957  0.47823948  1  0  -0.18918  0  2.549962  0  0  -0.155303  0  2.941507  0  0  -0.170124  0  2.93313  0  0  -0.117747  -0.145219  0  2.947455  0
S  S41  1  0.55888454  0.75830522  0.52175273  1  0  -0.189158  0  2.549599  0  0  -0.155244  0  2.94105  0  0  -0.170064  0  2.932671  0  0  -0.11771  -0.145162  0  2.946997  0
N  N42  1  0.70839989  0.19178280  0.20821212  1  0  -0.478043  0  2.646006  0  0  -0.447665  0  2.880567  0  0  -0.460531  0  2.890159  0  0  -0.408368  -0.43914  0  2.874455  0
N  N43  1  0.29159611  0.80821269  0.79177908  1  0  -0.478022  0  2.647304  0  0  -0.447659  0  2.88189  0  0  -0.460526  0  2.891476  0  0  -0.408419  -0.439138  0  2.875787  0
O  O44  1  0.79278939  0.07738492  0.78747423  1  0  -0.332767  0  2.26084  0  0  -0.260173  0  2.510348  0  0  -0.276393  0  2.51227  0  0  -0.271997  -0.248712  0  2.508725  0
O  O45  1  0.20721595  0.92261437  0.21252473  1  0  -0.332808  0  2.260876  0  0  -0.260209  0  2.510323  0  0  -0.276417  0  2.512237  0  0  -0.272045  -0.248744  0  2.508689  0
O  O46  1  0.07972923  0.27919586  0.77109754  1  0  -0.325563  0  2.275403  0  0  -0.250539  0  2.522969  0  0  -0.267014  0  2.525736  0  0  -0.275703  -0.238567  0  2.520328  0
O  O47  1  0.92026873  0.72080351  0.22890412  1  0  -0.325531  0  2.275472  0  0  -0.250566  0  2.52302  0  0  -0.267042  0  2.525793  0  0  -0.275712  -0.238593  0  2.52038  0
O  O48  1  0.19871803  0.24299898  0.01608124  1  0  -0.336395  0  2.298752  0  0  -0.262284  0  2.552565  0  0  -0.278359  0  2.554427  0  0  -0.280649  -0.25042  0  2.550646  0
O  O49  1  0.80128074  0.75700300  0.98392556  1  0  -0.336339  0  2.298627  0  0  -0.262296  0  2.552452  0  0  -0.278371  0  2.554317  0  0  -0.280674  -0.250428  0  2.550537  0
