# generated using pymatgen
data_Cu3H18C10N6O5
_symmetry_space_group_name_H-M   'P 1'
_cell_length_a   11.16039779
_cell_length_b   14.13445920
_cell_length_c   14.13465505
_cell_angle_alpha   113.31726474
_cell_angle_beta   105.23158764
_cell_angle_gamma   105.23130928
_symmetry_Int_Tables_number   1
_chemical_formula_structural   Cu3H18C10N6O5
_chemical_formula_sum   'Cu9 H54 C30 N18 O15'
_cell_volume   1798.51965869
_cell_formula_units_Z   3
loop_
 _symmetry_equiv_pos_site_id
 _symmetry_equiv_pos_as_xyz
  1  'x, y, z'
loop_
 _atom_site_type_symbol
 _atom_site_label
 _atom_site_symmetry_multiplicity
 _atom_site_fract_x
 _atom_site_fract_y
 _atom_site_fract_z
 _atom_site_occupancy
 _atom_site_pbe_bader_charge
 _atom_site_pbe_bader_spin_density
 _atom_site_pbe_cm5_charge
 _atom_site_pbe_ddec_charge
 _atom_site_pbe_ddec_spin_density
 _atom_site_pbe_ddec_sum_bond_order
 _atom_site_pbe_magmom
Cu  Cu0  1  0.58848282  0.37999306  0.49380379  1  0.965558  0.464835  0.675948  0.709817  0.613321  2.470276  0.465
Cu  Cu1  1  0.20828337  0.11372966  0.62013860  1  0.966722  0.463653  0.67596  0.709856  0.611668  2.470938  0.464
Cu  Cu2  1  0.09435656  0.50624754  0.88625372  1  0.967277  0.466604  0.676295  0.710169  0.615486  2.469936  0.466
Cu  Cu3  1  0.09434741  0.88624241  0.50623810  1  0.967393  0.466638  0.676346  0.710223  0.615533  2.469791  0.467
Cu  Cu4  1  0.58848141  0.49379979  0.37998594  1  0.965629  0.464793  0.675965  0.709774  0.613265  2.470424  0.465
Cu  Cu5  1  0.20828093  0.62014558  0.11373515  1  0.966916  0.463707  0.676007  0.709902  0.611726  2.470962  0.464
Cu  Cu6  1  0.29174173  0.38166313  0.38166456  1  1.029221  -0.458403  0.700394  0.742492  -0.585334  2.307478  -0.458
Cu  Cu7  1  0.90933509  0.00000176  0.61752476  1  1.017401  -0.453011  0.697958  0.729834  -0.578368  2.312133  -0.453
Cu  Cu8  1  0.90932902  0.61750592  0.00000129  1  1.017358  -0.452901  0.697869  0.729338  -0.578227  2.312571  -0.453
H  H9  1  0.12881768  0.15012595  0.21571442  1  0.610056  0.000364  0.314159  0.387157  0.000349  0.905122  0.0
H  H10  1  0.04355615  0.24836846  0.39535298  1  0.095276  2e-06  0.10543  0.168614  8e-06  0.986787  0.0
H  H11  1  0.05221059  0.26370090  0.52799301  1  0.06225  0.000171  0.098503  0.148406  7.5e-05  1.018245  0.0
H  H12  1  0.00626787  0.12838590  0.41662871  1  0.144619  -0.000126  0.101705  0.16496  -0.000132  1.002133  0.0
H  H13  1  0.57017700  0.27620908  0.71880792  1  0.039868  -0.000316  0.10102  0.151467  -0.000167  0.983654  0.0
H  H14  1  0.59908155  0.21679484  0.59479447  1  0.034169  -5.9e-05  0.098402  0.140787  -6.2e-05  1.017504  0.0
H  H15  1  0.47265912  0.12942339  0.61638356  1  0.123398  0.00163  0.103536  0.181982  0.001717  0.999852  0.0
H  H16  1  0.24311576  0.62421577  0.69900751  1  0.013301  -0.001151  0.094343  0.142087  -0.000534  1.000895  0.0
H  H17  1  0.98135928  0.06532130  0.84528848  1  0.60546  0.000439  0.309299  0.380963  0.000447  0.916155  0.0
H  H18  1  0.79519353  0.14687498  0.75236499  1  0.096407  1.2e-05  0.105282  0.168704  1.4e-05  0.98623  0.0
H  H19  1  0.78806237  0.26379534  0.73632768  1  0.04484  0.000145  0.098942  0.149093  6.2e-05  1.0186  0.0
H  H20  1  0.87732390  0.28824286  0.87194436  1  0.097656  -0.000137  0.10201  0.166366  -0.000134  1.003211  0.0
H  H21  1  0.29353723  0.44221229  0.72350359  1  0.071109  -0.000348  0.100971  0.151487  -0.00018  0.982914  0.0
H  H22  1  0.38150950  0.37739397  0.78284925  1  0.048335  -2.8e-05  0.098983  0.141766  -4.7e-05  1.018413  0.0
H  H23  1  0.34241211  0.48636250  0.87026108  1  0.138158  0.001658  0.103314  0.18195  0.001742  0.999935  0.0
H  H24  1  0.61840922  0.07461626  0.37523372  1  0.050919  -0.001127  0.094166  0.141725  -0.000536  1.000826  0.0
H  H25  1  0.91479261  0.78072451  0.93438206  1  0.607712  0.000419  0.310107  0.383066  0.000422  0.913459  0.0
H  H26  1  0.64818161  0.60540811  0.85314058  1  0.092893  4e-06  0.105218  0.167797  1.1e-05  0.986917  0.0
H  H27  1  0.52441349  0.47247625  0.73643912  1  0.056905  0.000149  0.098494  0.148829  6.5e-05  1.017394  0.0
H  H28  1  0.58897667  0.58349455  0.71165144  1  0.101356  -0.000139  0.102224  0.166003  -0.000136  1.002642  0.0
H  H29  1  0.85160191  0.28133377  0.55790367  1  0.073777  -0.000341  0.101071  0.150834  -0.000176  0.983803  0.0
H  H30  1  0.00423488  0.40536297  0.62242108  1  0.016738  -5.2e-05  0.098548  0.140278  -5.9e-05  1.01772  0.0
H  H31  1  0.85626665  0.38385057  0.51354022  1  0.125573  0.001656  0.103269  0.181523  0.001745  1.000252  0.0
H  H32  1  0.54401675  0.30075713  0.92508627  1  0.040361  -0.00115  0.094826  0.142312  -0.000542  1.000835  0.0
H  H33  1  0.91476954  0.93438554  0.78085218  1  0.607418  0.000416  0.310514  0.383498  0.00042  0.912799  0.0
H  H34  1  0.64818306  0.85313505  0.60539745  1  0.092928  4e-06  0.105179  0.167755  1.1e-05  0.986955  0.0
H  H35  1  0.52440639  0.73643116  0.47247378  1  0.056999  0.00015  0.098512  0.148799  6.6e-05  1.017389  0.0
H  H36  1  0.58897987  0.71165426  0.58349289  1  0.101361  -0.000139  0.102202  0.165993  -0.000136  1.002704  0.0
H  H37  1  0.85158214  0.55789286  0.28131757  1  0.073578  -0.000341  0.101072  0.150843  -0.000175  0.983837  0.0
H  H38  1  0.00420974  0.62239803  0.40533494  1  0.016285  -5.2e-05  0.098564  0.140281  -5.9e-05  1.017876  0.0
H  H39  1  0.85624663  0.51352453  0.38382936  1  0.125403  0.001656  0.103295  0.181497  0.001745  1.000328  0.0
H  H40  1  0.54401394  0.92509732  0.30077760  1  0.040693  -0.00115  0.094797  0.142216  -0.000542  1.000755  0.0
H  H41  1  0.12885243  0.21573821  0.15014704  1  0.609878  0.000364  0.314204  0.387172  0.000349  0.905191  0.0
H  H42  1  0.04354558  0.39535608  0.24837381  1  0.094834  2e-06  0.105409  0.168559  8e-06  0.986793  0.0
H  H43  1  0.05222979  0.52800640  0.26371340  1  0.062399  0.000171  0.098506  0.148438  7.5e-05  1.018258  0.0
H  H44  1  0.00626324  0.41664212  0.12839604  1  0.144766  -0.000126  0.101686  0.16498  -0.000132  1.002177  0.0
H  H45  1  0.57017125  0.71879710  0.27620456  1  0.040036  -0.000316  0.101065  0.151505  -0.000167  0.983675  0.0
H  H46  1  0.59908051  0.59478429  0.21678742  1  0.033971  -5.9e-05  0.098393  0.140704  -6.2e-05  1.017434  0.0
H  H47  1  0.47265351  0.61637963  0.12942385  1  0.123296  0.00163  0.103515  0.18195  0.001717  0.99998  0.0
H  H48  1  0.24311942  0.69903537  0.62420269  1  0.013366  -0.001152  0.094304  0.142103  -0.000534  1.000711  0.0
H  H49  1  0.98134466  0.84521028  0.06531397  1  0.573697  0.000466  0.309015  0.380754  0.000448  0.916542  0.0
H  H50  1  0.79517754  0.75236863  0.14686680  1  0.096369  1.1e-05  0.105205  0.168534  1.4e-05  0.986191  0.0
H  H51  1  0.78805106  0.73632239  0.26378582  1  0.044763  0.000144  0.098926  0.149053  6.2e-05  1.018646  0.0
H  H52  1  0.87731971  0.87194451  0.28823965  1  0.098407  -0.000137  0.102017  0.166313  -0.000134  1.003197  0.0
H  H53  1  0.29351657  0.72348852  0.44219955  1  0.071265  -0.000348  0.10094  0.151449  -0.00018  0.982964  0.0
H  H54  1  0.38149423  0.78284108  0.37739048  1  0.048313  -2.8e-05  0.098882  0.141623  -4.7e-05  1.018515  0.0
H  H55  1  0.34239267  0.87025050  0.48635774  1  0.138345  0.001659  0.103269  0.18183  0.001743  0.999985  0.001
H  H56  1  0.61841066  0.37520651  0.07460276  1  0.05062  -0.001127  0.094238  0.141802  -0.000535  1.00085  0.0
H  H57  1  0.43879163  0.28363868  0.28364777  1  0.568748  0.001643  0.30079  0.372635  0.001248  0.921027  0.0
H  H58  1  0.09537022  0.57314000  0.57312024  1  0.060666  -0.000159  0.09346  0.152994  -0.000137  1.002263  0.0
H  H59  1  0.15450812  0.99960368  0.71624413  1  0.56754  0.001591  0.300362  0.372106  0.001296  0.92006  0.0
H  H60  1  0.52155815  0.99992332  0.42645135  1  0.081749  -0.000163  0.093658  0.152866  -0.000145  0.999345  0.0
H  H61  1  0.15451289  0.71625936  0.99961609  1  0.56735  0.001591  0.300325  0.37213  0.001297  0.919962  0.0
H  H62  1  0.52155708  0.42642832  0.99991355  1  0.082276  -0.000162  0.093606  0.152891  -0.000145  0.999368  0.0
C  C63  1  0.07209356  0.21841072  0.45472137  1  -0.110774  0.00049  -0.236488  -0.478258  0.000254  3.914523  0.0
C  C64  1  0.21835923  0.23971407  0.49116365  1  0.987258  0.001477  0.218491  0.395137  0.001623  3.990246  0.001
C  C65  1  0.41366112  0.23819868  0.56604043  1  0.994177  -0.00335  0.218188  0.399234  -0.002034  3.990245  -0.002
C  C66  1  0.52042438  0.21401398  0.62766030  1  -0.023372  0.003788  -0.23428  -0.479616  0.00241  3.921265  0.003
C  C67  1  0.85336042  0.23615899  0.78199707  1  -0.02585  0.00051  -0.236925  -0.480751  0.000257  3.916394  0.0
C  C68  1  0.97828181  0.25132694  0.76060804  1  0.960292  0.001393  0.218503  0.396446  0.001554  3.990631  0.001
C  C69  1  0.17484977  0.32747178  0.76161189  1  0.999563  -0.003517  0.21943  0.401818  -0.002147  3.989102  -0.003
C  C70  1  0.30573794  0.41312284  0.78566327  1  -0.081665  0.003985  -0.234668  -0.481185  0.002533  3.920946  0.003
C  C71  1  0.61717192  0.54573621  0.76389510  1  -0.050684  0.000491  -0.236001  -0.477859  0.000246  3.913735  0.0
C  C72  1  0.72699789  0.50924603  0.74872582  1  0.9561  0.001434  0.218919  0.395334  0.001566  3.98832  0.001
C  C73  1  0.84754406  0.43413308  0.67254887  1  1.012436  -0.003539  0.218728  0.400068  -0.002163  3.987832  -0.003
C  C74  1  0.89281401  0.37249580  0.58682682  1  -0.049067  0.003896  -0.234088  -0.47712  0.002479  3.919028  0.003
C  C75  1  0.61716378  0.76388829  0.54573189  1  -0.050727  0.000491  -0.235916  -0.477655  0.000246  3.913592  0.0
C  C76  1  0.72698802  0.74871586  0.50923520  1  0.956227  0.001436  0.218924  0.395274  0.001568  3.988014  0.001
C  C77  1  0.84754101  0.67254091  0.43412174  1  1.012501  -0.003536  0.218693  0.399998  -0.002162  3.987982  -0.003
C  C78  1  0.89280641  0.58681489  0.37248041  1  -0.048426  0.003896  -0.23414  -0.477044  0.002479  3.919448  0.003
C  C79  1  0.07209417  0.45472843  0.21841269  1  -0.110715  0.000491  -0.236457  -0.478281  0.000254  3.914494  0.0
C  C80  1  0.21835937  0.49116136  0.23971394  1  0.987269  0.001477  0.218577  0.395197  0.001623  3.990113  0.001
C  C81  1  0.41365359  0.56603316  0.23819067  1  0.994155  -0.003352  0.21814  0.399073  -0.002035  3.990555  -0.002
C  C82  1  0.52041544  0.62765638  0.21400629  1  -0.023138  0.003787  -0.234258  -0.479461  0.00241  3.921261  0.003
C  C83  1  0.85334948  0.78199395  0.23615150  1  -0.026752  0.00051  -0.236811  -0.480439  0.000256  3.916338  0.0
C  C84  1  0.97826990  0.76060449  0.25131617  1  0.960933  0.001391  0.218382  0.396244  0.001552  3.990796  0.001
C  C85  1  0.17483474  0.76160876  0.32746633  1  0.999859  -0.003519  0.219476  0.401806  -0.002148  3.989265  -0.003
C  C86  1  0.30572108  0.78564906  0.41311340  1  -0.082143  0.00399  -0.234492  -0.480835  0.002536  3.920721  0.003
C  C87  1  0.20706718  0.61380654  0.61378313  1  -0.039952  -0.009781  -0.247938  -0.511956  -0.006976  3.904228  -0.007
C  C88  1  0.26983941  0.54571542  0.54570190  1  1.562423  0.00158  0.18614  0.658511  0.000534  4.178879  0.003
C  C89  1  0.59281091  0.99994132  0.38590831  1  -0.124474  -0.009671  -0.247114  -0.510048  -0.006871  3.90187  -0.007
C  C90  1  0.72354628  0.00012225  0.45424648  1  1.550222  0.001573  0.185727  0.658818  0.000542  4.175189  0.003
C  C91  1  0.59280208  0.38587469  0.99992390  1  -0.124439  -0.009674  -0.247195  -0.510322  -0.006873  3.901926  -0.007
C  C92  1  0.72354195  0.45423551  0.00011318  1  1.550389  0.001574  0.185867  0.659056  0.000542  4.175047  0.003
N  N93  1  0.30617750  0.29588552  0.46332780  1  -0.766867  -0.047376  -0.287503  -0.266526  -0.032623  3.54405  -0.043
N  N94  1  0.43002063  0.29525020  0.51106816  1  -0.780471  0.035381  -0.295534  -0.288184  0.025496  3.576043  0.031
N  N95  1  0.28303283  0.20303922  0.55586582  1  -1.202098  0.081014  -0.379939  -0.424717  0.055925  3.509641  0.071
N  N96  1  0.00988061  0.16726926  0.70437623  1  -0.763286  -0.046693  -0.288715  -0.269203  -0.03218  3.549003  -0.043
N  N97  1  0.13421259  0.21553144  0.70469508  1  -0.785468  0.035435  -0.295893  -0.287341  0.025453  3.574349  0.031
N  N98  1  0.07950378  0.35257193  0.79704876  1  -1.20626  0.080717  -0.37985  -0.425386  0.055716  3.509569  0.071
N  N99  1  0.84262736  0.53715010  0.83276502  1  -0.755984  -0.046396  -0.288809  -0.267938  -0.031942  3.546598  -0.042
N  N100  1  0.91877049  0.48919949  0.78448225  1  -0.788981  0.035759  -0.296531  -0.28953  0.025685  3.576927  0.031
N  N101  1  0.72709631  0.44440224  0.64751992  1  -1.19385  0.080812  -0.379899  -0.424275  0.055883  3.509204  0.071
N  N102  1  0.84262467  0.83276151  0.53714361  1  -0.755897  -0.046416  -0.288814  -0.268034  -0.031956  3.546303  -0.042
N  N103  1  0.91876310  0.78447385  0.48919276  1  -0.789039  0.035761  -0.296491  -0.289519  0.025687  3.57699  0.031
N  N104  1  0.72708761  0.64751706  0.44439397  1  -1.194014  0.08082  -0.379977  -0.424266  0.055888  3.50917  0.071
N  N105  1  0.30617544  0.46332452  0.29588548  1  -0.766844  -0.047365  -0.287527  -0.266588  -0.032615  3.54394  -0.043
N  N106  1  0.43001954  0.51106148  0.29524685  1  -0.780508  0.035384  -0.295576  -0.288198  0.025498  3.57592  0.031
N  N107  1  0.28302935  0.55585930  0.20303494  1  -1.202194  0.081038  -0.379947  -0.424618  0.05594  3.509799  0.072
N  N108  1  0.00987575  0.70438386  0.16726008  1  -0.763793  -0.046678  -0.288815  -0.269232  -0.03217  3.549226  -0.043
N  N109  1  0.13420957  0.70470143  0.21552704  1  -0.785155  0.035436  -0.295787  -0.287244  0.025453  3.574489  0.031
N  N110  1  0.07948612  0.79703750  0.35256373  1  -1.206669  0.080707  -0.379827  -0.425324  0.055709  3.509601  0.071
O  O111  1  0.44603894  0.34879719  0.34879636  1  -1.091292  0.077117  -0.579695  -0.801346  0.05358  2.512438  0.065
O  O112  1  0.70959748  0.44602242  0.44602250  1  -0.931292  0.418706  -0.576173  -0.799745  0.269666  1.84152  0.351
O  O113  1  0.18302786  0.45260950  0.45261450  1  -1.125014  -0.110423  -0.341502  -0.55648  -0.070294  2.243748  -0.099
O  O114  1  0.39671049  0.57976783  0.57975083  1  -1.187539  -0.000668  -0.344716  -0.610725  -0.000159  2.123095  -0.001
O  O115  1  0.09558331  0.20310258  0.20309850  1  -1.207231  0.002461  -0.571254  -0.740341  0.001233  1.968398  0.001
O  O116  1  0.09665972  0.00000201  0.65134940  1  -1.095035  0.076394  -0.580365  -0.802251  0.053176  2.511392  0.064
O  O117  1  0.26333246  0.99985288  0.55430718  1  -0.929406  0.418058  -0.575341  -0.798198  0.269227  1.841342  0.35
O  O118  1  0.72961379  0.00012851  0.54738669  1  -1.10865  -0.110273  -0.3416  -0.55589  -0.070113  2.243879  -0.099
O  O119  1  0.81662440  0.00020886  0.42038128  1  -1.190141  -0.000636  -0.345352  -0.610371  -0.000145  2.11946  -0.001
O  O120  1  0.89344457  0.00030533  0.80247036  1  -1.204047  0.002538  -0.577064  -0.738148  0.001209  1.943194  0.001
O  O121  1  0.09665827  0.65135693  0.00000143  1  -1.094816  0.076356  -0.580333  -0.802234  0.053151  2.511233  0.064
O  O122  1  0.26333834  0.55432532  0.99986879  1  -0.929459  0.418044  -0.575359  -0.79819  0.269216  1.841381  0.35
O  O123  1  0.72960162  0.54737353  0.00012763  1  -1.108989  -0.110253  -0.341623  -0.555785  -0.0701  2.244048  -0.099
O  O124  1  0.81662903  0.42037818  0.00020399  1  -1.18982  -0.000639  -0.34542  -0.610538  -0.000147  2.119423  -0.001
O  O125  1  0.89344577  0.80255283  0.00029196  1  -1.173447  0.00252  -0.576655  -0.737648  0.001207  1.943226  0.001
