# generated using pymatgen
data_Mn2H18C12O11
_symmetry_space_group_name_H-M   'P 1'
_cell_length_a   8.08962412
_cell_length_b   10.04560720
_cell_length_c   10.54715812
_cell_angle_alpha   97.16424118
_cell_angle_beta   112.55860742
_cell_angle_gamma   90.01791557
_symmetry_Int_Tables_number   1
_chemical_formula_structural   Mn2H18C12O11
_chemical_formula_sum   'Mn4 H36 C24 O22'
_cell_volume   784.27156404
_cell_formula_units_Z   2
loop_
 _symmetry_equiv_pos_site_id
 _symmetry_equiv_pos_as_xyz
  1  'x, y, z'
loop_
 _atom_site_type_symbol
 _atom_site_label
 _atom_site_symmetry_multiplicity
 _atom_site_fract_x
 _atom_site_fract_y
 _atom_site_fract_z
 _atom_site_occupancy
 _atom_site_hle17_ddec_charge
 _atom_site_hle17_ddec_spin_density
 _atom_site_hle17_ddec_sum_bond_order
 _atom_site_hle17_magmom
 _atom_site_hse06_10hf_ddec_charge
 _atom_site_hse06_10hf_ddec_spin_density
 _atom_site_hse06_10hf_ddec_sum_bond_order
 _atom_site_hse06_10hf_magmom
 _atom_site_hse06_ddec_charge
 _atom_site_hse06_ddec_spin_density
 _atom_site_hse06_ddec_sum_bond_order
 _atom_site_hse06_magmom
 _atom_site_pbe_cm5_charge
 _atom_site_pbe_ddec_charge
 _atom_site_pbe_ddec_spin_density
 _atom_site_pbe_ddec_sum_bond_order
 _atom_site_pbe_magmom
Mn  Mn0  1  0.21100846  0.42978876  0.04581555  1  1.283849  -4.797044  1.625967  -4.694  1.129148  -4.722279  2.109183  -4.56  1.187166  -4.765421  2.036481  -4.617  0.609821  1.083353  -4.677298  2.162658  -4.503
Mn  Mn1  1  0.83483288  0.92971557  0.04596433  1  1.283493  4.797269  1.625744  4.694  1.129131  4.722909  2.108671  4.56  1.187157  4.766022  2.035967  4.617  0.609995  1.083443  4.678055  2.16192  4.503
Mn  Mn2  1  0.78899152  0.57021346  0.95418390  1  1.283861  4.797035  1.625971  4.694  1.129175  4.722272  2.109191  4.56  1.187195  4.765418  2.036485  4.617  0.609835  1.083346  4.677293  2.162733  4.503
Mn  Mn3  1  0.16515922  0.07028867  0.95403306  1  1.283564  -4.797268  1.625688  -4.694  1.129174  -4.722907  2.108634  -4.56  1.1872  -4.766019  2.035928  -4.617  0.609997  1.083485  -4.678046  2.161895  -4.503
H  H4  1  0.36476604  0.46405992  0.85762389  1  0.416066  -0.000552  0.892855  -0.001  0.383624  -0.001058  0.959993  -0.002  0.395215  -0.000896  0.943097  -0.001  0.293646  0.375387  -0.001189  0.971972  -0.002
H  H5  1  0.49280828  0.96408723  0.85777057  1  0.415575  0.000549  0.893533  0.001  0.383404  0.001048  0.960279  0.002  0.394966  0.000889  0.943419  0.001  0.293974  0.375151  0.00119  0.972302  0.002
H  H6  1  0.63523648  0.53594029  0.14237510  1  0.416037  0.00055  0.89287  0.001  0.383588  0.001058  0.960015  0.002  0.395177  0.000896  0.943122  0.001  0.293626  0.375353  0.001189  0.971992  0.002
H  H7  1  0.50718501  0.03591500  0.14222787  1  0.415605  -0.000547  0.893492  -0.001  0.383427  -0.001048  0.960233  -0.002  0.394984  -0.000889  0.943381  -0.001  0.294009  0.375172  -0.00119  0.972259  -0.002
H  H8  1  0.24336888  0.58263639  0.84400826  1  0.421705  -0.000458  0.878689  -0.002  0.393142  -0.00112  0.938104  -0.002  0.403355  -0.000821  0.923455  -0.002  0.297212  0.385766  -0.001424  0.94866  -0.003
H  H9  1  0.60068528  0.08263489  0.84413447  1  0.422822  0.000454  0.876985  0.002  0.393198  0.001117  0.93792  0.002  0.403439  0.000819  0.92325  0.002  0.297333  0.385821  0.001426  0.948462  0.003
H  H10  1  0.75663363  0.41736383  0.15599073  1  0.421724  0.000455  0.878666  0.002  0.393169  0.00112  0.938069  0.002  0.403383  0.000821  0.923419  0.002  0.297225  0.385789  0.001424  0.94863  0.003
H  H11  1  0.39930787  0.91736533  0.15586273  1  0.422779  -0.000458  0.877001  -0.002  0.393127  -0.001117  0.937998  -0.002  0.403373  -0.000819  0.923318  -0.002  0.297305  0.385749  -0.001426  0.94854  -0.003
H  H12  1  0.47694208  0.24904044  0.08152799  1  0.430143  0.000336  0.87398  -0.001  0.396323  -0.000694  0.941225  -0.002  0.408714  -0.000372  0.923573  -0.002  0.301072  0.387426  -0.000994  0.953907  -0.003
H  H13  1  0.60466191  0.74887552  0.08173228  1  0.430439  -0.000331  0.873673  0.001  0.395885  0.0007  0.942106  0.002  0.408305  0.000377  0.924426  0.002  0.300856  0.386991  0.000993  0.954764  0.003
H  H14  1  0.52305508  0.75095977  0.91847134  1  0.43014  -0.000335  0.873986  0.001  0.396323  0.000693  0.941218  0.002  0.408713  0.000372  0.923569  0.002  0.301077  0.387433  0.000994  0.953891  0.003
H  H15  1  0.39534061  0.25112469  0.91826861  1  0.430461  0.00033  0.873634  -0.001  0.395908  -0.0007  0.942065  -0.002  0.408327  -0.000377  0.924387  -0.002  0.300878  0.387017  -0.000993  0.954719  -0.003
H  H16  1  0.36826360  0.51742572  0.38651092  1  0.090023  0.000253  0.961441  0.0  0.102632  0.00024  1.029147  0.0  0.104484  0.000254  1.02847  0.0  0.095521  0.101251  0.000204  1.029769  0.0
H  H17  1  0.01824451  0.01745676  0.38634666  1  0.089951  -0.000252  0.961417  0.0  0.1034  -0.000241  1.028381  0.0  0.105251  -0.000254  1.027688  0.0  0.095813  0.101991  -0.0002  1.029038  0.0
H  H18  1  0.63173632  0.48257549  0.61349028  1  0.090054  -0.000246  0.961531  0.0  0.102662  -0.00024  1.029224  0.0  0.104514  -0.000254  1.028548  0.0  0.095537  0.101282  -0.000204  1.029847  0.0
H  H19  1  0.98175652  0.98254145  0.61365071  1  0.089903  0.00025  0.961451  0.0  0.103344  0.000241  1.028434  0.0  0.105191  0.000254  1.027747  0.0  0.095791  0.101935  0.0002  1.02909  0.0
H  H20  1  0.18907945  0.60567076  0.41108311  1  0.08539  1.5e-05  0.949059  0.0  0.104553  5.6e-05  1.006865  0.0  0.105463  2.8e-05  1.007445  0.0  0.097495  0.103902  9.4e-05  1.006476  0.0
H  H21  1  0.22208853  0.10560141  0.41082105  1  0.085466  -2.7e-05  0.948592  0.0  0.105011  -6.4e-05  1.006296  0.0  0.105984  -3.4e-05  1.006788  0.0  0.097803  0.104305  -9.5e-05  1.005983  0.0
H  H22  1  0.81092167  0.39432844  0.58891914  1  0.085431  -1.7e-05  0.949017  0.0  0.104575  -5.6e-05  1.006826  0.0  0.105486  -2.8e-05  1.007403  0.0  0.097503  0.103926  -9.4e-05  1.006434  0.0
H  H23  1  0.77791243  0.89439580  0.58917712  1  0.085447  2.1e-05  0.948563  0.0  0.105009  6.4e-05  1.006271  0.0  0.105983  3.4e-05  1.00676  0.0  0.097811  0.104302  9.5e-05  1.005961  0.0
H  H24  1  0.58742421  0.70250783  0.54047444  1  0.071715  -0.000107  0.962013  0.0  0.090906  -0.000128  1.021884  0.0  0.091327  -0.000133  1.023201  0.0  0.089305  0.090397  -0.000122  1.021206  0.0
H  H25  1  0.95337640  0.20259099  0.54029522  1  0.07199  0.000114  0.962379  0.0  0.090824  0.000145  1.022261  0.0  0.091209  0.000147  1.02365  0.0  0.089369  0.090316  0.000122  1.021488  0.0
H  H26  1  0.41257705  0.29749339  0.45952716  1  0.071687  0.000119  0.962034  0.0  0.090874  0.000128  1.021917  0.0  0.091297  0.000133  1.023229  0.0  0.08928  0.090364  0.000122  1.021238  0.0
H  H27  1  0.04663118  0.79740520  0.45970762  1  0.071991  -0.000129  0.962486  0.0  0.090837  -0.000145  1.022343  0.0  0.091223  -0.000146  1.023728  0.0  0.089401  0.090329  -0.000122  1.021569  0.0
H  H28  1  0.42642285  0.74562830  0.61312085  1  0.085879  -5.2e-05  0.953334  0.0  0.100456  -8.1e-05  1.01311  0.0  0.102454  -8.8e-05  1.012548  0.0  0.087381  0.09895  -8.5e-05  1.013619  0.0
H  H29  1  0.18709838  0.24562826  0.61292707  1  0.085234  3.6e-05  0.954903  0.0  0.100056  6.9e-05  1.013949  0.0  0.102092  7.8e-05  1.013323  0.0  0.087181  0.098527  8.4e-05  1.014495  0.0
H  H30  1  0.57357574  0.25437291  0.38688091  1  0.085883  7.7e-05  0.953329  0.0  0.100471  8.1e-05  1.013097  0.0  0.102467  8.8e-05  1.012539  0.0  0.087396  0.098962  8.4e-05  1.013611  0.0
H  H31  1  0.81290779  0.75436693  0.38707238  1  0.085242  -5.5e-05  0.954905  0.0  0.100083  -6.8e-05  1.013922  0.0  0.102119  -7.7e-05  1.013298  0.0  0.087172  0.098551  -8.4e-05  1.014473  0.0
H  H32  1  0.27506670  0.88733608  0.42295903  1  0.082414  -0.000171  0.970025  0.0  0.096358  -0.000191  1.037972  0.0  0.097969  -0.000196  1.037469  0.0  0.09333  0.094976  -0.000182  1.038664  0.0
H  H33  1  0.14824053  0.38741379  0.42272304  1  0.082518  0.00016  0.969991  0.0  0.09661  0.000182  1.037703  0.0  0.098279  0.00019  1.037125  0.0  0.093477  0.095219  0.000182  1.038413  0.0
H  H34  1  0.72493605  0.11266713  0.57704419  1  0.082398  0.000166  0.969971  0.0  0.096306  0.000191  1.037986  0.0  0.097917  0.000196  1.037483  0.0  0.093286  0.094919  0.000182  1.038681  0.0
H  H35  1  0.85176192  0.61258541  0.57727961  1  0.082528  -0.000167  0.969959  0.0  0.09663  -0.000182  1.03767  0.0  0.098303  -0.000189  1.037086  0.0  0.093501  0.095239  -0.000182  1.038379  0.0
H  H36  1  0.48551025  0.89682771  0.40586933  1  0.083797  6.5e-05  0.952245  0.0  0.099639  4.6e-05  1.014258  0.0  0.101468  6.2e-05  1.013514  0.0  0.092  0.098253  2.7e-05  1.014989  0.0
H  H37  1  0.92073267  0.39684481  0.40571380  1  0.084348  -6.1e-05  0.951077  0.0  0.099407  -4.2e-05  1.013995  0.0  0.101212  -5.9e-05  1.0133  0.0  0.09214  0.098115  -2.7e-05  1.014558  0.0
H  H38  1  0.51449086  0.10317149  0.59413197  1  0.083789  -6.2e-05  0.952269  0.0  0.099649  -4.6e-05  1.014254  0.0  0.10148  -6.1e-05  1.013506  0.0  0.092012  0.098262  -2.7e-05  1.014986  0.0
H  H39  1  0.07927098  0.60315237  0.59428895  1  0.084299  6.1e-05  0.951099  0.0  0.099369  4.2e-05  1.014026  0.0  0.101174  5.9e-05  1.013332  0.0  0.092114  0.098078  2.7e-05  1.014588  0.0
C  C40  1  0.30838613  0.71113586  0.29285445  1  -0.157896  0.002142  3.582058  0.002  -0.122123  0.00228  3.809979  0.002  -0.133743  0.001791  3.823888  0.002  -0.016781  -0.114215  0.002894  3.800947  0.002
C  C41  1  0.98461885  0.21115369  0.29266078  1  -0.158762  -0.002166  3.581775  -0.002  -0.123003  -0.002298  3.810119  -0.002  -0.134695  -0.001808  3.824157  -0.002  -0.017017  -0.115108  -0.002894  3.801057  -0.002
C  C42  1  0.69161104  0.28886434  0.70714678  1  -0.157959  -0.002166  3.582158  -0.002  -0.122227  -0.00228  3.810099  -0.002  -0.133836  -0.001794  3.823988  -0.002  -0.016821  -0.11432  -0.002895  3.801073  -0.002
C  C43  1  0.01538211  0.78884351  0.70733834  1  -0.158878  0.002154  3.581821  0.002  -0.123104  0.0023  3.810191  0.002  -0.134799  0.001803  3.824232  0.002  -0.017037  -0.115218  0.002894  3.801132  0.002
C  C44  1  0.31924769  0.61694571  0.40291237  1  -0.134623  7.2e-05  3.554308  0.0  -0.18434  0.000373  3.808415  0.0  -0.184299  0.000272  3.819229  0.0  -0.155959  -0.184084  0.000461  3.800974  0.001
C  C45  1  0.08380227  0.11694015  0.40271892  1  -0.133663  -9.8e-05  3.553489  0.0  -0.184975  -0.000453  3.808032  -0.001  -0.184936  -0.000326  3.818812  0.0  -0.156394  -0.184731  -0.000461  3.800556  -0.001
C  C46  1  0.68075089  0.38305551  0.59708844  1  -0.134711  -5.8e-05  3.554358  0.0  -0.18438  -0.000372  3.808404  0.0  -0.18434  -0.000271  3.819217  0.0  -0.155972  -0.18413  -0.000461  3.800973  -0.001
C  C47  1  0.91620010  0.88305805  0.59727979  1  -0.133495  0.000123  3.553309  0.0  -0.18484  0.000452  3.807922  0.001  -0.184797  0.000327  3.8187  0.0  -0.156347  -0.184594  0.000461  3.800445  0.001
C  C48  1  0.44663361  0.72484821  0.51584821  1  -0.113137  -2.6e-05  3.589212  0.0  -0.150321  -4.8e-05  3.847926  0.0  -0.151591  -7.5e-05  3.859891  0.0  -0.170205  -0.14913  1.5e-05  3.839593  0.0
C  C49  1  0.06956332  0.22485054  0.51565591  1  -0.113462  4.6e-05  3.590888  0.0  -0.149868  2.7e-05  3.848886  0.0  -0.151143  6e-05  3.860823  0.0  -0.169833  -0.1487  -1.6e-05  3.840437  0.0
C  C50  1  0.55336772  0.27515401  0.48415353  1  -0.113086  -5.7e-05  3.589153  0.0  -0.150291  5e-05  3.847854  0.0  -0.151563  7.4e-05  3.859823  0.0  -0.170174  -0.149099  -1.5e-05  3.839525  0.0
C  C51  1  0.93044152  0.77514464  0.48434410  1  -0.113535  1.1e-05  3.591002  0.0  -0.149946  -2.8e-05  3.849011  0.0  -0.151219  -6e-05  3.860944  0.0  -0.169876  -0.14878  1.6e-05  3.84057  0.0
C  C52  1  0.38411413  0.82869926  0.41234644  1  -0.142127  0.000339  3.597984  0.0  -0.194838  0.00052  3.855934  0.001  -0.194754  0.000408  3.866735  0.0  -0.166159  -0.19472  0.000637  3.8488  0.001
C  C53  1  0.02857735  0.32874872  0.41216382  1  -0.142442  -0.000356  3.59485  0.0  -0.194971  -0.000529  3.852886  -0.001  -0.194874  -0.000415  3.863596  0.0  -0.166706  -0.194791  -0.000642  3.845655  -0.001
C  C54  1  0.61588713  0.17130194  0.58765705  1  -0.142009  -0.000317  3.597815  0.0  -0.194716  -0.00052  3.855782  -0.001  -0.194634  -0.000408  3.86658  0.0  -0.1661  -0.194595  -0.000637  3.84865  -0.001
C  C55  1  0.97142629  0.67124847  0.58783799  1  -0.142414  0.000358  3.594894  0.0  -0.194988  0.000528  3.852987  0.001  -0.194891  0.000413  3.863697  0.0  -0.166731  -0.194807  0.000642  3.845754  0.001
C  C56  1  0.43278801  0.67400798  0.21740510  1  0.682704  -0.006634  3.804007  -0.006  0.619637  -0.010201  4.109385  -0.009  0.654945  -0.007737  4.101493  -0.007  0.233219  0.594669  -0.013128  4.114708  -0.011
C  C57  1  0.78470801  0.17404885  0.21727735  1  0.683948  0.006586  3.802144  0.006  0.620449  0.010129  4.108553  0.009  0.655754  0.007687  4.100658  0.007  0.233521  0.595502  0.01308  4.113723  0.011
C  C58  1  0.56721459  0.32599322  0.78259784  1  0.682682  0.006643  3.804099  0.006  0.619619  0.010202  4.109479  0.009  0.654927  0.007735  4.101584  0.007  0.233193  0.594651  0.013129  4.1148  0.011
C  C59  1  0.21529571  0.82594934  0.78272555  1  0.684128  -0.006565  3.801916  -0.006  0.620608  -0.010129  4.108332  -0.009  0.655912  -0.007687  4.100436  -0.007  0.233611  0.59568  -0.013078  4.113493  -0.011
C  C60  1  0.12120899  0.71777411  0.18221922  1  0.705482  0.007808  3.779637  0.007  0.645055  0.01231  4.081161  0.011  0.682101  0.009576  4.073418  0.008  0.245589  0.618903  0.014953  4.085503  0.013
C  C61  1  0.06115608  0.21774202  0.18205698  1  0.703808  -0.007735  3.783113  -0.007  0.643935  -0.012196  4.083412  -0.01  0.680908  -0.009508  4.075798  -0.008  0.2449  0.617885  -0.015044  4.087563  -0.013
C  C62  1  0.87879092  0.28222711  0.81778009  1  0.705452  -0.007808  3.779633  -0.007  0.645049  -0.012309  4.081119  -0.011  0.682093  -0.009578  4.073378  -0.008  0.24558  0.618897  -0.014956  4.085461  -0.013
C  C63  1  0.93884242  0.78225819  0.81794084  1  0.703796  0.007756  3.78329  0.007  0.643908  0.012199  4.083588  0.01  0.680881  0.009507  4.075973  0.008  0.244899  0.617871  0.015044  4.087721  0.013
O  O64  1  0.25108887  0.48994181  0.86850025  1  -0.844934  -0.030557  1.876747  -0.019  -0.787621  -0.038224  2.081015  -0.023  -0.812149  -0.034499  2.045489  -0.02  -0.577349  -0.768994  -0.041705  2.106037  -0.026
O  O65  1  0.61739938  0.98995927  0.86864905  1  -0.845235  0.030549  1.875947  0.019  -0.787532  0.038207  2.081396  0.023  -0.812093  0.034481  2.045906  0.02  -0.577662  -0.768971  0.041692  2.106422  0.026
O  O66  1  0.74891230  0.51005840  0.13149836  1  -0.84494  0.030564  1.876753  0.019  -0.787613  0.038224  2.081019  0.023  -0.812144  0.034499  2.045491  0.02  -0.577351  -0.768983  0.041705  2.10605  0.026
O  O67  1  0.38259384  0.01004195  0.13134829  1  -0.845233  -0.030546  1.875899  -0.019  -0.787516  -0.038206  2.081414  -0.023  -0.812064  -0.03448  2.045902  -0.02  -0.57768  -0.768954  -0.041692  2.106444  -0.026
O  O68  1  0.35723372  0.25010866  0.99990135  1  -0.877952  -0.057395  1.954021  -0.032  -0.802426  -0.075392  2.197763  -0.044  -0.831931  -0.068544  2.155641  -0.039  -0.544906  -0.779706  -0.080973  2.227581  -0.048
O  O69  1  0.64276471  0.74989054  0.00009823  1  -0.877933  0.057395  1.954024  0.032  -0.802437  0.075395  2.197814  0.044  -0.831937  0.068547  2.155686  0.039  -0.544911  -0.779713  0.080975  2.227627  0.048
O  O70  1  0.44759893  0.54963931  0.18008677  1  -0.666531  -0.028026  2.061166  -0.013  -0.591196  -0.033807  2.316637  -0.015  -0.621437  -0.030604  2.300955  -0.013  -0.305989  -0.569221  -0.036653  2.327526  -0.017
O  O71  1  0.73249209  0.04967896  0.18000137  1  -0.666851  0.028083  2.062021  0.013  -0.591208  0.033879  2.317572  0.015  -0.621412  0.030669  2.301842  0.013  -0.30596  -0.569134  0.036672  2.328346  0.017
O  O72  1  0.55240106  0.45036291  0.81991458  1  -0.666523  0.028016  2.061162  0.013  -0.591219  0.033806  2.316654  0.015  -0.621471  0.030606  2.300985  0.013  -0.305989  -0.569236  0.036655  2.32754  0.017
O  O73  1  0.26750656  0.95032325  0.82000054  1  -0.666973  -0.028091  2.061878  -0.013  -0.591324  -0.033879  2.317438  -0.015  -0.621526  -0.03067  2.301702  -0.013  -0.306012  -0.569267  -0.036673  2.328218  -0.017
O  O74  1  0.51296555  0.76891225  0.19134598  1  -0.614698  -0.004954  2.024615  -0.005  -0.547164  -0.007368  2.239889  -0.008  -0.572448  -0.005986  2.228787  -0.006  -0.290486  -0.529872  -0.008666  2.247908  -0.009
O  O75  1  0.67849945  0.26893960  0.19128873  1  -0.614145  0.004983  2.022641  0.005  -0.547778  0.007418  2.238733  0.008  -0.572995  0.006031  2.227585  0.006  -0.290496  -0.530404  0.008665  2.24666  0.009
O  O76  1  0.48703706  0.23108895  0.80865790  1  -0.614692  0.004956  2.024595  0.005  -0.547171  0.007369  2.239857  0.008  -0.572445  0.005987  2.228753  0.006  -0.290502  -0.529885  0.008672  2.247877  0.009
O  O77  1  0.32150329  0.73106362  0.80871260  1  -0.614184  -0.004993  2.022721  -0.005  -0.547745  -0.007417  2.238752  -0.008  -0.572963  -0.006029  2.227615  -0.006  -0.290494  -0.530403  -0.008663  2.246693  -0.009
O  O78  1  0.06699863  0.61543336  0.08618699  1  -0.703709  0.006448  2.108368  0.005  -0.622875  0.00605  2.394805  0.004  -0.65866  0.004946  2.3789  0.003  -0.296971  -0.595733  0.007045  2.404684  0.005
O  O79  1  0.01942265  0.11536143  0.08611881  1  -0.702394  -0.006543  2.109551  -0.005  -0.621935  -0.006124  2.39562  -0.004  -0.657625  -0.005021  2.379674  -0.003  -0.296938  -0.594924  -0.007139  2.405329  -0.005
O  O80  1  0.93299847  0.38456584  0.91381599  1  -0.703651  -0.006454  2.108223  -0.005  -0.622815  -0.006051  2.394613  -0.004  -0.658598  -0.004943  2.378713  -0.003  -0.29693  -0.595676  -0.007044  2.404496  -0.005
O  O81  1  0.98056528  0.88464081  0.91387522  1  -0.702402  0.006542  2.109669  0.005  -0.621915  0.006123  2.395716  0.004  -0.657605  0.005024  2.379767  0.003  -0.296918  -0.594903  0.007141  2.405415  0.005
O  O82  1  0.02910319  0.81701484  0.18998577  1  -0.622823  0.027314  2.023983  0.013  -0.559339  0.034102  2.294191  0.016  -0.589279  0.030885  2.279854  0.013  -0.283207  -0.537151  0.03724  2.303292  0.018
O  O83  1  0.16102524  0.31703708  0.18979850  1  -0.623391  -0.027411  2.02622  -0.013  -0.559292  -0.034141  2.295382  -0.016  -0.589187  -0.030925  2.281047  -0.013  -0.282962  -0.536907  -0.037264  2.304541  -0.018
O  O84  1  0.97089523  0.18298438  0.81001001  1  -0.62287  -0.027307  2.024101  -0.013  -0.559348  -0.034106  2.294252  -0.016  -0.58929  -0.030888  2.27992  -0.013  -0.283198  -0.537151  -0.037243  2.303334  -0.018
O  O85  1  0.83897714  0.68296113  0.81020116  1  -0.623375  0.027399  2.02627  0.013  -0.559268  0.034143  2.295431  0.016  -0.589165  0.030927  2.281098  0.013  -0.282965  -0.536882  0.037267  2.304584  0.018
