# generated using pymatgen
data_ZnH15C17NO5
_symmetry_space_group_name_H-M   'P 1'
_cell_length_a   10.16801958
_cell_length_b   12.90765018
_cell_length_c   17.19488421
_cell_angle_alpha   90.00019780
_cell_angle_beta   89.99973072
_cell_angle_gamma   112.93978341
_symmetry_Int_Tables_number   1
_chemical_formula_structural   ZnH15C17NO5
_chemical_formula_sum   'Zn4 H60 C68 N4 O20'
_cell_volume   2078.27187589
_cell_formula_units_Z   4
loop_
 _symmetry_equiv_pos_site_id
 _symmetry_equiv_pos_as_xyz
  1  'x, y, z'
loop_
 _atom_site_type_symbol
 _atom_site_label
 _atom_site_symmetry_multiplicity
 _atom_site_fract_x
 _atom_site_fract_y
 _atom_site_fract_z
 _atom_site_occupancy
 _atom_site_pbe_bader_charge
 _atom_site_pbe_bader_spin_density
 _atom_site_pbe_cm5_charge
 _atom_site_pbe_ddec_charge
 _atom_site_pbe_ddec_spin_density
 _atom_site_pbe_ddec_sum_bond_order
 _atom_site_pbe_magmom
Zn  Zn0  1  0.58018356  0.35926232  0.93153079  1  1.289905  0  0.667931  0.834985  0  2.265237  0
Zn  Zn1  1  0.41980940  0.14073728  0.43153144  1  1.290119  0  0.66791  0.834931  0  2.265326  0
Zn  Zn2  1  0.41981413  0.64073844  0.06847003  1  1.28998  0  0.667909  0.834929  0  2.265259  0
Zn  Zn3  1  0.58018527  0.85925927  0.56846706  1  1.290096  0  0.667946  0.834977  0  2.265231  0
H  H4  1  0.77243361  0.55835720  0.96701750  1  0.619714  0  0.335152  0.41573  0  0.8531  0
H  H5  1  0.22756683  0.94163904  0.46701713  1  0.619701  0  0.335123  0.41568  0  0.853114  0
H  H6  1  0.22756919  0.44164192  0.03298274  1  0.619729  0  0.335141  0.415716  0  0.853075  0
H  H7  1  0.77243277  0.05835754  0.53298311  1  0.619726  0  0.335129  0.415679  0  0.853128  0
H  H8  1  0.65890091  0.54337018  0.03577613  1  0.654714  0  0.289368  0.387361  0  0.956393  0
H  H9  1  0.34110232  0.95663083  0.53577524  1  0.654702  0  0.28935  0.387365  0  0.956395  0
H  H10  1  0.34110032  0.45662977  0.96422237  1  0.654721  0  0.289357  0.387376  0  0.956363  0
H  H11  1  0.65889793  0.04336911  0.46422559  1  0.6546  0  0.289376  0.387383  0  0.956371  0
H  H12  1  0.71294887  0.13759795  0.76254401  1  0.111485  0  0.10274  0.12416  0  1.040976  0
H  H13  1  0.28705705  0.36240130  0.26253862  1  0.111355  0  0.102734  0.124078  0  1.041051  0
H  H14  1  0.28704382  0.86239859  0.23745855  1  0.111332  0  0.102743  0.124131  0  1.041025  0
H  H15  1  0.71294656  0.63759950  0.73745871  1  0.111444  0  0.102759  0.124138  0  1.040986  0
H  H16  1  0.95643181  0.26720428  0.87600957  1  0.076593  0  0.10171  0.096291  0  1.009388  0
H  H17  1  0.04357162  0.23279776  0.37600801  1  0.076693  0  0.101712  0.096282  0  1.009346  0
H  H18  1  0.04356112  0.73279477  0.12399125  1  0.076741  0  0.101714  0.096253  0  1.009376  0
H  H19  1  0.95644077  0.76720897  0.62399689  1  0.076456  0  0.101711  0.096325  0  1.009306  0
H  H20  1  0.17488140  0.24078577  0.86633739  1  0.058067  0  0.095232  0.096077  0  1.037305  0
H  H21  1  0.82512193  0.25921791  0.36633664  1  0.058199  0  0.095249  0.096146  0  1.037224  0
H  H22  1  0.82510776  0.75921158  0.13366517  1  0.057956  0  0.095264  0.096084  0  1.037457  0
H  H23  1  0.17488512  0.74078794  0.63366768  1  0.058164  0  0.095259  0.096155  0  1.037219  0
H  H24  1  0.32419291  0.14890540  0.81069494  1  0.095678  0  0.103053  0.115984  0  1.04503  0
H  H25  1  0.67581185  0.35110235  0.31069716  1  0.095947  0  0.103062  0.115992  0  1.044989  0
H  H26  1  0.67579986  0.85109533  0.18930589  1  0.095902  0  0.10303  0.115996  0  1.044923  0
H  H27  1  0.32419053  0.64889593  0.68930250  1  0.096236  0  0.103059  0.116005  0  1.044933  0
H  H28  1  0.97815611  0.95815818  0.65630904  1  0.084114  0  0.098721  0.107173  0  1.039589  0
H  H29  1  0.02184672  0.54184397  0.15630879  1  0.084063  0  0.098709  0.107174  0  1.039566  0
H  H30  1  0.02183903  0.04184340  0.34369062  1  0.084094  0  0.098746  0.107157  0  1.039623  0
H  H31  1  0.97815723  0.45815348  0.84368971  1  0.084055  0  0.098777  0.107279  0  1.03954  0
H  H32  1  0.83107878  0.05154661  0.71020085  1  0.123578  0  0.10278  0.115908  0  1.039231  0
H  H33  1  0.16892298  0.44845331  0.21019833  1  0.123945  0  0.102773  0.115878  0  1.039216  0
H  H34  1  0.16891375  0.94845160  0.28979823  1  0.123696  0  0.102795  0.115864  0  1.039129  0
H  H35  1  0.83108425  0.55155086  0.78980598  1  0.123285  0  0.102766  0.11584  0  1.039202  0
H  H36  1  0.19551270  0.93508213  0.64499918  1  0.071895  0  0.101685  0.090069  0  1.03003  0
H  H37  1  0.80449283  0.56492337  0.14500088  1  0.071926  0  0.101683  0.090112  0  1.030071  0
H  H38  1  0.80448599  0.06491864  0.35500165  1  0.071877  0  0.101709  0.090117  0  1.030052  0
H  H39  1  0.19550768  0.43506903  0.85499413  1  0.071765  0  0.101724  0.090165  0  1.029951  0
H  H40  1  0.44217921  0.06133020  0.75802725  1  0.125847  0  0.104789  0.133608  0  1.033677  0
H  H41  1  0.55782484  0.43867321  0.25802828  1  0.125964  0  0.104766  0.133566  0  1.033548  0
H  H42  1  0.55781791  0.93867139  0.24197241  1  0.125843  0  0.104785  0.133599  0  1.033655  0
H  H43  1  0.44217812  0.56132423  0.74197021  1  0.125919  0  0.104783  0.133586  0  1.033638  0
H  H44  1  0.35209423  0.12539581  0.93921100  1  0.123574  0  0.118781  0.090007  0  1.013823  0
H  H45  1  0.64790279  0.37460216  0.43920696  1  0.123731  0  0.118761  0.090044  0  1.013744  0
H  H46  1  0.64790520  0.87460244  0.06078924  1  0.123759  0  0.118774  0.089997  0  1.013837  0
H  H47  1  0.35209739  0.62539359  0.56078863  1  0.123629  0  0.118796  0.09001  0  1.013807  0
H  H48  1  0.23003303  0.98226037  0.04236646  1  0.084258  0  0.111638  0.117747  0  0.987806  0
H  H49  1  0.76996958  0.51774148  0.54236150  1  0.084191  0  0.111638  0.117674  0  0.987886  0
H  H50  1  0.76996705  0.01774124  0.95763553  1  0.084224  0  0.111632  0.117757  0  0.987843  0
H  H51  1  0.23003240  0.48225595  0.45763526  1  0.084221  0  0.11161  0.117759  0  0.98787  0
H  H52  1  0.30293297  0.03092181  0.18208808  1  0.116436  0  0.107762  0.105326  0  1.042333  0
H  H53  1  0.69707299  0.46908226  0.68208449  1  0.116444  0  0.107773  0.105321  0  1.042331  0
H  H54  1  0.69706792  0.96908149  0.81791391  1  0.116416  0  0.107767  0.105319  0  1.042335  0
H  H55  1  0.30292784  0.53091685  0.31791226  1  0.116382  0  0.107822  0.105393  0  1.042271  0
H  H56  1  0.49396002  0.21797462  0.21247268  1  0.140761  0  0.110773  0.126206  0  1.018337  0
H  H57  1  0.50604812  0.28203038  0.71247087  1  0.140854  0  0.110779  0.126288  0  1.018324  0
H  H58  1  0.50604482  0.78202870  0.78752757  1  0.140811  0  0.110745  0.126153  0  1.018391  0
H  H59  1  0.49395114  0.71796955  0.28752704  1  0.140801  0  0.110759  0.126221  0  1.018329  0
H  H60  1  0.60997114  0.34871861  0.10206543  1  0.109877  0  0.112436  0.083597  0  1.04242  0
H  H61  1  0.39003141  0.15128523  0.60206419  1  0.109953  0  0.112427  0.083555  0  1.042518  0
H  H62  1  0.39003288  0.65128303  0.89793307  1  0.10987  0  0.112424  0.08356  0  1.042482  0
H  H63  1  0.60996547  0.84871385  0.39793256  1  0.109936  0  0.112427  0.083553  0  1.04251  0
C  C64  1  0.69222629  0.25188854  0.85051047  1  1.511022  0  0.187289  0.600134  0  4.213351  0
C  C65  1  0.30777517  0.24811509  0.35050880  1  1.510971  0  0.187251  0.600007  0  4.21345  0
C  C66  1  0.30776483  0.74810882  0.14948861  1  1.51145  0  0.187108  0.599727  0  4.213757  0
C  C67  1  0.69222705  0.75188486  0.64948679  1  1.511425  0  0.187191  0.599955  0  4.21352  0
C  C68  1  0.77180008  0.19524800  0.80859608  1  -0.07301  0  -0.099711  -0.236332  0  3.908406  0
C  C69  1  0.22820340  0.30475302  0.30859244  1  -0.073012  0  -0.099702  -0.236164  0  3.908566  0
C  C70  1  0.22818924  0.80474767  0.19140533  1  -0.072678  0  -0.099723  -0.236207  0  3.908387  0
C  C71  1  0.77180284  0.69525115  0.69140722  1  -0.072882  0  -0.099743  -0.236269  0  3.908448  0
C  C72  1  0.90639742  0.20926018  0.82818487  1  -0.047666  0  -0.075742  -0.07394  0  3.981318  0
C  C73  1  0.09360732  0.29074175  0.32818158  1  -0.047693  0  -0.075674  -0.073813  0  3.981309  0
C  C74  1  0.09359411  0.79073803  0.17181711  1  -0.048447  0  -0.075699  -0.073859  0  3.981378  0
C  C75  1  0.90640409  0.70926497  0.67182332  1  -0.047987  0  -0.075721  -0.073977  0  3.981417  0
C  C76  1  0.99087226  0.15283471  0.79336037  1  0.01303  0  -0.011126  0.101821  0  4.032346  0
C  C77  1  0.00913354  0.34716880  0.29335804  1  0.012861  0  -0.011258  0.101433  0  4.03273  0
C  C78  1  0.00911550  0.84716179  0.20663987  1  0.013734  0  -0.011128  0.10179  0  4.032553  0
C  C79  1  0.99087549  0.65283706  0.70664802  1  0.013623  0  -0.01125  0.101619  0  4.032613  0
C  C80  1  0.13077047  0.17770114  0.82086629  1  -0.045175  0  -0.090637  -0.127847  0  3.976041  0
C  C81  1  0.86923735  0.32230497  0.32086558  1  -0.045303  0  -0.090684  -0.127874  0  3.976234  0
C  C82  1  0.86921671  0.82229620  0.17913570  1  -0.045153  0  -0.090659  -0.12795  0  3.976378  0
C  C83  1  0.13077308  0.67770174  0.67913932  1  -0.045068  0  -0.090632  -0.12795  0  3.976107  0
C  C84  1  0.21508048  0.12552225  0.78990283  1  -0.052703  0  -0.087717  -0.124312  0  3.94106  0
C  C85  1  0.78492517  0.37448293  0.28990539  1  -0.05257  0  -0.087726  -0.124332  0  3.94106  0
C  C86  1  0.78491089  0.87447763  0.21009800  1  -0.053016  0  -0.087732  -0.124264  0  3.940991  0
C  C87  1  0.21508042  0.62551788  0.71009776  1  -0.053088  0  -0.087756  -0.124367  0  3.941142  0
C  C88  1  0.16194133  0.04486847  0.73021702  1  -0.006861  0  -0.012308  0.098574  0  4.027968  0
C  C89  1  0.83806512  0.45513740  0.23022023  1  -0.007519  0  -0.012188  0.098713  0  4.027995  0
C  C90  1  0.83805480  0.95513311  0.26978206  1  -0.006845  0  -0.012195  0.098673  0  4.027985  0
C  C91  1  0.16193982  0.54486006  0.76978002  1  -0.007081  0  -0.012198  0.098812  0  4.027907  0
C  C92  1  0.02230570  0.02010474  0.70246591  1  -0.016268  0  -0.085751  -0.117642  0  3.952538  0
C  C93  1  0.97769479  0.47989851  0.20246472  1  -0.015878  0  -0.085694  -0.117575  0  3.952444  0
C  C94  1  0.97768822  0.97989432  0.29753434  1  -0.016221  0  -0.085827  -0.117743  0  3.952763  0
C  C95  1  0.02231039  0.52010146  0.79753611  1  -0.016226  0  -0.085823  -0.117991  0  3.952616  0
C  C96  1  0.93860446  0.07309559  0.73303717  1  -0.128977  0  -0.08886  -0.127473  0  3.942517  0
C  C97  1  0.06139721  0.42690858  0.23303199  1  -0.1293  0  -0.088828  -0.127337  0  3.942448  0
C  C98  1  0.06138707  0.92690262  0.26696249  1  -0.129179  0  -0.088861  -0.127341  0  3.942323  0
C  C99  1  0.93861042  0.57309643  0.76697233  1  -0.12907  0  -0.088776  -0.127098  0  3.942276  0
C  C100  1  0.24704086  0.99074721  0.69350663  1  0.029435  0  -0.069353  -0.054919  0  3.96952  0
C  C101  1  0.75296690  0.50925759  0.19350775  1  0.028875  0  -0.06939  -0.055034  0  3.969842  0
C  C102  1  0.75295782  0.00925356  0.30649478  1  0.029455  0  -0.069379  -0.054945  0  3.969504  0
C  C103  1  0.24703386  0.49073732  0.80648958  1  0.029023  0  -0.06944  -0.055038  0  3.96952  0
C  C104  1  0.38363963  0.00681859  0.71040787  1  -0.14094  0  -0.104797  -0.258668  0  3.916799  0
C  C105  1  0.61636992  0.49318725  0.21040946  1  -0.140669  0  -0.104795  -0.258626  0  3.91673  0
C  C106  1  0.61636127  0.99318471  0.28959063  1  -0.141085  0  -0.104815  -0.258701  0  3.916811  0
C  C107  1  0.38363526  0.50681272  0.78958846  1  -0.140307  0  -0.104815  -0.258687  0  3.916726  0
C  C108  1  0.46694822  0.95972354  0.66298325  1  1.463533  0  0.194439  0.601329  0  4.195269  0
C  C109  1  0.53305753  0.54027864  0.16298274  1  1.463648  0  0.194342  0.601218  0  4.195243  0
C  C110  1  0.53305506  0.04028061  0.33701816  1  1.463582  0  0.194361  0.60129  0  4.195396  0
C  C111  1  0.46694166  0.45971709  0.83701285  1  1.463438  0  0.194368  0.601297  0  4.195218  0
C  C112  1  0.37950171  0.14193426  0.00048178  1  0.45352  0  0.047767  0.089536  0  3.939939  0
C  C113  1  0.62049890  0.35806594  0.50047869  1  0.454022  0  0.047766  0.089471  0  3.939977  0
C  C114  1  0.62049755  0.85806567  0.99951847  1  0.453332  0  0.047747  0.089529  0  3.93993  0
C  C115  1  0.37950251  0.64193233  0.49951864  1  0.454187  0  0.047736  0.089568  0  3.939965  0
C  C116  1  0.31251894  0.06332370  0.05805354  1  -0.004124  0  -0.081819  -0.131362  0  3.978486  0
C  C117  1  0.68748309  0.43667834  0.55804931  1  -0.004396  0  -0.081873  -0.131275  0  3.97866  0
C  C118  1  0.68748056  0.93667875  0.94194728  1  -0.004093  0  -0.081793  -0.131377  0  3.978428  0
C  C119  1  0.31251889  0.56331909  0.44194686  1  -0.004242  0  -0.081806  -0.131413  0  3.978507  0
C  C120  1  0.35305111  0.08998253  0.13543119  1  -0.062823  0  -0.058421  -0.011077  0  3.927297  0
C  C121  1  0.64695377  0.41002057  0.63542816  1  -0.062773  0  -0.058378  -0.01107  0  3.927337  0
C  C122  1  0.64695036  0.91001993  0.86456847  1  -0.062825  0  -0.058397  -0.011055  0  3.92721  0
C  C123  1  0.35304805  0.58997854  0.36456917  1  -0.062927  0  -0.058439  -0.011144  0  3.927231  0
C  C124  1  0.46079585  0.19389734  0.15266537  1  -0.018118  0  -0.077195  -0.113404  0  3.929041  0
C  C125  1  0.53920734  0.30610663  0.65266295  1  -0.018817  0  -0.077205  -0.113478  0  3.929105  0
C  C126  1  0.53920422  0.80610427  0.84733604  1  -0.018161  0  -0.077166  -0.113288  0  3.929115  0
C  C127  1  0.46079389  0.69389332  0.34733496  1  -0.01884  0  -0.077226  -0.113415  0  3.929003  0
C  C128  1  0.52414725  0.26729021  0.09179378  1  0.440758  0  0.044792  0.090561  0  3.929104  0
C  C129  1  0.47585595  0.23271277  0.59179194  1  0.441502  0  0.044822  0.090608  0  3.929222  0
C  C130  1  0.47585480  0.73271142  0.90820530  1  0.440759  0  0.044785  0.090549  0  3.929236  0
C  C131  1  0.52414430  0.76728717  0.40820714  1  0.441523  0  0.044812  0.090613  0  3.929151  0
N  N132  1  0.48356591  0.24263285  0.01719313  1  -1.262112  0  -0.330829  -0.241019  0  3.576489  0
N  N133  1  0.51643302  0.25736822  0.51719065  1  -1.262707  0  -0.330814  -0.241001  0  3.576555  0
N  N134  1  0.51643335  0.75736708  0.98280653  1  -1.262097  0  -0.330828  -0.241039  0  3.576517  0
N  N135  1  0.48356600  0.74262919  0.48280668  1  -1.262669  0  -0.330824  -0.241055  0  3.576641  0
O  O136  1  0.55810407  0.21979286  0.83902173  1  -1.182766  0  -0.323099  -0.574118  0  2.175957  0
O  O137  1  0.44189723  0.28020823  0.33902151  1  -1.182839  0  -0.32313  -0.574125  0  2.17594  0
O  O138  1  0.44188607  0.78020450  0.16098025  1  -1.182988  0  -0.322966  -0.573929  0  2.176159  0
O  O139  1  0.55810410  0.71978585  0.66097349  1  -1.183105  0  -0.322977  -0.573983  0  2.176035  0
O  O140  1  0.75777342  0.33215387  0.89881439  1  -1.162278  0  -0.336806  -0.55798  0  2.207119  0
O  O141  1  0.24222797  0.16785241  0.39881501  1  -1.162186  0  -0.336753  -0.557892  0  2.207145  0
O  O142  1  0.24222009  0.66784435  0.10118353  1  -1.16241  0  -0.336785  -0.557841  0  2.207248  0
O  O143  1  0.75777950  0.83215428  0.60118639  1  -1.162308  0  -0.336816  -0.55794  0  2.207182  0
O  O144  1  0.59332418  0.97553219  0.68164388  1  -1.166823  0  -0.307159  -0.540844  0  2.169542  0
O  O145  1  0.40668005  0.52446920  0.18164367  1  -1.166755  0  -0.307092  -0.540763  0  2.169531  0
O  O146  1  0.40667713  0.02447195  0.31835985  1  -1.166779  0  -0.307093  -0.540771  0  2.169628  0
O  O147  1  0.59332070  0.47552571  0.81835599  1  -1.166852  0  -0.307125  -0.540825  0  2.169616  0
O  O148  1  0.41097812  0.90239802  0.59945913  1  -1.180385  0  -0.334283  -0.589601  0  2.295437  0
O  O149  1  0.58903084  0.59760570  0.09946035  1  -1.180205  0  -0.334252  -0.589558  0  2.29546  0
O  O150  1  0.58902631  0.09760446  0.40054286  1  -1.180425  0  -0.334298  -0.589675  0  2.295489  0
O  O151  1  0.41097212  0.40239174  0.90053698  1  -1.180286  0  -0.334222  -0.589606  0  2.295369  0
O  O152  1  0.70026139  0.50256664  0.99878047  1  -1.246935  0  -0.563229  -0.741638  0  2.109591  0
O  O153  1  0.29973612  0.99743218  0.49878120  1  -1.246922  0  -0.563183  -0.741575  0  2.109555  0
O  O154  1  0.29973984  0.49743331  0.00121861  1  -1.246979  0  -0.563213  -0.741633  0  2.109487  0
O  O155  1  0.70026430  0.00256609  0.50121846  1  -1.246835  0  -0.563203  -0.74157  0  2.109567  0
