# generated using pymatgen
data_Zn2H13C27N8Cl
_symmetry_space_group_name_H-M   'P 1'
_cell_length_a   18.50783530
_cell_length_b   18.50490483
_cell_length_c   18.55865275
_cell_angle_alpha   111.41771901
_cell_angle_beta   111.35531696
_cell_angle_gamma   100.24446386
_symmetry_Int_Tables_number   1
_chemical_formula_structural   Zn2H13C27N8Cl
_chemical_formula_sum   'Zn4 H26 C54 N16 Cl2'
_cell_volume   5144.57424699
_cell_formula_units_Z   2
loop_
 _symmetry_equiv_pos_site_id
 _symmetry_equiv_pos_as_xyz
  1  'x, y, z'
loop_
 _atom_site_type_symbol
 _atom_site_label
 _atom_site_symmetry_multiplicity
 _atom_site_fract_x
 _atom_site_fract_y
 _atom_site_fract_z
 _atom_site_occupancy
 _atom_site_pbe_bader_charge
 _atom_site_pbe_bader_spin_density
 _atom_site_pbe_cm5_charge
 _atom_site_pbe_ddec_charge
 _atom_site_pbe_ddec_spin_density
 _atom_site_pbe_ddec_sum_bond_order
 _atom_site_pbe_magmom
C  C0  1  0.56907824  0.25943981  0.89800957  1  0.393692  0  0.021881  -0.044  0  3.956375  0
C  C1  1  0.67084267  0.51928898  0.89825437  1  0.392619  0  0.023725  -0.033556  0  3.91872  0
C  C2  1  0.27730272  0.27724790  0.80374852  1  0.155893  0  -0.025375  0.055791  0  4.176151  0
C  C3  1  0.45950116  0.38141458  0.67454056  1  0.453415  0  0.020109  -0.046536  0  3.958621  0
C  C4  1  0.38143603  0.45945195  0.67456127  1  0.453859  0  0.0204  -0.045769  0  3.957463  0
C  C5  1  0.65544209  0.73337974  0.24858830  1  0.408427  0  0.017264  -0.051803  0  3.962633  0
C  C6  1  0.73325298  0.65544214  0.24855261  1  0.417606  0  0.017107  -0.051704  0  3.962045  0
C  C7  1  0.51931776  0.67078153  0.89830324  1  0.390638  0  0.023596  -0.033057  0  3.918263  0
C  C8  1  0.41346110  0.41339829  0.62285992  1  0.097786  0  -0.028277  0.02969  0  4.222343  0
C  C9  1  0.73814891  0.73822369  0.28939348  1  0.118374  0  -0.028196  0.051941  0  4.193696  0
C  C10  1  0.74900674  0.57148560  0.97210625  1  0.151862  0  -0.024863  0.032736  0  4.198646  0
C  C11  1  0.57155377  0.74899255  0.97216403  1  0.152375  0  -0.025052  0.032546  0  4.198675  0
C  C12  1  0.25949283  0.56913951  0.89808348  1  0.394779  0  0.021756  -0.04363  0  3.955612  0
C  C13  1  0.99053602  0.07887580  0.61880442  1  -0.031277  0  -0.15837  -0.249782  0  3.850586  0
C  C14  1  0.07896602  0.99048774  0.61845536  1  -0.0335  0  -0.158192  -0.249483  0  3.849563  0
C  C15  1  0.00223270  0.91531961  0.54053321  1  0.096732  0  -0.035063  0.077292  0  3.724124  0
C  C16  1  0.91537137  0.00230210  0.54061399  1  0.101986  0  -0.035165  0.076679  0  3.724902  0
C  C17  1  0.80917484  0.80923519  0.35435758  1  -0.580061  0  -0.061896  -0.108929  0  4.186001  0
C  C18  1  0.07200021  0.07204915  0.61698138  1  0.116159  0  -0.00011  0.195545  0  3.899113  0
C  C19  1  0.94299494  0.94296940  0.48053913  1  0.128876  0  -0.004601  0.106285  0  3.895099  0
C  C20  1  0.32442311  0.63136848  0.04321580  1  0.439032  0  0.021235  -0.04448  0  3.957424  0
C  C21  1  0.63133990  0.32448063  0.04314490  1  0.45693  0  0.02143  -0.04434  0  3.957709  0
C  C22  1  0.99151223  0.99143047  0.45001568  1  -0.052542  0  -0.162042  -0.191218  0  3.847794  0
C  C23  1  0.06703339  0.06728405  0.52988127  1  -0.040403  0  -0.15423  -0.18441  0  3.832168  0
C  C24  1  0.87078603  0.87077453  0.40894637  1  0.262838  0  -0.061599  -0.131672  0  4.128604  0
C  C25  1  0.14363110  0.14366004  0.69104971  1  -0.163767  0  -0.052949  -0.125169  0  4.065551  0
C  C26  1  0.20499548  0.20495515  0.74781675  1  -0.191776  0  -0.064211  -0.121399  0  4.185839  0
C  C27  1  0.17168072  0.60941714  0.97235978  1  -0.226825  0  -0.031035  -0.06986  0  4.087972  0
C  C28  1  0.73303480  0.58484391  0.04388522  1  0.428005  0  0.023459  -0.029997  0  3.911068  0
C  C29  1  0.60939352  0.17165391  0.97224296  1  -0.227386  0  -0.031024  -0.069665  0  4.087582  0
C  C30  1  0.10636763  0.61238397  0.97399662  1  -0.024943  0  -0.047178  -0.057393  0  4.344118  0
C  C31  1  0.61239921  0.10636107  0.97393593  1  -0.023002  0  -0.047248  -0.057842  0  4.34352  0
C  C32  1  0.03466845  0.61344935  0.97531181  1  0.065503  0  -0.028617  -0.020703  0  4.255917  0
C  C33  1  0.61349794  0.03467927  0.97531613  1  0.064927  0  -0.02846  -0.020291  0  4.255062  0
C  C34  1  0.58487074  0.73304919  0.04392839  1  0.426464  0  0.023402  -0.029929  0  3.911249  0
C  C35  1  0.96779215  0.61190912  0.97583648  1  -0.101538  0  -0.027379  -0.016498  0  4.252301  0
C  C36  1  0.61198553  0.96780439  0.97586934  1  -0.100755  0  -0.027533  -0.016821  0  4.252017  0
C  C37  1  0.89431997  0.60548669  0.97531209  1  -0.121738  0  -0.046397  -0.061138  0  4.332815  0
C  C38  1  0.60558456  0.89432416  0.97535716  1  -0.119783  0  -0.046312  -0.060853  0  4.333732  0
C  C39  1  0.48604166  0.40776455  0.11684524  1  0.45624  0  0.023629  -0.0348  0  3.91739  0
C  C40  1  0.40773114  0.48604519  0.11687114  1  0.457866  0  0.023469  -0.034876  0  3.917773  0
C  C41  1  0.82616180  0.59451780  0.97397463  1  -0.066032  0  -0.025268  -0.05719  0  4.068501  0
C  C42  1  0.59461781  0.82616677  0.97405051  1  -0.068328  0  -0.025181  -0.057338  0  4.069376  0
C  C43  1  0.40305399  0.40296279  0.54070599  1  -0.332816  0  -0.030874  -0.067309  0  4.083373  0
C  C44  1  0.39556812  0.39551947  0.46941422  1  0.098754  0  -0.047597  -0.058242  0  4.338836  0
C  C45  1  0.39045108  0.39042266  0.39366067  1  -0.026714  0  -0.029924  -0.023627  0  4.251918  0
C  C46  1  0.38927577  0.38926656  0.32615266  1  0.005027  0  -0.026689  -0.015064  0  4.247473  0
C  C47  1  0.39383912  0.39383449  0.25739180  1  0.137722  0  -0.047879  -0.062304  0  4.328758  0
C  C48  1  0.40408775  0.40410476  0.19937414  1  -0.332134  0  -0.024507  -0.05631  0  4.064677  0
C  C49  1  0.28265210  0.36070035  0.83182077  1  0.400996  0  0.014554  -0.046015  0  3.925274  0
C  C50  1  0.36069696  0.28256387  0.83176928  1  0.399818  0  0.015017  -0.045664  0  3.924878  0
C  C51  1  0.60417198  0.24569182  0.97107235  1  0.18976  0  -0.027416  0.032585  0  4.220049  0
C  C52  1  0.24570699  0.60421742  0.97117150  1  0.205145  0  -0.027592  0.032169  0  4.220409  0
C  C53  1  0.42707333  0.42708988  0.14460315  1  0.10555  0  -0.024937  0.032798  0  4.194143  0
Cl  Cl54  1  0.03302273  0.83820815  0.47843140  1  -0.263145  0  -0.071603  -0.162873  0  1.317642  0
Cl  Cl55  1  0.83873513  0.03349763  0.47865729  1  -0.26383  0  -0.071418  -0.162452  0  1.31812  0
H  H56  1  0.54080705  0.21546784  0.82888646  1  0.11125  0  0.126455  0.116752  0  0.980914  0
H  H57  1  0.98409173  0.13578085  0.61623122  1  0.069828  0  0.097585  0.114012  0  0.98378  0
H  H58  1  0.13564727  0.98402403  0.61528755  1  0.07436  0  0.097473  0.113989  0  0.98323  0
H  H59  1  0.06290315  0.12552177  0.52912134  1  0.04554  0  0.09473  0.097428  0  0.972753  0
H  H60  1  0.12536174  0.06367538  0.52905267  1  0.049185  0  0.094947  0.097746  0  0.972678  0
H  H61  1  0.94887669  0.01088733  0.40868422  1  0.06022  0  0.091279  0.101241  0  0.9892  0
H  H62  1  0.01123572  0.94880140  0.40893142  1  0.057722  0  0.09123  0.100987  0  0.989028  0
H  H63  1  0.21558022  0.54086583  0.82896534  1  0.112238  0  0.12666  0.116799  0  0.980586  0
H  H64  1  0.34238548  0.66243449  0.11259725  1  0.082765  0  0.127621  0.11828  0  0.980353  0
H  H65  1  0.66241809  0.34254069  0.11253368  1  0.083614  0  0.127541  0.118177  0  0.980102  0
H  H66  1  0.51756661  0.36480674  0.12433190  1  0.098903  0  0.124752  0.114566  0  0.994862  0
H  H67  1  0.36474845  0.51754846  0.12436705  1  0.096528  0  0.124923  0.114742  0  0.994913  0
H  H68  1  0.23320756  0.38581880  0.82465097  1  0.110724  0  0.122044  0.112311  0  1.000188  0
H  H69  1  0.38576396  0.23307223  0.82456987  1  0.108895  0  0.121904  0.112239  0  0.999928  0
H  H70  1  0.49460364  0.34203792  0.65992967  1  0.096918  0  0.127578  0.118778  0  0.981206  0
H  H71  1  0.34207262  0.49455878  0.66000784  1  0.097092  0  0.127566  0.11868  0  0.981231  0
H  H72  1  0.63057979  0.78298103  0.26071747  1  0.10331  0  0.126302  0.117877  0  0.981298  0
H  H73  1  0.78278312  0.63050124  0.26061765  1  0.096888  0  0.12653  0.118263  0  0.981196  0
H  H74  1  0.77563663  0.62221774  0.11337967  1  0.134147  0  0.123587  0.112566  0  1.004194  0
H  H75  1  0.62225120  0.77566676  0.11342316  1  0.134797  0  0.123727  0.112615  0  1.004241  0
H  H76  1  0.49393870  0.65433049  0.82933978  1  0.122858  0  0.125783  0.115725  0  0.988088  0
H  H77  1  0.65445013  0.49393683  0.82929356  1  0.121678  0  0.125923  0.116037  0  0.987986  0
H  H78  1  0.88206575  0.96688984  0.56236876  1  0.069039  0  0.105293  0.080256  0  0.955011  0
H  H79  1  0.99308098  0.08385279  0.68056770  1  0.04589  0  0.099808  0.111386  0  0.966534  0
H  H80  1  0.96688536  0.88230338  0.56255531  1  0.070011  0  0.105133  0.079958  0  0.954895  0
H  H81  1  0.08440463  0.99303135  0.68035031  1  0.047457  0  0.099706  0.111354  0  0.966303  0
N  N82  1  0.57508150  0.33916114  0.92477300  1  -0.783464  0  -0.267344  -0.176702  0  3.540342  0
N  N83  1  0.45324885  0.50124743  0.07822059  1  -0.726456  0  -0.278496  -0.179945  0  3.619255  0
N  N84  1  0.50123516  0.45327359  0.07820098  1  -0.858013  0  -0.278582  -0.179418  0  3.618298  0
N  N85  1  0.36273949  0.41063736  0.87097190  1  -0.861059  0  -0.284221  -0.19001  0  3.633272  0
N  N86  1  0.41064446  0.36268395  0.87094348  1  -0.726551  0  -0.284262  -0.18973  0  3.632727  0
N  N87  1  0.45479759  0.40630493  0.74974207  1  -0.772191  0  -0.266149  -0.173529  0  3.546146  0
N  N88  1  0.40629035  0.45478651  0.74974794  1  -0.806648  0  -0.266374  -0.174101  0  3.547231  0
N  N89  1  0.33916912  0.57513131  0.92481527  1  -0.782002  0  -0.26725  -0.176367  0  3.540812  0
N  N90  1  0.60588520  0.65445402  0.18821269  1  -0.726067  0  -0.272763  -0.18471  0  3.542937  0
N  N91  1  0.65435846  0.60591188  0.18819977  1  -0.855684  0  -0.273152  -0.185161  0  3.544431  0
N  N92  1  0.65268493  0.54220961  0.01429550  1  -0.798267  0  -0.278335  -0.184386  0  3.61629  0
N  N93  1  0.54217586  0.65268365  0.01432445  1  -0.793078  0  -0.278463  -0.184618  0  3.617055  0
N  N94  1  0.50210169  0.61451209  0.92505959  1  -0.792108  0  -0.280609  -0.183671  0  3.633463  0
N  N95  1  0.61455492  0.50212932  0.92502408  1  -0.788814  0  -0.280886  -0.183682  0  3.633383  0
N  N96  1  0.37951015  0.61382247  0.01504670  1  -0.816042  0  -0.267254  -0.175937  0  3.54623  0
N  N97  1  0.61380179  0.37956056  0.01500313  1  -0.816484  0  -0.267369  -0.175548  0  3.548262  0
Zn  Zn98  1  0.51460553  0.39872032  0.86255678  1  1.190238  0  0.749116  0.616877  0  2.43869  0
Zn  Zn99  1  0.39864329  0.51460306  0.86252828  1  1.189843  0  0.749253  0.616566  0  2.441072  0
Zn  Zn100  1  0.49414852  0.60906918  0.07808248  1  1.193906  0  0.748626  0.620978  0  2.420999  0
Zn  Zn101  1  0.60907237  0.49419978  0.07808826  1  1.193718  0  0.748655  0.620262  0  2.423089  0
