# generated using pymatgen
data_CdH9C13NO6
_symmetry_space_group_name_H-M   'P 1'
_cell_length_a   7.53776916
_cell_length_b   8.76545162
_cell_length_c   19.92166549
_cell_angle_alpha   89.99933625
_cell_angle_beta   90.00036953
_cell_angle_gamma   99.07547262
_symmetry_Int_Tables_number   1
_chemical_formula_structural   CdH9C13NO6
_chemical_formula_sum   'Cd4 H36 C52 N4 O24'
_cell_volume   1299.78555774
_cell_formula_units_Z   4
loop_
 _symmetry_equiv_pos_site_id
 _symmetry_equiv_pos_as_xyz
  1  'x, y, z'
loop_
 _atom_site_type_symbol
 _atom_site_label
 _atom_site_symmetry_multiplicity
 _atom_site_fract_x
 _atom_site_fract_y
 _atom_site_fract_z
 _atom_site_occupancy
 _atom_site_hle17_bader_spin_density
 _atom_site_hle17_ddec_charge
 _atom_site_hle17_ddec_spin_density
 _atom_site_hle17_ddec_sum_bond_order
 _atom_site_hle17_magmom
 _atom_site_hse06_10hf_bader_spin_density
 _atom_site_hse06_10hf_ddec_charge
 _atom_site_hse06_10hf_ddec_spin_density
 _atom_site_hse06_10hf_ddec_sum_bond_order
 _atom_site_hse06_10hf_magmom
 _atom_site_hse06_bader_spin_density
 _atom_site_hse06_ddec_charge
 _atom_site_hse06_ddec_spin_density
 _atom_site_hse06_ddec_sum_bond_order
 _atom_site_hse06_magmom
 _atom_site_pbe_bader_spin_density
 _atom_site_pbe_cm5_charge
 _atom_site_pbe_ddec_charge
 _atom_site_pbe_ddec_spin_density
 _atom_site_pbe_ddec_sum_bond_order
 _atom_site_pbe_magmom
Cd  Cd0  1  0.80746240  0.41309684  0.94814960  1  0  1.188014  0  1.610841  0  0  1.000418  0  2.050199  0  0  1.060227  0  1.995283  0  0  0.778698  0.957711  0  2.087712  0
Cd  Cd1  1  0.69253336  0.58689441  0.44815417  1  0  1.188001  0  1.610772  0  0  1.000384  0  2.050129  0  0  1.060199  0  1.995206  0  0  0.778668  0.957677  0  2.08764  0
Cd  Cd2  1  0.19252789  0.58690042  0.05184431  1  0  1.188035  0  1.610689  0  0  1.000462  0  2.050058  0  0  1.060271  0  1.995142  0  0  0.778676  0.957757  0  2.087568  0
Cd  Cd3  1  0.30747256  0.41309546  0.55185530  1  0  1.187989  0  1.61085  0  0  1.00038  0  2.050212  0  0  1.060194  0  1.995293  0  0  0.778661  0.957672  0  2.087721  0
H  H4  1  0.62296427  0.46763905  0.06535557  1  0  0.427359  0  0.87541  0  0  0.396661  0  0.939436  0  0  0.407782  0  0.923318  0  0  0.290128  0.388748  0  0.95088  0
H  H5  1  0.87703372  0.53235686  0.56536110  1  0  0.427381  0  0.875366  0  0  0.396659  0  0.939433  0  0  0.407782  0  0.923319  0  0  0.290148  0.388742  0  0.950885  0
H  H6  1  0.37702464  0.53236405  0.93463533  1  0  0.427274  0  0.875505  0  0  0.396559  0  0.939564  0  0  0.407682  0  0.923445  0  0  0.290075  0.388642  0  0.951017  0
H  H7  1  0.12297636  0.46763987  0.43464184  1  0  0.427397  0  0.87534  0  0  0.396668  0  0.939419  0  0  0.407792  0  0.9233  0  0  0.29013  0.388755  0  0.950865  0
H  H8  1  0.53676121  0.30588295  0.04062952  1  0  0.435529  0  0.859052  0  0  0.407771  0  0.917047  0  0  0.418319  0  0.901752  0  0  0.29602  0.400265  0  0.927905  0
H  H9  1  0.96323622  0.69411241  0.54063495  1  0  0.43549  0  0.859111  0  0  0.407663  0  0.917188  0  0  0.418227  0  0.901876  0  0  0.296004  0.400158  0  0.928042  0
H  H10  1  0.46322161  0.69412263  0.95936087  1  0  0.435301  0  0.859356  0  0  0.407604  0  0.91725  0  0  0.41814  0  0.901969  0  0  0.295995  0.400108  0  0.928096  0
H  H11  1  0.03677360  0.30588316  0.45936799  1  0  0.43541  0  0.859207  0  0  0.407685  0  0.91714  0  0  0.418228  0  0.901851  0  0  0.295997  0.400179  0  0.927996  0
H  H12  1  0.05369434  0.69114947  0.88218610  1  0  0.10799  0  0.957465  0  0  0.11337  0  1.024598  0  0  0.116177  0  1.022772  0  0  0.119488  0.111259  0  1.02605  0
H  H13  1  0.44629805  0.30886177  0.38219221  1  0  0.107978  0  0.957428  0  0  0.113408  0  1.024515  0  0  0.116214  0  1.022703  0  0  0.119491  0.111294  0  1.025975  0
H  H14  1  0.94629893  0.30886745  0.11780731  1  0  0.108038  0  0.957455  0  0  0.113493  0  1.024493  0  0  0.116298  0  1.022693  0  0  0.119509  0.111378  0  1.025954  0
H  H15  1  0.55375218  0.69113039  0.61781876  1  0  0.108194  0  0.957178  0  0  0.113562  0  1.024316  0  0  0.116363  0  1.022533  0  0  0.119518  0.111448  0  1.025772  0
H  H16  1  0.87298318  0.08100911  0.94486465  1  0  0.114351  0  0.952563  0  0  0.125058  0  1.010726  0  0  0.128331  0  1.008712  0  0  0.108419  0.122693  0  1.012253  0
H  H17  1  0.62700112  0.91899066  0.44488093  1  0  0.114296  0  0.952627  0  0  0.124937  0  1.010874  0  0  0.128213  0  1.008857  0  0  0.108348  0.122571  0  1.012408  0
H  H18  1  0.12701548  0.91899605  0.05511922  1  0  0.114268  0  0.952697  0  0  0.124964  0  1.010847  0  0  0.128245  0  1.008822  0  0  0.10829  0.122591  0  1.012394  0
H  H19  1  0.37298125  0.08100681  0.55513758  1  0  0.114338  0  0.952528  0  0  0.125041  0  1.010699  0  0  0.128315  0  1.008685  0  0  0.108403  0.122679  0  1.01222  0
H  H20  1  0.75014844  0.30442293  0.79683414  1  0  0.08509  0  0.942433  0  0  0.093489  0  1.005353  0  0  0.095698  0  1.004071  0  0  0.114776  0.091849  0  1.006305  0
H  H21  1  0.74984744  0.69558712  0.29683178  1  0  0.085046  0  0.942371  0  0  0.093396  0  1.005336  0  0  0.095603  0  1.004061  0  0  0.114716  0.091762  0  1.006293  0
H  H22  1  0.24985204  0.69558451  0.20317132  1  0  0.085048  0  0.942382  0  0  0.093438  0  1.00531  0  0  0.095646  0  1.004035  0  0  0.114731  0.091802  0  1.006265  0
H  H23  1  0.25014248  0.30442060  0.70316816  1  0  0.085093  0  0.942362  0  0  0.093462  0  1.005298  0  0  0.095672  0  1.004017  0  0  0.114782  0.091827  0  1.006253  0
H  H24  1  0.40891006  0.02645818  0.80677285  1  0  0.128278  0  0.938886  0  0  0.135093  0  1.003573  0  0  0.139486  0  1.000691  0  0  0.110566  0.131976  0  1.005679  0
H  H25  1  0.09109466  0.97354877  0.30678876  1  0  0.128289  0  0.938811  0  0  0.135074  0  1.003522  0  0  0.139467  0  1.000641  0  0  0.110527  0.131959  0  1.005624  0
H  H26  1  0.59109129  0.97354110  0.19321153  1  0  0.128333  0  0.938752  0  0  0.135143  0  1.003433  0  0  0.139535  0  1.000553  0  0  0.110534  0.132028  0  1.005533  0
H  H27  1  0.90891882  0.02645135  0.69322874  1  0  0.128244  0  0.938866  0  0  0.135023  0  1.003602  0  0  0.139412  0  1.000728  0  0  0.110519  0.131905  0  1.005707  0
H  H28  1  0.78689357  0.42157291  0.68125921  1  0  0.109135  0  0.957487  0  0  0.117673  0  1.017523  0  0  0.120108  0  1.017884  0  0  0.107518  0.115862  0  1.017528  0
H  H29  1  0.71311036  0.57841652  0.18126037  1  0  0.109183  0  0.957556  0  0  0.117709  0  1.017591  0  0  0.120146  0  1.017947  0  0  0.107544  0.115898  0  1.017594  0
H  H30  1  0.21310789  0.57841476  0.31874323  1  0  0.109173  0  0.957501  0  0  0.117695  0  1.017524  0  0  0.120124  0  1.017903  0  0  0.107527  0.115882  0  1.017531  0
H  H31  1  0.28684638  0.42158513  0.81874057  1  0  0.109087  0  0.957555  0  0  0.117645  0  1.017519  0  0  0.120075  0  1.017895  0  0  0.10749  0.115831  0  1.017527  0
H  H32  1  0.95775905  0.68934598  0.66801939  1  0  0.132377  0  0.923314  0  0  0.14541  0  0.977274  0  0  0.149057  0  0.974242  0  0  0.119888  0.142615  0  0.979717  0
H  H33  1  0.54226350  0.31063862  0.16802650  1  0  0.132326  0  0.923403  0  0  0.145497  0  0.977243  0  0  0.149128  0  0.974235  0  0  0.119975  0.142719  0  0.979665  0
H  H34  1  0.04224932  0.31063685  0.33197502  1  0  0.132358  0  0.923329  0  0  0.145468  0  0.977222  0  0  0.1491  0  0.974211  0  0  0.11992  0.142676  0  0.979663  0
H  H35  1  0.45771390  0.68935434  0.83197946  1  0  0.132346  0  0.923223  0  0  0.145496  0  0.97711  0  0  0.149146  0  0.974075  0  0  0.119963  0.142704  0  0.97955  0
H  H36  1  0.84157464  0.90642646  0.84793086  1  0  0.130019  0  0.933097  0  0  0.137287  0  0.994794  0  0  0.141664  0  0.99181  0  0  0.111909  0.134159  0  0.997033  0
H  H37  1  0.65843562  0.09357847  0.34795091  1  0  0.129851  0  0.933059  0  0  0.136998  0  0.994931  0  0  0.141367  0  0.991962  0  0  0.111777  0.133875  0  0.997166  0
H  H38  1  0.15842233  0.09358920  0.15204749  1  0  0.129839  0  0.933212  0  0  0.136976  0  0.995096  0  0  0.141347  0  0.992123  0  0  0.111753  0.133853  0  0.997333  0
H  H39  1  0.34158086  0.90641112  0.65207011  1  0  0.129898  0  0.933074  0  0  0.137042  0  0.994922  0  0  0.141412  0  0.991953  0  0  0.111811  0.133917  0  0.997152  0
C  C40  1  0.30867757  0.14347372  0.89112431  1  0  -0.025853  0  3.726743  0  0  -0.00882  0  3.957255  0  0  -0.011802  0  3.976868  0  0  -0.005501  -0.007016  0  3.944301  0
C  C41  1  0.19131330  0.85654199  0.39114307  1  0  -0.026142  0  3.727054  0  0  -0.008981  0  3.957644  0  0  -0.011964  0  3.977269  0  0  -0.005613  -0.007081  0  3.944533  0
C  C42  1  0.69132159  0.85653375  0.10885705  1  0  -0.026035  0  3.727237  0  0  -0.008904  0  3.957689  0  0  -0.011897  0  3.977318  0  0  -0.005533  -0.007005  0  3.944579  0
C  C43  1  0.80868347  0.14346671  0.60887744  1  0  -0.025985  0  3.727137  0  0  -0.008949  0  3.95759  0  0  -0.011933  0  3.977212  0  0  -0.005571  -0.007036  0  3.94448  0
C  C44  1  0.48661342  0.24172835  0.90433151  1  0  0.637644  0  3.934596  0  0  0.585145  0  4.22914  0  0  0.619667  0  4.221894  0  0  0.1978  0.561727  0  4.233183  0
C  C45  1  0.01337533  0.75827664  0.40434330  1  0  0.638055  0  3.933665  0  0  0.585523  0  4.228211  0  0  0.620042  0  4.220967  0  0  0.197992  0.562074  0  4.232254  0
C  C46  1  0.51338391  0.75827685  0.09564784  1  0  0.638017  0  3.933808  0  0  0.585746  0  4.227974  0  0  0.620269  0  4.220726  0  0  0.198041  0.562296  0  4.232018  0
C  C47  1  0.98661490  0.24172642  0.59566818  1  0  0.637714  0  3.934387  0  0  0.585239  0  4.228885  0  0  0.619761  0  4.221644  0  0  0.197836  0.56179  0  4.232926  0
C  C48  1  0.17805750  0.26006598  0.99213548  1  0  0.672937  0  3.895753  0  0  0.617518  0  4.197903  0  0  0.65279  0  4.189378  0  0  0.21072  0.593392  0  4.20308  0
C  C49  1  0.32195558  0.73993388  0.49215115  1  0  0.673285  0  3.89526  0  0  0.6178  0  4.197627  0  0  0.653091  0  4.189073  0  0  0.210672  0.59365  0  4.202826  0
C  C50  1  0.82194750  0.73993785  0.00784839  1  0  0.67306  0  3.895393  0  0  0.617598  0  4.197725  0  0  0.652892  0  4.189167  0  0  0.210678  0.593447  0  4.20293  0
C  C51  1  0.67805400  0.26006053  0.50786635  1  0  0.673203  0  3.895467  0  0  0.617841  0  4.197517  0  0  0.653107  0  4.188993  0  0  0.210878  0.593706  0  4.202705  0
C  C52  1  0.15810137  0.15815564  0.93114584  1  0  -0.097654  0  3.738768  0  0  -0.08686  0  3.979083  0  0  -0.093959  0  4.000995  0  0  -0.019944  -0.082256  0  3.96455  0
C  C53  1  0.34189634  0.84185775  0.43116455  1  0  -0.097562  0  3.738718  0  0  -0.087049  0  3.979452  0  0  -0.094154  0  4.001367  0  0  -0.019795  -0.082425  0  3.964816  0
C  C54  1  0.84189251  0.84185198  0.06883653  1  0  -0.097474  0  3.738737  0  0  -0.086979  0  3.979431  0  0  -0.094083  0  4.001351  0  0  -0.019843  -0.082353  0  3.964795  0
C  C55  1  0.65810496  0.15814734  0.56885546  1  0  -0.097793  0  3.739287  0  0  -0.08698  0  3.979531  0  0  -0.094077  0  4.001446  0  0  -0.019976  -0.082395  0  3.964944  0
C  C56  1  0.99474633  0.63669691  0.83649946  1  0  0.010248  0  3.698459  0  0  -0.028661  0  3.955155  0  0  -0.024206  0  3.972443  0  0  0.035452  -0.031487  0  3.943557  0
C  C57  1  0.50524161  0.36331006  0.33650420  1  0  0.010298  0  3.698355  0  0  -0.028672  0  3.954976  0  0  -0.024226  0  3.972262  0  0  0.03542  -0.031492  0  3.943372  0
C  C58  1  0.00525044  0.36331179  0.16349546  1  0  0.010064  0  3.698598  0  0  -0.028872  0  3.955191  0  0  -0.024431  0  3.97248  0  0  0.035425  -0.031694  0  3.943589  0
C  C59  1  0.49478167  0.63668631  0.66350427  1  0  0.010112  0  3.698147  0  0  -0.028795  0  3.954915  0  0  -0.024356  0  3.972198  0  0  0.035421  -0.031617  0  3.943314  0
C  C60  1  0.01542778  0.71108916  0.77422113  1  0  0.226338  0  3.789653  0  0  0.218513  0  4.056834  0  0  0.224361  0  4.073652  0  0  0.091644  0.214015  0  4.045587  0
C  C61  1  0.48457629  0.28891744  0.27423045  1  0  0.226247  0  3.78946  0  0  0.218579  0  4.056531  0  0  0.22443  0  4.073344  0  0  0.091554  0.214075  0  4.045292  0
C  C62  1  0.98457331  0.28890897  0.22577077  1  0  0.226296  0  3.789433  0  0  0.218573  0  4.056533  0  0  0.224425  0  4.073346  0  0  0.091667  0.214079  0  4.045284  0
C  C63  1  0.51543034  0.71108170  0.72578102  1  0  0.22655  0  3.78937  0  0  0.218738  0  4.056626  0  0  0.224589  0  4.073439  0  0  0.091674  0.214236  0  4.045382  0
C  C64  1  0.99128530  0.07215861  0.91473029  1  0  -0.051583  0  3.739103  0  0  -0.074988  0  3.993427  0  0  -0.07483  0  4.013816  0  0  -0.083085  -0.074972  0  3.979682  0
C  C65  1  0.50870744  0.92785793  0.41474824  1  0  -0.05175  0  3.739491  0  0  -0.075036  0  3.99384  0  0  -0.074881  0  4.014233  0  0  -0.083134  -0.075038  0  3.980086  0
C  C66  1  0.00871248  0.92785471  0.08525308  1  0  -0.051658  0  3.739225  0  0  -0.074943  0  3.993522  0  0  -0.074792  0  4.013925  0  0  -0.082996  -0.074943  0  3.979765  0
C  C67  1  0.49129147  0.07214839  0.58527077  1  0  -0.051461  0  3.739343  0  0  -0.074873  0  3.993584  0  0  -0.074716  0  4.013974  0  0  -0.082973  -0.074865  0  3.979845  0
C  C68  1  0.82633400  0.41907608  0.78819260  1  0  0.098073  0  3.727666  0  0  0.062838  0  3.983554  0  0  0.069394  0  4.002584  0  0  0.033018  0.058557  0  3.970575  0
C  C69  1  0.67366182  0.58092837  0.28819364  1  0  0.098211  0  3.727727  0  0  0.063109  0  3.98345  0  0  0.069661  0  4.002483  0  0  0.03314  0.058816  0  3.970484  0
C  C70  1  0.17366389  0.58092562  0.21180684  1  0  0.098154  0  3.727748  0  0  0.062977  0  3.983547  0  0  0.069532  0  4.002576  0  0  0.033076  0.058688  0  3.970575  0
C  C71  1  0.32632948  0.41907351  0.71180880  1  0  0.098136  0  3.727753  0  0  0.062997  0  3.983494  0  0  0.06955  0  4.002525  0  0  0.033017  0.058706  0  3.970522  0
C  C72  1  0.29205243  0.04063852  0.83697747  1  0  -0.1769  0  3.691399  0  0  -0.209372  0  3.941023  0  0  -0.212632  0  3.957621  0  0  -0.091859  -0.207138  0  3.929956  0
C  C73  1  0.20795184  0.95937002  0.33699475  1  0  -0.176884  0  3.691461  0  0  -0.209361  0  3.941127  0  0  -0.212611  0  3.95771  0  0  -0.091758  -0.207164  0  3.930036  0
C  C74  1  0.70794597  0.95936549  0.16300540  1  0  -0.177032  0  3.691536  0  0  -0.209546  0  3.941215  0  0  -0.212792  0  3.957792  0  0  -0.091775  -0.207353  0  3.930129  0
C  C75  1  0.79205849  0.04062786  0.66302075  1  0  -0.176906  0  3.691323  0  0  -0.209323  0  3.940941  0  0  -0.212593  0  3.957557  0  0  -0.091812  -0.207122  0  3.929842  0
C  C76  1  0.84644874  0.48521594  0.72467367  1  0  -0.088056  0  3.74817  0  0  -0.10034  0  4.005414  0  0  -0.105952  0  4.027804  0  0  -0.081974  -0.096847  0  3.990511  0
C  C77  1  0.65355251  0.51477598  0.22467449  1  0  -0.088154  0  3.74841  0  0  -0.10039  0  4.005681  0  0  -0.106  0  4.028071  0  0  -0.081972  -0.096896  0  3.990785  0
C  C78  1  0.15355191  0.51477407  0.27532526  1  0  -0.088226  0  3.748484  0  0  -0.100437  0  4.005759  0  0  -0.106051  0  4.02815  0  0  -0.081995  -0.09694  0  3.990854  0
C  C79  1  0.34642935  0.48521918  0.77532895  1  0  -0.087911  0  3.748343  0  0  -0.1001  0  4.005516  0  0  -0.105716  0  4.027912  0  0  -0.081812  -0.096603  0  3.990612  0
C  C80  1  0.94198620  0.63383388  0.71709974  1  0  -0.101865  0  3.662028  0  0  -0.134682  0  3.920948  0  0  -0.13309  0  3.935998  0  0  -0.072715  -0.135418  0  3.9109  0
C  C81  1  0.55802603  0.36616026  0.21710511  1  0  -0.101688  0  3.662087  0  0  -0.13479  0  3.921154  0  0  -0.133189  0  3.936209  0  0  -0.072745  -0.135539  0  3.911106  0
C  C82  1  0.05801866  0.36615718  0.28289617  1  0  -0.101658  0  3.662015  0  0  -0.134663  0  3.921024  0  0  -0.133061  0  3.93608  0  0  -0.072679  -0.135401  0  3.910976  0
C  C83  1  0.44195929  0.63383249  0.78290135  1  0  -0.10205  0  3.662097  0  0  -0.135127  0  3.921246  0  0  -0.133536  0  3.936295  0  0  -0.072951  -0.135864  0  3.911204  0
C  C84  1  0.12439564  0.95572162  0.82220308  1  0  0.2615  0  3.794861  0  0  0.254831  0  4.056896  0  0  0.264832  0  4.072949  0  0  0.082928  0.247937  0  4.045926  0
C  C85  1  0.37561003  0.04428841  0.32221739  1  0  0.261467  0  3.794489  0  0  0.254759  0  4.056515  0  0  0.264763  0  4.072564  0  0  0.082838  0.247858  0  4.04556  0
C  C86  1  0.87560038  0.04428362  0.17778029  1  0  0.261495  0  3.794408  0  0  0.254793  0  4.056446  0  0  0.264801  0  4.072486  0  0  0.082875  0.2479  0  4.045483  0
C  C87  1  0.62440137  0.95570827  0.67779861  1  0  0.261722  0  3.794568  0  0  0.255001  0  4.056596  0  0  0.265013  0  4.07263  0  0  0.082956  0.248098  0  4.045638  0
C  C88  1  0.97261428  0.97226688  0.85997603  1  0  -0.166313  0  3.728023  0  0  -0.191048  0  3.985586  0  0  -0.194988  0  4.003276  0  0  -0.095264  -0.188427  0  3.973737  0
C  C89  1  0.52738734  0.02774611  0.35999458  1  0  -0.166063  0  3.727772  0  0  -0.190603  0  3.985124  0  0  -0.194548  0  4.002829  0  0  -0.095156  -0.187982  0  3.973266  0
C  C90  1  0.02738558  0.02774986  0.14000583  1  0  -0.166044  0  3.727778  0  0  -0.190593  0  3.98512  0  0  -0.194539  0  4.002819  0  0  -0.095167  -0.187968  0  3.973259  0
C  C91  1  0.47261873  0.97225653  0.64002242  1  0  -0.166264  0  3.727899  0  0  -0.190857  0  3.985433  0  0  -0.194793  0  4.003115  0  0  -0.095225  -0.188234  0  3.97358  0
N  N92  1  0.90013841  0.49451339  0.84274767  1  0  -0.330063  0  3.330755  0  0  -0.247683  0  3.600494  0  0  -0.268225  0  3.620447  0  0  -0.335639  -0.233602  0  3.586605  0
N  N93  1  0.59985087  0.50549920  0.34274741  1  0  -0.330202  0  3.330797  0  0  -0.247861  0  3.60054  0  0  -0.268401  0  3.620494  0  0  -0.335638  -0.233778  0  3.58665  0
N  N94  1  0.09985623  0.50549769  0.15725126  1  0  -0.330027  0  3.330768  0  0  -0.247711  0  3.60055  0  0  -0.268251  0  3.620508  0  0  -0.335649  -0.233631  0  3.58666  0
N  N95  1  0.40016525  0.49450085  0.65725855  1  0  -0.330216  0  3.33088  0  0  -0.247884  0  3.600651  0  0  -0.268423  0  3.620604  0  0  -0.335655  -0.233802  0  3.58676  0
O  O96  1  0.49104632  0.38738989  0.91181245  1  0  -0.678962  0  2.060602  0  0  -0.610842  0  2.299401  0  0  -0.641293  0  2.290945  0  0  -0.322  -0.589349  0  2.304477  0
O  O97  1  0.00895263  0.61260651  0.41182196  1  0  -0.679146  0  2.060042  0  0  -0.611026  0  2.29888  0  0  -0.641475  0  2.290419  0  0  -0.322098  -0.589537  0  2.303972  0
O  O98  1  0.50894874  0.61260491  0.08818096  1  0  -0.679169  0  2.060216  0  0  -0.611159  0  2.298972  0  0  -0.641609  0  2.290509  0  0  -0.322134  -0.58967  0  2.304065  0
O  O99  1  0.99104978  0.38739158  0.58818651  1  0  -0.678973  0  2.060455  0  0  -0.610856  0  2.299237  0  0  -0.641306  0  2.290779  0  0  -0.322012  -0.589368  0  2.304328  0
O  O100  1  0.65640871  0.36737204  0.05037619  1  0  -0.82491  0  1.826817  0  0  -0.760249  0  2.005145  0  0  -0.784369  0  1.973263  0  0  -0.582496  -0.743091  0  2.02734  0
O  O101  1  0.84358910  0.63262424  0.55037963  1  0  -0.824951  0  1.826872  0  0  -0.760191  0  2.005316  0  0  -0.784335  0  1.973387  0  0  -0.582524  -0.743029  0  2.027507  0
O  O102  1  0.34357913  0.63263226  0.94961671  1  0  -0.824629  0  1.82721  0  0  -0.760001  0  2.005477  0  0  -0.784109  0  1.973624  0  0  -0.582425  -0.74285  0  2.027646  0
O  O103  1  0.15641967  0.36737252  0.44962281  1  0  -0.824881  0  1.826995  0  0  -0.760183  0  2.005269  0  0  -0.784299  0  1.973398  0  0  -0.58248  -0.743025  0  2.027462  0
O  O104  1  0.05979596  0.35219973  0.00035307  1  0  -0.707028  0  2.086388  0  0  -0.616276  0  2.357782  0  0  -0.651436  0  2.344286  0  0  -0.341648  -0.591354  0  2.366115  0
O  O105  1  0.44021097  0.64779956  0.50036369  1  0  -0.707121  0  2.086235  0  0  -0.616283  0  2.357608  0  0  -0.651449  0  2.344109  0  0  -0.341578  -0.59136  0  2.365952  0
O  O106  1  0.94020589  0.64780187  0.99963532  1  0  -0.707066  0  2.086331  0  0  -0.616238  0  2.357683  0  0  -0.651409  0  2.344184  0  0  -0.341563  -0.591312  0  2.366024  0
O  O107  1  0.55979277  0.35219850  0.49964778  1  0  -0.707036  0  2.086284  0  0  -0.616311  0  2.357674  0  0  -0.651469  0  2.344177  0  0  -0.341678  -0.591386  0  2.366009  0
O  O108  1  0.62717927  0.17912347  0.90668054  1  0  -0.618874  0  1.932532  0  0  -0.558561  0  2.161338  0  0  -0.586769  0  2.151745  0  0  -0.319253  -0.538643  0  2.167071  0
O  O109  1  0.87282059  0.82088378  0.40668688  1  0  -0.618858  0  1.932344  0  0  -0.558532  0  2.161142  0  0  -0.586737  0  2.151548  0  0  -0.319264  -0.538622  0  2.16689  0
O  O110  1  0.37282511  0.82088967  0.09329279  1  0  -0.618953  0  1.932277  0  0  -0.558753  0  2.160998  0  0  -0.586962  0  2.151401  0  0  -0.319347  -0.538839  0  2.166752  0
O  O111  1  0.12717913  0.17912019  0.59331907  1  0  -0.618866  0  1.932467  0  0  -0.558582  0  2.161278  0  0  -0.586793  0  2.151695  0  0  -0.319278  -0.538669  0  2.167025  0
O  O112  1  0.30348609  0.25572666  0.03273996  1  0  -0.604938  0  1.94675  0  0  -0.557277  0  2.170139  0  0  -0.580666  0  2.159256  0  0  -0.308032  -0.540809  0  2.177177  0
O  O113  1  0.19651776  0.74424985  0.53275702  1  0  -0.605176  0  1.946559  0  0  -0.557376  0  2.169864  0  0  -0.580775  0  2.158971  0  0  -0.30805  -0.540905  0  2.176919  0
O  O114  1  0.69650984  0.74425999  0.96724592  1  0  -0.605003  0  1.946596  0  0  -0.557286  0  2.169929  0  0  -0.580682  0  2.15903  0  0  -0.308076  -0.540816  0  2.176983  0
O  O115  1  0.80348301  0.25572854  0.46726198  1  0  -0.60506  0  1.946637  0  0  -0.557432  0  2.169973  0  0  -0.580814  0  2.159079  0  0  -0.30812  -0.540966  0  2.17702  0
O  O116  1  0.11247578  0.85691009  0.76677522  1  0  -0.291838  0  2.339378  0  0  -0.225414  0  2.564618  0  0  -0.243658  0  2.567933  0  0  -0.149566  -0.21235  0  2.561928  0
O  O117  1  0.38752693  0.14309092  0.26678655  1  0  -0.291784  0  2.339361  0  0  -0.225385  0  2.564566  0  0  -0.243629  0  2.567881  0  0  -0.149508  -0.212324  0  2.561888  0
O  O118  1  0.88751846  0.14308706  0.23321317  1  0  -0.291789  0  2.33919  0  0  -0.225401  0  2.564439  0  0  -0.243647  0  2.56775  0  0  -0.14958  -0.21235  0  2.56176  0
O  O119  1  0.61249036  0.85689632  0.73322644  1  0  -0.291987  0  2.339446  0  0  -0.225528  0  2.564694  0  0  -0.243774  0  2.568006  0  0  -0.149503  -0.212464  0  2.562007  0
