# generated using pymatgen
data_Zr3H10C25N5O26
_symmetry_space_group_name_H-M   'P 1'
_cell_length_a   14.77748015
_cell_length_b   14.77410717
_cell_length_c   14.83683471
_cell_angle_alpha   59.74270625
_cell_angle_beta   59.86081691
_cell_angle_gamma   60.25905564
_symmetry_Int_Tables_number   1
_chemical_formula_structural   Zr3H10C25N5O26
_chemical_formula_sum   'Zr6 H20 C50 N10 O52'
_cell_volume   2288.00538853
_cell_formula_units_Z   2
loop_
 _symmetry_equiv_pos_site_id
 _symmetry_equiv_pos_as_xyz
  1  'x, y, z'
loop_
 _atom_site_type_symbol
 _atom_site_label
 _atom_site_symmetry_multiplicity
 _atom_site_fract_x
 _atom_site_fract_y
 _atom_site_fract_z
 _atom_site_occupancy
 _atom_site_pbe_bader_charge
 _atom_site_pbe_bader_spin_density
 _atom_site_pbe_cm5_charge
 _atom_site_pbe_ddec_charge
 _atom_site_pbe_ddec_spin_density
 _atom_site_pbe_ddec_sum_bond_order
 _atom_site_pbe_magmom
Zr  Zr0  1  0.88218092  0.87743938  0.62048557  1  2.63713  0  1.630595  2.374398  0  2.732014  0
Zr  Zr1  1  0.12407118  0.11654804  0.38078283  1  2.640485  0  1.637896  2.376124  0  2.75633  0
Zr  Zr2  1  0.12107929  0.87663417  0.62102257  1  2.638647  0  1.632007  2.376018  0  2.748445  0
Zr  Zr3  1  0.88496278  0.11786943  0.37978329  1  2.638175  0  1.631956  2.374007  0  2.748608  0
Zr  Zr4  1  0.12211812  0.87806923  0.38114929  1  2.637325  0  1.634359  2.379913  0  2.746293  0
Zr  Zr5  1  0.88387500  0.11679337  0.61924300  1  2.639526  0  1.634054  2.377684  0  2.749767  0
H  H6  1  0.09317573  0.71417056  0.59739716  1  0.606818  0  0.333517  0.426658  0  0.852769  0
H  H7  1  0.09803961  0.09379864  0.21784744  1  0.608591  0  0.333876  0.426334  0  0.851339  0
H  H8  1  0.09803503  0.09042918  0.59463413  1  0.590128  0  0.332671  0.425618  0  0.853244  0
H  H9  1  0.72067944  0.09165249  0.59269753  1  0.607025  0  0.332613  0.424743  0  0.85545  0
H  H10  1  0.14981147  0.58477401  0.35868810  1  0.20055  0  0.126731  0.154027  0  0.988986  0
H  H11  1  0.84470820  0.42468229  0.62306108  1  0.197422  0  0.126403  0.152548  0  0.997427  0
H  H12  1  0.60536047  0.12791591  0.92378916  1  0.166357  0  0.126795  0.153872  0  0.994028  0
H  H13  1  0.39765173  0.87231091  0.07414055  1  0.173424  0  0.126475  0.152474  0  0.99874  0
H  H14  1  0.85178520  0.13248140  0.09582633  1  0.164056  0  0.127152  0.150003  0  0.98819  0
H  H15  1  0.14593011  0.85585793  0.91199777  1  0.128235  0  0.129259  0.153722  0  0.975075  0
H  H16  1  0.58941997  0.40867671  0.35863397  1  0.169452  0  0.127393  0.147922  0  0.988607  0
H  H17  1  0.42322753  0.59266164  0.63504283  1  0.166641  0  0.128508  0.153414  0  0.980352  0
H  H18  1  0.14701109  0.41968703  0.08506096  1  0.123267  0  0.110853  0.127591  0  0.997637  0
H  H19  1  0.14366431  0.58790550  0.91702612  1  0.124168  0  0.110667  0.120657  0  0.986365  0
H  H20  1  0.73199212  0.63758703  0.98327631  1  0.090712  0  0.096507  0.117155  0  1.006256  0
H  H21  1  0.80865843  0.55434499  0.89779860  1  0.094257  0  0.099267  0.125142  0  1.00712  0
H  H22  1  0.81342529  0.38219571  0.06763697  1  0.056234  0  0.099371  0.11232  0  0.979342  0
H  H23  1  0.73598055  0.46637364  0.15274641  1  0.055699  0  0.096274  0.108377  0  0.989696  0
H  H24  1  0.59337705  0.85205636  0.64008693  1  0.177462  0  0.124364  0.143115  0  1.009685  0
H  H25  1  0.41863696  0.13817314  0.35307274  1  0.18304  0  0.125741  0.150841  0  0.997538  0
C  C26  1  0.99546370  0.70070600  0.49412336  1  1.590879  0  0.242637  0.648127  0  4.098993  0
C  C27  1  0.30988895  0.99501098  0.20069049  1  1.586624  0  0.241918  0.647693  0  4.104103  0
C  C28  1  0.00247336  0.30353842  0.49481825  1  1.595703  0  0.243286  0.648858  0  4.098393  0
C  C29  1  0.69820080  0.99830310  0.80279735  1  1.587491  0  0.241775  0.645126  0  4.104656  0
C  C30  1  0.99536955  0.69980735  0.80955685  1  1.508316  0  0.239248  0.651109  0  4.091563  0
C  C31  1  0.70342662  0.99561252  0.49498789  1  1.564731  0  0.243186  0.651482  0  4.088618  0
C  C32  1  0.00072394  0.30529592  0.20333131  1  1.511745  0  0.239767  0.650438  0  4.093921  0
C  C33  1  0.30967271  0.99265095  0.49830949  1  1.597179  0  0.241678  0.646644  0  4.101359  0
C  C34  1  0.30874192  0.69649803  0.49708189  1  1.583179  0  0.241727  0.645551  0  4.104609  0
C  C35  1  0.99782682  0.99421937  0.80778551  1  1.590262  0  0.241294  0.644391  0  4.106085  0
C  C36  1  0.70363082  0.30480408  0.49662648  1  1.586419  0  0.240973  0.644645  0  4.10658  0
C  C37  1  0.00107311  0.99488491  0.19905583  1  1.597279  0  0.240931  0.64492  0  4.104158  0
C  C38  1  0.00124233  0.40729845  0.49058116  1  -0.004223  0  0.003087  -0.059267  0  3.915204  0
C  C39  1  0.99259908  0.60280614  0.49045094  1  0.061676  0  0.004274  -0.056503  0  3.908902  0
C  C40  1  0.08546980  0.45494241  0.41577383  1  0.155874  0  0.095501  0.071945  0  3.902835  0
C  C41  1  0.90703449  0.55675765  0.56282814  1  0.19024  0  0.094744  0.068281  0  3.917311  0
C  C42  1  0.08237871  0.55047084  0.41552978  1  0.047868  0  -0.058679  -0.116695  0  3.886159  0
C  C43  1  0.91119837  0.46003795  0.56484480  1  0.072087  0  -0.059817  -0.116969  0  3.896065  0
C  C44  1  0.40820124  0.99942748  0.09697018  1  0.035615  0  0.002928  -0.06096  0  3.915982  0
C  C45  1  0.59358709  0.00215564  0.90044609  1  0.062574  0  0.005376  -0.05401  0  3.912559  0
C  C46  1  0.46566550  0.07349387  0.05059068  1  0.188919  0  0.097489  0.07419  0  3.902812  0
C  C47  1  0.53096306  0.93399295  0.94242144  1  0.180851  0  0.093994  0.066394  0  3.91332  0
C  C48  1  0.55873646  0.07334003  0.95578856  1  0.065684  0  -0.058526  -0.114849  0  3.882578  0
C  C49  1  0.44266058  0.92871171  0.04101756  1  0.065891  0  -0.05933  -0.116279  0  3.893684  0
C  C50  1  0.99655426  0.99559427  0.90882650  1  0.085683  0  0.003948  -0.056695  0  3.907708  0
C  C51  1  0.00142594  0.99307285  0.09870657  1  0.015109  0  0.004005  -0.055202  0  3.905709  0
C  C52  1  0.91544767  0.07365268  0.96140400  1  0.179642  0  0.095282  0.070296  0  3.908604  0
C  C53  1  0.08327292  0.91585607  0.04531167  1  0.189805  0  0.094378  0.067755  0  3.913742  0
C  C54  1  0.91664570  0.07250944  0.05490603  1  0.069276  0  -0.060665  -0.121467  0  3.896274  0
C  C55  1  0.08126777  0.91604463  0.95273301  1  0.039705  0  -0.058922  -0.118242  0  3.894599  0
C  C56  1  0.41025457  0.59579706  0.49543348  1  0.08644  0  0.004461  -0.054551  0  3.905823  0
C  C57  1  0.60207114  0.40542810  0.49841732  1  0.064289  0  0.004035  -0.056102  0  3.906722  0
C  C58  1  0.45886242  0.54230988  0.41831921  1  0.141294  0  0.094287  0.067762  0  3.911924  0
C  C59  1  0.55237647  0.45781261  0.57664895  1  0.178916  0  0.095107  0.070337  0  3.910344  0
C  C60  1  0.55317338  0.44957771  0.41868445  1  0.000841  0  -0.060795  -0.122603  0  3.902717  0
C  C61  1  0.45921359  0.55174259  0.57508075  1  0.072629  0  -0.05973  -0.120112  0  3.892184  0
C  C62  1  0.99256556  0.60302550  0.91303065  1  -0.005667  0  -0.015079  -0.094371  0  3.983859  0
C  C63  1  0.99624539  0.40873769  0.10682050  1  -0.076709  0  -0.013874  -0.089655  0  3.986302  0
C  C64  1  0.90909396  0.55555583  0.96875738  1  -0.000416  0  0.000734  0.071601  0  3.874868  0
C  C65  1  0.07983721  0.45773785  0.05254141  1  0.024612  0  -0.07805  -0.089438  0  3.949065  0
C  C66  1  0.91119021  0.46060400  0.06327338  1  0.001504  0  -0.001825  0.062235  0  3.880587  0
C  C67  1  0.07780434  0.55216596  0.95832792  1  -0.080899  0  -0.080606  -0.093204  0  3.962526  0
C  C68  1  0.80242590  0.56341115  0.96985458  1  -0.029575  0  -0.152461  -0.203392  0  3.8427  0
C  C69  1  0.80494015  0.45581519  0.07640255  1  -0.021129  0  -0.148663  -0.190308  0  3.864882  0
C  C70  1  0.41075442  0.99226389  0.49881758  1  0.076347  0  0.00316  -0.058357  0  3.907363  0
C  C71  1  0.60212754  0.99684829  0.49400613  1  -0.047159  0  0.004974  -0.056544  0  3.896422  0
C  C72  1  0.46112052  0.91293657  0.57925360  1  0.170926  0  0.094725  0.068905  0  3.893345  0
C  C73  1  0.55080007  0.07725525  0.41441532  1  0.240708  0  0.094887  0.069185  0  3.89783  0
C  C74  1  0.55512433  0.91428814  0.57736455  1  0.118497  0  -0.058854  -0.103315  0  3.896965  0
C  C75  1  0.45716980  0.07553526  0.41573503  1  0.016677  0  -0.058836  -0.111124  0  3.881417  0
N  N76  1  0.18449781  0.40481808  0.33435226  1  0.443781  0  0.065216  0.523364  0  4.231791  0
N  N77  1  0.80478923  0.60994111  0.63930051  1  0.44504  0  0.065874  0.524989  0  4.233946  0
N  N78  1  0.43135279  0.15640548  0.09960445  1  0.430414  0  0.066323  0.524957  0  4.231614  0
N  N79  1  0.54899694  0.87131029  0.87926266  1  0.411281  0  0.065314  0.52383  0  4.224395  0
N  N80  1  0.82369077  0.16303640  0.92014853  1  0.447653  0  0.064397  0.522445  0  4.236587  0
N  N81  1  0.17842347  0.83030654  0.08290418  1  0.420692  0  0.065903  0.524732  0  4.234248  0
N  N82  1  0.41188206  0.58008311  0.33255529  1  0.437756  0  0.064885  0.522846  0  4.236623  0
N  N83  1  0.59511485  0.41574482  0.66690936  1  0.434847  0  0.064996  0.521459  0  4.238293  0
N  N84  1  0.41644754  0.82329510  0.67199101  1  0.425581  0  0.067363  0.531507  0  4.221986  0
N  N85  1  0.59287205  0.16971223  0.32469706  1  0.480959  0  0.067507  0.529736  0  4.22822  0
O  O86  1  0.92108688  0.73643548  0.57345662  1  -1.171889  0  -0.344416  -0.608768  0  2.305932  0
O  O87  1  0.27197903  0.06987064  0.24142789  1  -1.169886  0  -0.346685  -0.607668  0  2.32898  0
O  O88  1  0.08035285  0.26269864  0.42018687  1  -1.17491  0  -0.346234  -0.606387  0  2.331811  0
O  O89  1  0.73881754  0.91904121  0.76706227  1  -1.169298  0  -0.34397  -0.607001  0  2.307457  0
O  O90  1  0.07453994  0.73851671  0.76637807  1  -1.180777  0  -0.366631  -0.628256  0  2.294468  0
O  O91  1  0.74367273  0.07254736  0.41832266  1  -1.167128  0  -0.351508  -0.617257  0  2.326795  0
O  O92  1  0.92476198  0.26357176  0.24219193  1  -1.173651  0  -0.362458  -0.621143  0  2.287306  0
O  O93  1  0.26945660  0.91577116  0.57516518  1  -1.173536  0  -0.349154  -0.614384  0  2.323856  0
O  O94  1  0.26929200  0.73634270  0.42063469  1  -1.16663  0  -0.347083  -0.609165  0  2.319932  0
O  O95  1  0.92154654  0.07043038  0.76802377  1  -1.173433  0  -0.347705  -0.610304  0  2.316447  0
O  O96  1  0.74413077  0.26584712  0.57203375  1  -1.174276  0  -0.34713  -0.610288  0  2.324438  0
O  O97  1  0.07749088  0.91867699  0.23841150  1  -1.170227  0  -0.345951  -0.609327  0  2.323603  0
O  O98  1  0.07563857  0.91822275  0.76914246  1  -1.167274  0  -0.338307  -0.59504  0  2.27176  0
O  O99  1  0.74030483  0.26585776  0.42088856  1  -1.16471  0  -0.338676  -0.595446  0  2.27463  0
O  O100  1  0.92548290  0.07294774  0.23586731  1  -1.170568  0  -0.3403  -0.597411  0  2.269815  0
O  O101  1  0.26959340  0.73308068  0.57522957  1  -1.161765  0  -0.339674  -0.596398  0  2.268325  0
O  O102  1  0.92028243  0.73764967  0.76822259  1  -1.169431  0  -0.351654  -0.605784  0  2.254902  0
O  O103  1  0.27090728  0.07056183  0.42199545  1  -1.168018  0  -0.341884  -0.592866  0  2.289728  0
O  O104  1  0.07969765  0.26269996  0.24072238  1  -1.173575  0  -0.35585  -0.611036  0  2.286728  0
O  O105  1  0.74075721  0.91903216  0.57273582  1  -1.164101  0  -0.34058  -0.594021  0  2.292607  0
O  O106  1  0.73879722  0.07426545  0.76428945  1  -1.169285  0  -0.345445  -0.597735  0  2.287576  0
O  O107  1  0.07454236  0.73806122  0.41932540  1  -1.17418  0  -0.345674  -0.598689  0  2.290526  0
O  O108  1  0.27066891  0.91818347  0.23871236  1  -1.171626  0  -0.343521  -0.596695  0  2.281391  0
O  O109  1  0.92602427  0.26385041  0.57329674  1  -1.168224  0  -0.345267  -0.59897  0  2.278993  0
O  O110  1  0.80093860  0.06525956  0.56669885  1  -1.235534  0  -0.692117  -1.070955  0  2.357708  0
O  O111  1  0.07072527  0.06364924  0.56847528  1  -1.220347  0  -0.692941  -1.073858  0  2.35685  0
O  O112  1  0.07195249  0.06438471  0.29816269  1  -1.235131  0  -0.694436  -1.073387  0  2.36202  0
O  O113  1  0.06889530  0.79451979  0.56805658  1  -1.232535  0  -0.692174  -1.072015  0  2.355677  0
O  O114  1  0.15166489  0.94676905  0.45161274  1  -1.203382  0  -0.791033  -1.153492  0  2.12725  0
O  O115  1  0.95339735  0.94797023  0.45060811  1  -1.202272  0  -0.78892  -1.15203  0  2.123141  0
O  O116  1  0.95459247  0.14594258  0.45074659  1  -1.196858  0  -0.792059  -1.152294  0  2.137414  0
O  O117  1  0.95233423  0.94774075  0.64910397  1  -1.199882  0  -0.790833  -1.150702  0  2.132825  0
O  O118  1  0.26234090  0.33224348  0.36741161  1  -0.4373  0  -0.117322  -0.313397  0  1.906858  0
O  O119  1  0.18241868  0.44329931  0.23970211  1  -0.420848  0  -0.103934  -0.293679  0  1.888929  0
O  O120  1  0.79466719  0.56749385  0.73832833  1  -0.427195  0  -0.103005  -0.299559  0  1.913376  0
O  O121  1  0.73530637  0.68925581  0.59748165  1  -0.451004  0  -0.110347  -0.307786  0  1.942163  0
O  O122  1  0.36828647  0.24870333  0.06346783  1  -0.414126  0  -0.106853  -0.297267  0  1.881658  0
O  O123  1  0.47275838  0.12753224  0.16826135  1  -0.431878  0  -0.111669  -0.307364  0  1.922763  0
O  O124  1  0.52788927  0.92840322  0.79184214  1  -0.439962  0  -0.12169  -0.323204  0  1.927619  0
O  O125  1  0.57674527  0.76952796  0.92036777  1  -0.418685  0  -0.097039  -0.290042  0  1.910296  0
O  O126  1  0.84017229  0.25178302  0.85393345  1  -0.431656  0  -0.113241  -0.304601  0  1.885017  0
O  O127  1  0.73710399  0.14266807  0.95974027  1  -0.430635  0  -0.107555  -0.302695  0  1.926397  0
O  O128  1  0.26063331  0.85794406  0.04396311  1  -0.437913  0  -0.113695  -0.311852  0  1.921306  0
O  O129  1  0.16953622  0.73793334  0.14503500  1  -0.402592  0  -0.106538  -0.297496  0  1.895035  0
O  O130  1  0.33840027  0.54432733  0.36068450  1  -0.427478  0  -0.11311  -0.308784  0  1.911725  0
O  O131  1  0.45386852  0.63938446  0.23938856  1  -0.428571  0  -0.109569  -0.299715  0  1.884346  0
O  O132  1  0.55806867  0.34686369  0.75394354  1  -0.427556  0  -0.111599  -0.303065  0  1.890852  0
O  O133  1  0.65968835  0.45733694  0.64906536  1  -0.42671  0  -0.108328  -0.302258  0  1.923784  0
O  O134  1  0.34780175  0.84406984  0.75753696  1  -0.445675  0  -0.11858  -0.316985  0  1.898602  0
O  O135  1  0.45498177  0.73408547  0.65770607  1  -0.418951  0  -0.113891  -0.31017  0  1.908676  0
O  O136  1  0.55556242  0.25528020  0.34531107  1  -0.445985  0  -0.117106  -0.314129  0  1.90117  0
O  O137  1  0.65802875  0.15513421  0.23565828  1  -0.447986  0  -0.112821  -0.309375  0  1.912039  0
