# generated using pymatgen
data_AlH7C14O5F
_symmetry_space_group_name_H-M   'P 1'
_cell_length_a   6.65758582
_cell_length_b   13.39762467
_cell_length_c   17.68509997
_cell_angle_alpha   91.19910746
_cell_angle_beta   79.92511708
_cell_angle_gamma   71.99288839
_symmetry_Int_Tables_number   1
_chemical_formula_structural   AlH7C14O5F
_chemical_formula_sum   'Al2 H14 C28 O10 F2'
_cell_volume   1472.29236722
_cell_formula_units_Z   2
loop_
 _symmetry_equiv_pos_site_id
 _symmetry_equiv_pos_as_xyz
  1  'x, y, z'
loop_
 _atom_site_type_symbol
 _atom_site_label
 _atom_site_symmetry_multiplicity
 _atom_site_fract_x
 _atom_site_fract_y
 _atom_site_fract_z
 _atom_site_occupancy
 _atom_site_pbe_bader_charge
 _atom_site_pbe_bader_spin_density
 _atom_site_pbe_cm5_charge
 _atom_site_pbe_ddec_charge
 _atom_site_pbe_ddec_spin_density
 _atom_site_pbe_ddec_sum_bond_order
 _atom_site_pbe_magmom
Al  Al0  1  0.00001022  0.49999029  0.50000164  1  2.502273  0  0.398621  1.651143  0  2.576408  0
Al  Al1  1  0.50002084  0.49997937  0.50000069  1  2.502261  0  0.398557  1.649606  0  2.576024  0
H  H2  1  0.15233601  0.59982882  0.57767410  1  0.62159  0  0.356361  0.43447  0  0.846263  0
H  H3  1  0.84765933  0.40025389  0.42224236  1  0.620832  0  0.356309  0.434478  0  0.846145  0
H  H4  1  0.05054880  0.49630705  0.26834041  1  0.079982  0  0.109197  0.116441  0  1.00262  0
H  H5  1  0.12561319  0.48710671  0.12421181  1  0.127553  0  0.106939  0.116864  0  1.005375  0
H  H6  1  0.63948876  0.56500043  0.27196522  1  0.097532  0  0.118967  0.147392  0  0.988182  0
H  H7  1  0.36053695  0.43491738  0.72803798  1  0.097031  0  0.11901  0.147248  0  0.987995  0
H  H8  1  0.94940287  0.50366721  0.73166262  1  0.080004  0  0.109224  0.116482  0  1.002984  0
H  H9  1  0.87436523  0.51288738  0.87579212  1  0.127781  0  0.106904  0.116777  0  1.005095  0
H  H10  1  0.85943170  0.81925013  0.46851503  1  0.119944  0  0.111918  0.120165  0  0.995149  0
H  H11  1  0.22035669  0.81482148  0.56003110  1  0.075125  0  0.10765  0.111597  0  0.999256  0
H  H12  1  0.07766446  0.01032073  0.56154869  1  0.088429  0  0.104023  0.105044  0  1.003125  0
H  H13  1  0.14052032  0.18076288  0.53148330  1  0.119528  0  0.111929  0.12011  0  0.995103  0
H  H14  1  0.77959153  0.18519572  0.43997427  1  0.075292  0  0.107665  0.11163  0  0.999247  0
H  H15  1  0.92229485  0.98969320  0.43845763  1  0.088821  0  0.104033  0.105132  0  1.002929  0
C  C16  1  0.63192455  0.68963431  0.51312236  1  1.518047  0  0.269681  0.646097  0  4.08628  0
C  C17  1  0.69356247  0.47555499  0.63606740  1  1.570844  0  0.26536  0.635192  0  4.10308  0
C  C18  1  0.36806559  0.31035811  0.48688359  1  1.517912  0  0.269645  0.646076  0  4.086801  0
C  C19  1  0.30647762  0.52438275  0.36393360  1  1.572596  0  0.265358  0.635369  0  4.103153  0
C  C20  1  0.34089340  0.52966107  0.27868408  1  -0.034295  0  -0.011789  -0.016074  0  3.984558  0
C  C21  1  0.19489755  0.50952653  0.23686131  1  0.029995  0  -0.085497  -0.108082  0  3.994767  0
C  C22  1  0.23684457  0.50402149  0.15699201  1  -0.034423  0  -0.07561  -0.097529  0  3.939738  0
C  C23  1  0.42641277  0.51901889  0.11618145  1  0.078161  0  -0.003001  0.035182  0  4.121856  0
C  C24  1  0.56481938  0.54342972  0.16019040  1  0.363206  0  0.106716  0.247778  0  4.020674  0
C  C25  1  0.52656926  0.54843903  0.23978378  1  0.127988  0  -0.090293  -0.221584  0  3.979941  0
C  C26  1  0.47801464  0.50707897  0.03506324  1  0.223372  0  -0.035661  -0.076552  0  4.115694  0
C  C27  1  0.52187895  0.49297183  0.96494296  1  -0.43256  0  -0.035346  -0.076205  0  4.115267  0
C  C28  1  0.57352233  0.48101558  0.88382194  1  0.077931  0  -0.002978  0.035346  0  4.121849  0
C  C29  1  0.43519301  0.45651637  0.83981418  1  0.361959  0  0.106682  0.247554  0  4.020665  0
C  C30  1  0.47340952  0.45152568  0.76022589  1  0.129547  0  -0.090287  -0.22123  0  3.979414  0
C  C31  1  0.65907156  0.47033227  0.72131400  1  -0.035189  0  -0.011785  -0.016081  0  3.98423  0
C  C32  1  0.80505946  0.49049113  0.76313893  1  0.029854  0  -0.085412  -0.108019  0  3.994633  0
C  C33  1  0.76307296  0.49599856  0.84301378  1  -0.03416  0  -0.075552  -0.097524  0  3.940006  0
C  C34  1  0.68887777  0.86198081  0.48826302  1  -0.086334  0  -0.073512  -0.13401  0  3.920495  0
C  C35  1  0.32630882  0.86061275  0.54022547  1  -0.098602  0  -0.084972  -0.096441  0  3.995998  0
C  C36  1  0.24825267  0.96846430  0.54063562  1  -0.011317  0  -0.086939  -0.132467  0  3.995633  0
C  C37  1  0.38737386  0.02733342  0.51345476  1  0.025885  0  -0.001941  0.079629  0  3.997677  0
C  C38  1  0.31107564  0.13802995  0.51173862  1  -0.085848  0  -0.073268  -0.133693  0  3.920073  0
C  C39  1  0.67366114  0.13938532  0.45977677  1  -0.098845  0  -0.084942  -0.096425  0  3.996322  0
C  C40  1  0.75171692  0.03154241  0.45936888  1  -0.011062  0  -0.086956  -0.132688  0  3.995729  0
C  C41  1  0.61258800  0.97267337  0.48654857  1  -0.033655  0  -0.00196  0.07967  0  3.99763  0
C  C42  1  0.54902166  0.80656726  0.51410401  1  0.060595  0  -0.015176  -0.041952  0  3.990324  0
C  C43  1  0.45095109  0.19343379  0.48589576  1  0.060018  0  -0.015388  -0.042049  0  3.990488  0
O  O44  1  0.83513675  0.64598088  0.50112971  1  -1.236895  0  -0.234601  -0.591285  0  2.339056  0
O  O45  1  0.54818814  0.46354428  0.60191327  1  -1.260873  0  -0.238557  -0.589456  0  2.329927  0
O  O46  1  0.50735111  0.35866713  0.47542988  1  -1.270664  0  -0.237998  -0.60228  0  2.342824  0
O  O47  1  0.13736069  0.50443313  0.39567259  1  -1.266587  0  -0.236435  -0.597719  0  2.358678  0
O  O48  1  0.16486391  0.35401449  0.49887663  1  -1.237001  0  -0.234598  -0.591278  0  2.339521  0
O  O49  1  0.45192062  0.53634803  0.39806617  1  -1.261149  0  -0.238501  -0.589476  0  2.33016  0
O  O50  1  0.49266049  0.64130945  0.52457860  1  -1.270984  0  -0.238043  -0.60232  0  2.34245  0
O  O51  1  0.86268554  0.49551772  0.60432793  1  -1.265432  0  -0.23646  -0.597624  0  2.35816  0
O  O52  1  0.20650526  0.54103898  0.53891911  1  -1.419901  0  -0.447562  -0.996694  0  2.212993  0
O  O53  1  0.79351778  0.45895956  0.46107662  1  -1.419113  0  -0.447439  -0.996777  0  2.21339  0
F  F54  1  0.74617608  0.56053563  0.12213646  1  -0.634063  0  -0.096105  -0.144465  0  1.350858  0
F  F55  1  0.25398153  0.43928704  0.87787831  1  -0.632939  0  -0.096179  -0.144492  0  1.35092  0
