# generated using pymatgen
data_DyH5C6N2O7
_symmetry_space_group_name_H-M   'P 1'
_cell_length_a   9.67993117
_cell_length_b   9.67994193
_cell_length_c   9.67992493
_cell_angle_alpha   79.37177683
_cell_angle_beta   79.37196809
_cell_angle_gamma   79.37181112
_symmetry_Int_Tables_number   1
_chemical_formula_structural   DyH5C6N2O7
_chemical_formula_sum   'Dy3 H15 C18 N6 O21'
_cell_volume   865.47965069
_cell_formula_units_Z   3
loop_
 _symmetry_equiv_pos_site_id
 _symmetry_equiv_pos_as_xyz
  1  'x, y, z'
loop_
 _atom_site_type_symbol
 _atom_site_label
 _atom_site_symmetry_multiplicity
 _atom_site_fract_x
 _atom_site_fract_y
 _atom_site_fract_z
 _atom_site_occupancy
 _atom_site_pbe_bader_spin_density
 _atom_site_pbe_cm5_charge
 _atom_site_pbe_ddec_charge
 _atom_site_pbe_ddec_spin_density
 _atom_site_pbe_ddec_sum_bond_order
 _atom_site_pbe_magmom
Dy  Dy0  1  0.50000408  0.00907138  0.99093394  1  0  1.515634  2.004658  0  2.199564  0
Dy  Dy1  1  0.99093304  0.50000222  0.00907304  1  0  1.515616  2.004573  0  2.199712  0
Dy  Dy2  1  0.00907208  0.99093148  0.50000460  1  0  1.515638  2.00455  0  2.199754  0
H  H3  1  0.41174294  0.58826461  0.99999916  1  0  0.126897  0.166137  0  0.985448  0
H  H4  1  0.00000139  0.41174035  0.58826635  1  0  0.12688  0.166108  0  0.985455  0
H  H5  1  0.58826573  0.99999924  0.41174186  1  0  0.126893  0.166131  0  0.985464  0
H  H6  1  0.76504964  0.85432284  0.07513826  1  0  0.304209  0.405563  0  0.920754  0
H  H7  1  0.07513999  0.76504768  0.85432502  1  0  0.30422  0.405571  0  0.920744  0
H  H8  1  0.85432454  0.07513630  0.76505111  1  0  0.304197  0.405517  0  0.920822  0
H  H9  1  0.92486975  0.14567830  0.23495774  1  0  0.304226  0.405611  0  0.920675  0
H  H10  1  0.14568092  0.23495508  0.92487328  1  0  0.304213  0.405575  0  0.920745  0
H  H11  1  0.23495637  0.92487209  0.14567993  1  0  0.304219  0.405577  0  0.920747  0
H  H12  1  0.76681967  0.02356071  0.06301817  1  0  0.297563  0.394106  0  0.946205  0
H  H13  1  0.06301824  0.76681721  0.02356199  1  0  0.297561  0.394083  0  0.946243  0
H  H14  1  0.02356268  0.06301483  0.76682013  1  0  0.297552  0.394067  0  0.94626  0
H  H15  1  0.93699142  0.97644257  0.23318578  1  0  0.29759  0.394163  0  0.946119  0
H  H16  1  0.97644383  0.23318371  0.93699389  1  0  0.297591  0.394153  0  0.946135  0
H  H17  1  0.23318570  0.93699113  0.97644365  1  0  0.297595  0.394162  0  0.946122  0
C  C18  1  0.66974157  0.66605026  0.00150000  1  0  0.244311  0.614408  0  4.148945  0
C  C19  1  0.00150203  0.66973846  0.66604993  1  0  0.244274  0.614368  0  4.148992  0
C  C20  1  0.66605075  0.00150114  0.66974222  1  0  0.244299  0.614399  0  4.148943  0
C  C21  1  0.99850108  0.33395301  0.33026697  1  0  0.24428  0.614481  0  4.149031  0
C  C22  1  0.33395559  0.33026540  0.99850264  1  0  0.244237  0.614392  0  4.149006  0
C  C23  1  0.33026510  0.99850295  0.33395543  1  0  0.244246  0.614356  0  4.14904  0
C  C24  1  0.63878940  0.51942994  0.99892595  1  0  0.132279  0.172455  0  4.021422  0
C  C25  1  0.99892779  0.63878716  0.51943141  1  0  0.13235  0.172559  0  4.021319  0
C  C26  1  0.51943200  0.99892704  0.63879000  1  0  0.132334  0.17249  0  4.02131  0
C  C27  1  0.00107793  0.48057297  0.36121853  1  0  0.132396  0.172461  0  4.021634  0
C  C28  1  0.48057629  0.36121817  0.00107671  1  0  0.132381  0.172506  0  4.021574  0
C  C29  1  0.36122007  0.00107596  0.48057530  1  0  0.132352  0.172503  0  4.02154  0
C  C30  1  0.49966805  0.50033544  0.00000055  1  0  -0.086161  -0.231803  0  3.90128  0
C  C31  1  0.00000370  0.49966590  0.50033612  1  0  -0.086155  -0.231777  0  3.901298  0
C  C32  1  0.50033635  0.00000064  0.49966854  1  0  -0.08617  -0.231817  0  3.901292  0
C  C33  1  0.72253665  0.27746267  0.00000274  1  0  0.339153  0.661822  0  4.054032  0
C  C34  1  0.00000121  0.72253448  0.27746201  1  0  0.339117  0.661787  0  4.054099  0
C  C35  1  0.27746355  0.00000056  0.72253731  1  0  0.339158  0.661876  0  4.054015  0
N  N36  1  0.74880738  0.41297059  0.00060660  1  0  -0.36216  -0.497511  0  3.303357  0
N  N37  1  0.00060641  0.74880456  0.41297125  1  0  -0.362184  -0.497507  0  3.303153  0
N  N38  1  0.41297280  0.00060484  0.74880810  1  0  -0.362186  -0.497553  0  3.30333  0
N  N39  1  0.99939659  0.58703697  0.25119968  1  0  -0.362221  -0.497527  0  3.303581  0
N  N40  1  0.58703974  0.25119940  0.99939893  1  0  -0.362178  -0.497478  0  3.303492  0
N  N41  1  0.25120006  0.99939807  0.58703904  1  0  -0.36218  -0.497472  0  3.303385  0
O  O42  1  0.57434028  0.76968310  0.97309999  1  0  -0.378619  -0.610345  0  2.292972  0
O  O43  1  0.97310203  0.57433961  0.76968248  1  0  -0.378604  -0.610325  0  2.293056  0
O  O44  1  0.76968409  0.97310178  0.57434173  1  0  -0.378626  -0.610338  0  2.293023  0
O  O45  1  0.02690057  0.23031979  0.42566693  1  0  -0.378558  -0.610293  0  2.292975  0
O  O46  1  0.23032250  0.42566350  0.02690397  1  0  -0.37857  -0.610321  0  2.292985  0
O  O47  1  0.42566560  0.02690345  0.23032228  1  0  -0.378564  -0.610315  0  2.292946  0
O  O48  1  0.78941120  0.67381983  0.03508834  1  0  -0.375441  -0.648611  0  2.329317  0
O  O49  1  0.03509015  0.78940948  0.67382094  1  0  -0.375452  -0.648618  0  2.329295  0
O  O50  1  0.67382167  0.03509082  0.78941257  1  0  -0.375459  -0.648631  0  2.329292  0
O  O51  1  0.96491039  0.32618453  0.21059425  1  0  -0.375506  -0.648725  0  2.329376  0
O  O52  1  0.32618607  0.21059227  0.96491100  1  0  -0.375442  -0.648634  0  2.329297  0
O  O53  1  0.21059244  0.96491430  0.32618467  1  0  -0.375459  -0.648613  0  2.329401  0
O  O54  1  0.82561217  0.17439179  0.00000310  1  0  -0.289429  -0.539644  0  2.190158  0
O  O55  1  0.00000029  0.82561072  0.17439112  1  0  -0.289343  -0.539577  0  2.190225  0
O  O56  1  0.17439437  0.00000016  0.82561349  1  0  -0.28939  -0.53966  0  2.190186  0
O  O57  1  0.70652584  0.94583807  0.09408139  1  0  -0.665214  -0.860677  0  2.102807  0
O  O58  1  0.09408213  0.70652347  0.94583998  1  0  -0.665232  -0.860643  0  2.102873  0
O  O59  1  0.94583995  0.09407786  0.70652746  1  0  -0.6652  -0.860566  0  2.102964  0
O  O60  1  0.90593035  0.05416305  0.29347903  1  0  -0.665252  -0.860757  0  2.102756  0
O  O61  1  0.05416519  0.29347713  0.90593237  1  0  -0.665248  -0.860704  0  2.102799  0
O  O62  1  0.29347808  0.90593058  0.05416546  1  0  -0.665258  -0.860726  0  2.102764  0
