# generated using pymatgen
data_ZnH8C10(N3O2)2
_symmetry_space_group_name_H-M   'P 1'
_cell_length_a   7.32331016
_cell_length_b   9.67302921
_cell_length_c   9.82390165
_cell_angle_alpha   62.11821072
_cell_angle_beta   79.64412230
_cell_angle_gamma   71.10180417
_symmetry_Int_Tables_number   1
_chemical_formula_structural   ZnH8C10(N3O2)2
_chemical_formula_sum   'Zn2 H16 C20 N12 O8'
_cell_volume   581.63475915
_cell_formula_units_Z   2
loop_
 _symmetry_equiv_pos_site_id
 _symmetry_equiv_pos_as_xyz
  1  'x, y, z'
loop_
 _atom_site_type_symbol
 _atom_site_label
 _atom_site_symmetry_multiplicity
 _atom_site_fract_x
 _atom_site_fract_y
 _atom_site_fract_z
 _atom_site_occupancy
 _atom_site_hle17_bader_spin_density
 _atom_site_hle17_ddec_charge
 _atom_site_hle17_ddec_spin_density
 _atom_site_hle17_ddec_sum_bond_order
 _atom_site_hle17_magmom
 _atom_site_hse06_10hf_bader_spin_density
 _atom_site_hse06_10hf_ddec_charge
 _atom_site_hse06_10hf_ddec_spin_density
 _atom_site_hse06_10hf_ddec_sum_bond_order
 _atom_site_hse06_10hf_magmom
 _atom_site_hse06_bader_spin_density
 _atom_site_hse06_ddec_charge
 _atom_site_hse06_ddec_spin_density
 _atom_site_hse06_ddec_sum_bond_order
 _atom_site_hse06_magmom
 _atom_site_pbe_bader_spin_density
 _atom_site_pbe_cm5_charge
 _atom_site_pbe_ddec_charge
 _atom_site_pbe_ddec_spin_density
 _atom_site_pbe_ddec_sum_bond_order
 _atom_site_pbe_magmom
Zn  Zn0  1  0.24293246  0.49338532  0.08577153  1  0  1.100122  0  1.774383  0  0  0.91851  0  2.251717  0  0  0.966722  0  2.191742  0  0  0.704349  0.880759  0  2.297495  0
Zn  Zn1  1  0.75706498  0.50661443  0.91422873  1  0  1.100133  0  1.774361  0  0  0.918534  0  2.251678  0  0  0.966742  0  2.191702  0  0  0.704374  0.880784  0  2.297454  0
H  H2  1  0.86273396  0.17448558  0.42006195  1  0  0.149286  0  0.951571  0  0  0.149666  0  1.02309  0  0  0.155383  0  1.019496  0  0  0.112939  0.144992  0  1.026823  0
H  H3  1  0.13725785  0.82551421  0.57994100  1  0  0.14925  0  0.951597  0  0  0.149611  0  1.02314  0  0  0.155329  0  1.019542  0  0  0.112893  0.144936  0  1.026872  0
H  H4  1  0.07848988  0.40547177  0.41671226  1  0  0.095283  0  0.984123  0  0  0.100814  0  1.057867  0  0  0.103724  0  1.054704  0  0  0.12296  0.098678  0  1.06022  0
H  H5  1  0.92150933  0.59452674  0.58328835  1  0  0.095273  0  0.984136  0  0  0.100785  0  1.057892  0  0  0.103694  0  1.054733  0  0  0.122972  0.098651  0  1.060244  0
H  H6  1  0.12133770  0.86241729  0.91444655  1  0  0.09643  0  0.952721  0  0  0.102796  0  1.018799  0  0  0.105418  0  1.015903  0  0  0.129229  0.100974  0  1.020831  0
H  H7  1  0.87867317  0.13758361  0.08555462  1  0  0.096448  0  0.952673  0  0  0.102786  0  1.018777  0  0  0.105407  0  1.015882  0  0  0.129221  0.100959  0  1.020824  0
H  H8  1  0.16886793  0.33986385  0.67927010  1  0  0.109161  0  0.940911  0  0  0.117406  0  1.006252  0  0  0.119567  0  1.004054  0  0  0.139483  0.115596  0  1.008188  0
H  H9  1  0.83112426  0.66013954  0.32072605  1  0  0.10909  0  0.940893  0  0  0.117346  0  1.006234  0  0  0.119502  0  1.004038  0  0  0.139446  0.115535  0  1.008169  0
H  H10  1  0.46557448  0.67437579  0.41211591  1  0  0.147198  0  0.969776  0  0  0.150588  0  1.037794  0  0  0.155622  0  1.035052  0  0  0.108952  0.147288  0  1.039598  0
H  H11  1  0.53442680  0.32562513  0.58788131  1  0  0.147194  0  0.969765  0  0  0.150585  0  1.037788  0  0  0.155619  0  1.035046  0  0  0.108946  0.147283  0  1.039591  0
H  H12  1  0.30825431  0.91312955  0.08324731  1  0  0.099294  0  0.983153  0  0  0.103364  0  1.058348  0  0  0.106269  0  1.0563  0  0  0.123397  0.10163  0  1.059426  0
H  H13  1  0.69174655  0.08687259  0.91675041  1  0  0.099258  0  0.98318  0  0  0.10332  0  1.058376  0  0  0.106227  0  1.056326  0  0  0.123403  0.101588  0  1.059456  0
H  H14  1  0.47101478  0.17842269  0.38640987  1  0  0.111136  0  0.947127  0  0  0.112243  0  1.020036  0  0  0.11576  0  1.015821  0  0  0.138975  0.109454  0  1.02361  0
H  H15  1  0.52899278  0.82157578  0.61358977  1  0  0.111081  0  0.947156  0  0  0.112241  0  1.020014  0  0  0.115761  0  1.015798  0  0  0.138976  0.109453  0  1.023591  0
H  H16  1  0.25380365  0.20238073  0.00318289  1  0  0.121974  0  0.952474  0  0  0.123897  0  1.026975  0  0  0.127546  0  1.022769  0  0  0.144123  0.121343  0  1.029707  0
H  H17  1  0.74619891  0.79762022  0.99681824  1  0  0.121965  0  0.952507  0  0  0.123899  0  1.026997  0  0  0.127554  0  1.022786  0  0  0.14411  0.121344  0  1.029728  0
C  C18  1  0.88050532  0.40104173  0.21453830  1  0  0.70854  0  3.886129  0  0  0.662595  0  4.163422  0  0  0.698453  0  4.157058  0  0  0.211692  0.637978  0  4.167026  0
C  C19  1  0.11949072  0.59895802  0.78546212  1  0  0.708548  0  3.885876  0  0  0.662586  0  4.163178  0  0  0.698445  0  4.15681  0  0  0.211679  0.63797  0  4.166783  0
C  C20  1  0.91704343  0.28041389  0.37590626  1  0  -0.284084  0  3.661956  0  0  -0.302316  0  3.932593  0  0  -0.317177  0  3.94875  0  0  -0.105739  -0.291952  0  3.9221  0
C  C21  1  0.08294912  0.71958830  0.62409142  1  0  -0.284137  0  3.661831  0  0  -0.302376  0  3.932496  0  0  -0.317231  0  3.94864  0  0  -0.105729  -0.292011  0  3.922008  0
C  C22  1  0.02004134  0.30126088  0.46168725  1  0  0.096222  0  3.703047  0  0  0.036594  0  3.961767  0  0  0.046852  0  3.977828  0  0  0.041291  0.029137  0  3.951368  0
C  C23  1  0.97995415  0.69873643  0.53831233  1  0  0.096361  0  3.702981  0  0  0.03675  0  3.96165  0  0  0.047001  0  3.977727  0  0  0.04132  0.029293  0  3.951255  0
C  C24  1  0.11259325  0.98500435  0.82569232  1  0  0.202701  0  3.696326  0  0  0.153814  0  3.995864  0  0  0.164581  0  4.007602  0  0  0.144163  0.147049  0  3.98756  0
C  C25  1  0.88740975  0.01499536  0.17430729  1  0  0.20269  0  3.696313  0  0  0.153826  0  3.995853  0  0  0.164594  0  4.007592  0  0  0.144153  0.147056  0  3.98755  0
C  C26  1  0.14073224  0.22483102  0.71192454  1  0  0.183473  0  3.636127  0  0  0.109043  0  3.912358  0  0  0.123532  0  3.922589  0  0  0.162564  0.100194  0  3.905002  0
C  C27  1  0.85926303  0.77517117  0.28807485  1  0  0.183603  0  3.636065  0  0  0.109154  0  3.912266  0  0  0.123657  0  3.922494  0  0  0.162621  0.100305  0  3.904907  0
C  C28  1  0.36581133  0.59480694  0.26757673  1  0  0.687913  0  3.925822  0  0  0.642756  0  4.214426  0  0  0.67746  0  4.208284  0  0  0.196901  0.619061  0  4.217318  0
C  C29  1  0.63418388  0.40519526  0.73242470  1  0  0.687828  0  3.926008  0  0  0.642663  0  4.214632  0  0  0.677364  0  4.208492  0  0  0.196845  0.618968  0  4.217525  0
C  C30  1  0.41098657  0.71628136  0.29905050  1  0  -0.266248  0  3.629227  0  0  -0.284196  0  3.897054  0  0  -0.297782  0  3.914122  0  0  -0.102725  -0.274057  0  3.884432  0
C  C31  1  0.58901501  0.28371836  0.70095029  1  0  -0.266264  0  3.629276  0  0  -0.2842  0  3.897064  0  0  -0.297786  0  3.914135  0  0  -0.102682  -0.274059  0  3.884441  0
C  C32  1  0.36691258  0.87259203  0.19431930  1  0  0.075574  0  3.702775  0  0  0.012537  0  3.970678  0  0  0.020396  0  3.987936  0  0  0.031295  0.007228  0  3.959142  0
C  C33  1  0.63309142  0.12740889  0.80567963  1  0  0.075649  0  3.702857  0  0  0.012634  0  3.970731  0  0  0.020489  0  3.987992  0  0  0.031298  0.007322  0  3.959194  0
C  C34  1  0.43013827  0.14285580  0.30906741  1  0  0.221383  0  3.656748  0  0  0.166095  0  3.94939  0  0  0.178146  0  3.961311  0  0  0.162326  0.158598  0  3.940949  0
C  C35  1  0.56986779  0.85714270  0.69093646  1  0  0.221409  0  3.656847  0  0  0.166075  0  3.949495  0  0  0.178124  0  3.961416  0  0  0.162338  0.158576  0  3.941057  0
C  C36  1  0.31917749  0.16138976  0.11131497  1  0  0.200791  0  3.572192  0  0  0.123337  0  3.832737  0  0  0.138719  0  3.842491  0  0  0.178743  0.113251  0  3.825614  0
C  C37  1  0.68082687  0.83860995  0.88868550  1  0  0.200788  0  3.572123  0  0  0.123301  0  3.832692  0  0  0.138676  0  3.842448  0  0  0.178761  0.113215  0  3.825568  0
N  N38  1  0.07057332  0.19329188  0.61281195  1  0  0.031958  0  3.640705  0  0  0.156761  0  3.813573  0  0  0.144142  0  3.838326  0  0  -0.126515  0.163961  0  3.798859  0
N  N39  1  0.92942628  0.80670542  0.38718917  1  0  0.031758  0  3.641048  0  0  0.156643  0  3.813773  0  0  0.143991  0  3.838587  0  0  -0.126607  0.163843  0  3.799059  0
N  N40  1  0.05265090  0.03805071  0.68566749  1  0  -0.269332  0  2.846112  0  0  -0.266645  0  3.111063  0  0  -0.275342  0  3.126736  0  0  -0.217336  -0.26008  0  3.100356  0
N  N41  1  0.94735185  0.96194536  0.31433484  1  0  -0.269283  0  2.846132  0  0  -0.266618  0  3.111047  0  0  -0.275307  0  3.126718  0  0  -0.217288  -0.260051  0  3.10034  0
N  N42  1  0.16656500  0.09639744  0.84787044  1  0  -0.394087  0  3.006495  0  0  -0.357423  0  3.300177  0  0  -0.373106  0  3.312706  0  0  -0.335739  -0.347036  0  3.291329  0
N  N43  1  0.83343583  0.90360471  0.15212830  1  0  -0.39405  0  3.006397  0  0  -0.357397  0  3.30008  0  0  -0.373077  0  3.312599  0  0  -0.335696  -0.347008  0  3.291231  0
N  N44  1  0.38048035  0.00342681  0.21339413  1  0  0.050048  0  3.629282  0  0  0.171264  0  3.806305  0  0  0.162098  0  3.826413  0  0  -0.116672  0.177014  0  3.793584  0
N  N45  1  0.61952643  0.99657409  0.78660448  1  0  0.050034  0  3.629323  0  0  0.171267  0  3.806341  0  0  0.162105  0  3.82645  0  0  -0.11674  0.177017  0  3.79362  0
N  N46  1  0.45049004  0.99012239  0.34042213  1  0  -0.241699  0  2.821061  0  0  -0.238594  0  3.084587  0  0  -0.247771  0  3.099077  0  0  -0.203069  -0.232372  0  3.075199  0
N  N47  1  0.54951713  0.00987729  0.65957700  1  0  -0.241701  0  2.821033  0  0  -0.238591  0  3.084575  0  0  -0.247769  0  3.099068  0  0  -0.203065  -0.232369  0  3.075186  0
N  N48  1  0.34881394  0.25242984  0.16903791  1  0  -0.422494  0  3.270123  0  0  -0.339854  0  3.580928  0  0  -0.362696  0  3.588846  0  0  -0.345122  -0.323519  0  3.576234  0
N  N49  1  0.65119259  0.74756742  0.83096342  1  0  -0.422483  0  3.270121  0  0  -0.339845  0  3.580963  0  0  -0.362689  0  3.588895  0  0  -0.345126  -0.323512  0  3.576271  0
O  O50  1  0.76901546  0.38097143  0.14276542  1  0  -0.615605  0  2.024114  0  0  -0.534725  0  2.282972  0  0  -0.563277  0  2.267891  0  0  -0.306409  -0.515569  0  2.29438  0
O  O51  1  0.23098134  0.61902590  0.85723705  1  0  -0.615645  0  2.024064  0  0  -0.534754  0  2.28293  0  0  -0.563312  0  2.267845  0  0  -0.306409  -0.515599  0  2.294339  0
O  O52  1  0.95788314  0.52000879  0.15085831  1  0  -0.698971  0  2.062103  0  0  -0.62547  0  2.335618  0  0  -0.653476  0  2.319527  0  0  -0.337624  -0.605281  0  2.346601  0
O  O53  1  0.04211588  0.47998608  0.84914299  1  0  -0.699003  0  2.06202  0  0  -0.625431  0  2.335436  0  0  -0.653432  0  2.319346  0  0  -0.337615  -0.605241  0  2.346418  0
O  O54  1  0.33132132  0.63968398  0.12501740  1  0  -0.675245  0  2.04685  0  0  -0.596507  0  2.323964  0  0  -0.627095  0  2.309191  0  0  -0.339829  -0.573526  0  2.333947  0
O  O55  1  0.66867249  0.36031823  0.87498420  1  0  -0.675139  0  2.046981  0  0  -0.596418  0  2.324126  0  0  -0.627004  0  2.309348  0  0  -0.33979  -0.573432  0  2.334101  0
O  O56  1  0.35679481  0.46042004  0.37707080  1  0  -0.620695  0  1.907361  0  0  -0.568362  0  2.129631  0  0  -0.59267  0  2.121113  0  0  -0.316611  -0.550803  0  2.13579  0
O  O57  1  0.64320324  0.53958212  0.62292827  1  0  -0.620683  0  1.907341  0  0  -0.568364  0  2.129634  0  0  -0.592671  0  2.121119  0  0  -0.316603  -0.550806  0  2.135795  0
