# generated using pymatgen
data_YbH14C18(NO3)2
_symmetry_space_group_name_H-M   'P 1'
_cell_length_a   7.30231103
_cell_length_b   9.97901109
_cell_length_c   12.85305242
_cell_angle_alpha   112.49347088
_cell_angle_beta   91.32666352
_cell_angle_gamma   97.79906929
_symmetry_Int_Tables_number   1
_chemical_formula_structural   YbH14C18(NO3)2
_chemical_formula_sum   'Yb2 H28 C36 N4 O12'
_cell_volume   854.45409920
_cell_formula_units_Z   2
loop_
 _symmetry_equiv_pos_site_id
 _symmetry_equiv_pos_as_xyz
  1  'x, y, z'
loop_
 _atom_site_type_symbol
 _atom_site_label
 _atom_site_symmetry_multiplicity
 _atom_site_fract_x
 _atom_site_fract_y
 _atom_site_fract_z
 _atom_site_occupancy
 _atom_site_hle17_bader_spin_density
 _atom_site_hle17_ddec_charge
 _atom_site_hle17_ddec_spin_density
 _atom_site_hle17_ddec_sum_bond_order
 _atom_site_hle17_magmom
 _atom_site_hse06_10hf_bader_spin_density
 _atom_site_hse06_10hf_ddec_charge
 _atom_site_hse06_10hf_ddec_spin_density
 _atom_site_hse06_10hf_ddec_sum_bond_order
 _atom_site_hse06_10hf_magmom
 _atom_site_hse06_bader_spin_density
 _atom_site_hse06_ddec_charge
 _atom_site_hse06_ddec_spin_density
 _atom_site_hse06_ddec_sum_bond_order
 _atom_site_hse06_magmom
 _atom_site_pbe_bader_spin_density
 _atom_site_pbe_cm5_charge
 _atom_site_pbe_ddec_charge
 _atom_site_pbe_ddec_spin_density
 _atom_site_pbe_ddec_sum_bond_order
 _atom_site_pbe_magmom
Yb  Yb0  1  0.70822277  0.57421685  0.68848942  1  0  2.042222  0  1.917945  0  0  1.949692  0  2.276812  0  0  2.003267  0  2.234294  0  0  1.621165  1.909442  0  2.310012  0
Yb  Yb1  1  0.29177696  0.42578186  0.31150996  1  0  2.042214  0  1.917951  0  0  1.949682  0  2.276807  0  0  2.003257  0  2.234291  0  0  1.621172  1.909417  0  2.31003  0
H  H2  1  0.24688350  0.32035322  0.69049938  1  0  0.104046  0  0.924415  0  0  0.119588  0  0.982049  0  0  0.121752  0  0.981298  0  0  0.101495  0.118018  0  0.982699  0
H  H3  1  0.75311379  0.67964693  0.30950086  1  0  0.104052  0  0.924402  0  0  0.119592  0  0.982031  0  0  0.121759  0  0.981277  0  0  0.101501  0.118025  0  0.982684  0
H  H4  1  0.30151718  0.19457229  0.55912357  1  0  0.107589  0  0.918952  0  0  0.126529  0  0.972633  0  0  0.128219  0  0.972832  0  0  0.10646  0.125158  0  0.972876  0
H  H5  1  0.69848141  0.80542728  0.44087751  1  0  0.107583  0  0.918925  0  0  0.126524  0  0.972605  0  0  0.128213  0  0.972804  0  0  0.106457  0.125154  0  0.972853  0
H  H6  1  0.98350447  0.17784685  0.47208992  1  0  0.106595  0  0.922106  0  0  0.12153  0  0.980437  0  0  0.124325  0  0.978729  0  0  0.103993  0.119574  0  0.981696  0
H  H7  1  0.01649350  0.82214984  0.52790946  1  0  0.106596  0  0.922104  0  0  0.12154  0  0.980417  0  0  0.124336  0  0.978705  0  0  0.104  0.119584  0  0.981676  0
H  H8  1  0.96329457  0.13461687  0.59303085  1  0  0.097413  0  0.931796  0  0  0.112973  0  0.99159  0  0  0.114945  0  0.991515  0  0  0.098643  0.111752  0  0.991513  0
H  H9  1  0.03670551  0.86538312  0.40697107  1  0  0.097416  0  0.931812  0  0  0.112971  0  0.9916  0  0  0.114942  0  0.991525  0  0  0.098655  0.11175  0  0.991525  0
H  H10  1  0.50110376  0.66776597  0.05407095  1  0  0.103438  0  0.930789  0  0  0.118144  0  0.993152  0  0  0.120489  0  0.992213  0  0  0.102635  0.116507  0  0.993766  0
H  H11  1  0.49889609  0.33223316  0.94592928  1  0  0.103415  0  0.930783  0  0  0.118128  0  0.993146  0  0  0.120471  0  0.992206  0  0  0.102628  0.1165  0  0.99375  0
H  H12  1  0.32470284  0.54202068  0.95854391  1  0  0.106862  0  0.904433  0  0  0.127515  0  0.954435  0  0  0.129466  0  0.95399  0  0  0.10881  0.125978  0  0.955146  0
H  H13  1  0.67529715  0.45797963  0.04145463  1  0  0.106879  0  0.904393  0  0  0.127508  0  0.954427  0  0  0.129456  0  0.953983  0  0  0.108812  0.125971  0  0.95514  0
H  H14  1  0.38541456  0.73379238  0.60734871  1  0  0.100448  0  0.943683  0  0  0.106697  0  1.006577  0  0  0.110251  0  1.002971  0  0  0.127715  0.104006  0  1.009265  0
H  H15  1  0.61458715  0.26620921  0.39265237  1  0  0.100462  0  0.943685  0  0  0.106697  0  1.006593  0  0  0.110257  0  1.002981  0  0  0.127704  0.104005  0  1.00928  0
H  H16  1  0.31874602  0.97508572  0.61412886  1  0  0.102337  0  0.95156  0  0  0.113831  0  1.009413  0  0  0.116838  0  1.008736  0  0  0.107455  0.111573  0  1.01016  0
H  H17  1  0.68125440  0.02491646  0.38587138  1  0  0.102308  0  0.951554  0  0  0.113802  0  1.009413  0  0  0.11681  0  1.008731  0  0  0.107457  0.111544  0  1.010161  0
H  H18  1  0.54838607  0.20439338  0.72398910  1  0  0.119359  0  0.953809  0  0  0.127745  0  1.01759  0  0  0.131149  0  1.01503  0  0  0.113854  0.12511  0  1.019686  0
H  H19  1  0.45161689  0.79560778  0.27601113  1  0  0.119375  0  0.953778  0  0  0.127749  0  1.017574  0  0  0.131154  0  1.015015  0  0  0.113843  0.125114  0  1.01967  0
H  H20  1  0.84348000  0.31547598  0.84366416  1  0  0.121006  0  0.960275  0  0  0.13129  0  1.019033  0  0  0.134783  0  1.017477  0  0  0.11019  0.128686  0  1.02025  0
H  H21  1  0.15652004  0.68452417  0.15633607  1  0  0.120979  0  0.960308  0  0  0.131295  0  1.019033  0  0  0.134788  0  1.017475  0  0  0.110197  0.12869  0  1.020252  0
H  H22  1  0.13108367  0.28446153  0.93511957  1  0  0.096631  0  0.951498  0  0  0.111879  0  1.005943  0  0  0.113794  0  1.006132  0  0  0.105129  0.110432  0  1.006043  0
H  H23  1  0.86891176  0.71553618  0.06487982  1  0  0.096633  0  0.95144  0  0  0.111881  0  1.005893  0  0  0.113798  0  1.006074  0  0  0.105137  0.110435  0  1.005992  0
H  H24  1  0.32647939  0.11965717  0.97498318  1  0  0.107271  0  0.970724  0  0  0.117112  0  1.033949  0  0  0.120561  0  1.031156  0  0  0.106915  0.114524  0  1.036092  0
H  H25  1  0.67352160  0.88034111  0.02501536  1  0  0.107267  0  0.970708  0  0  0.117081  0  1.033962  0  0  0.12051  0  1.031194  0  0  0.106912  0.114482  0  1.036118  0
H  H26  1  0.37792718  0.85986039  0.93683377  1  0  0.116369  0  0.960168  0  0  0.127325  0  1.016401  0  0  0.13091  0  1.015162  0  0  0.108225  0.124673  0  1.017502  0
H  H27  1  0.62207684  0.14013932  0.06316561  1  0  0.116352  0  0.960196  0  0  0.127301  0  1.016433  0  0  0.130888  0  1.015191  0  0  0.10821  0.124649  0  1.017528  0
H  H28  1  0.13570662  0.65230979  0.82033287  1  0  0.094936  0  0.943033  0  0  0.101985  0  1.006487  0  0  0.105348  0  1.002718  0  0  0.125043  0.099427  0  1.009337  0
H  H29  1  0.86429460  0.34768935  0.17966736  1  0  0.095041  0  0.942911  0  0  0.10201  0  1.006457  0  0  0.105373  0  1.002688  0  0  0.125059  0.099455  0  1.009301  0
C  C30  1  0.28646760  0.40556348  0.56173535  1  0  0.802969  0  3.752848  0  0  0.76233  0  4.045693  0  0  0.798408  0  4.032572  0  0  0.246814  0.737761  0  4.053606  0
C  C31  1  0.71353076  0.59443524  0.43826403  1  0  0.80301  0  3.752847  0  0  0.762288  0  4.045807  0  0  0.798366  0  4.032685  0  0  0.246789  0.737725  0  4.053715  0
C  C32  1  0.21671031  0.28142761  0.59880700  1  0  -0.244869  0  3.674484  0  0  -0.289108  0  3.92541  0  0  -0.293688  0  3.932129  0  0  -0.160048  -0.285877  0  3.920801  0
C  C33  1  0.78328805  0.71857110  0.40119239  1  0  -0.244854  0  3.674404  0  0  -0.289072  0  3.925341  0  0  -0.293654  0  3.932053  0  0  -0.160024  -0.285853  0  3.920743  0
C  C34  1  0.01127636  0.22329766  0.56445192  1  0  -0.229508  0  3.690655  0  0  -0.269627  0  3.943873  0  0  -0.273924  0  3.950212  0  0  -0.162319  -0.266727  0  3.939288  0
C  C35  1  0.98872075  0.77670149  0.43554832  1  0  -0.229555  0  3.69062  0  0  -0.269656  0  3.943819  0  0  -0.273945  0  3.950146  0  0  -0.162378  -0.266754  0  3.939239  0
C  C36  1  0.89274678  0.34288923  0.61276642  1  0  0.700669  0  3.834977  0  0  0.659017  0  4.134587  0  0  0.692437  0  4.12712  0  0  0.190663  0.636508  0  4.138611  0
C  C37  1  0.10725158  0.65710949  0.38723297  1  0  0.700709  0  3.834837  0  0  0.659012  0  4.134493  0  0  0.692428  0  4.127028  0  0  0.190677  0.636504  0  4.138515  0
C  C38  1  0.57375641  0.57105475  0.88389489  1  0  0.672694  0  3.897713  0  0  0.629848  0  4.205469  0  0  0.662689  0  4.197683  0  0  0.185121  0.607774  0  4.209555  0
C  C39  1  0.42624363  0.42894541  0.11610535  1  0  0.672669  0  3.897721  0  0  0.629826  0  4.205478  0  0  0.662664  0  4.19769  0  0  0.185103  0.607751  0  4.209567  0
C  C40  1  0.47471156  0.56053162  0.98287397  1  0  -0.228544  0  3.695363  0  0  -0.269419  0  3.947785  0  0  -0.273702  0  3.954645  0  0  -0.162068  -0.26654  0  3.943037  0
C  C41  1  0.52528680  0.43946709  0.01712542  1  0  -0.228478  0  3.695301  0  0  -0.269362  0  3.94775  0  0  -0.273636  0  3.954602  0  0  -0.162064  -0.26649  0  3.943001  0
C  C42  1  0.48211216  0.83397646  0.65380515  1  0  0.167556  0  3.668899  0  0  0.135084  0  3.931946  0  0  0.144121  0  3.945703  0  0  0.065208  0.129242  0  3.922592  0
C  C43  1  0.51789012  0.16602817  0.34619593  1  0  0.167555  0  3.66883  0  0  0.135105  0  3.931854  0  0  0.144137  0  3.945617  0  0  0.065244  0.129265  0  3.922499  0
C  C44  1  0.44509883  0.97095576  0.65866918  1  0  -0.11536  0  3.733987  0  0  -0.129464  0  3.990487  0  0  -0.136393  0  4.011437  0  0  -0.083145  -0.125014  0  3.976617  0
C  C45  1  0.55490097  0.02904354  0.34132936  1  0  -0.11524  0  3.733939  0  0  -0.12934  0  3.990429  0  0  -0.136269  0  4.011383  0  0  -0.083117  -0.124891  0  3.976559  0
C  C46  1  0.57016675  0.09597123  0.71837850  1  0  -0.053464  0  3.678246  0  0  -0.078876  0  3.926984  0  0  -0.076695  0  3.945097  0  0  -0.063891  -0.080085  0  3.914903  0
C  C47  1  0.42983404  0.90403297  0.28162174  1  0  -0.053622  0  3.678421  0  0  -0.079027  0  3.927184  0  0  -0.076849  0  3.945298  0  0  -0.063926  -0.080234  0  3.915103  0
C  C48  1  0.73404123  0.08290772  0.77240080  1  0  0.023185  0  3.785509  0  0  0.040935  0  4.015412  0  0  0.037748  0  4.040924  0  0  -0.003043  0.04274  0  3.998337  0
C  C49  1  0.26596017  0.91709243  0.22759943  1  0  0.023337  0  3.785424  0  0  0.041061  0  4.015333  0  0  0.037877  0  4.040844  0  0  -0.003059  0.042864  0  3.99826  0
C  C50  1  0.87041457  0.20741416  0.83613767  1  0  -0.105785  0  3.738294  0  0  -0.1284  0  3.992206  0  0  -0.131946  0  4.015485  0  0  -0.085461  -0.125668  0  3.976325  0
C  C51  1  0.12958075  0.79259005  0.16386258  1  0  -0.105851  0  3.738677  0  0  -0.128485  0  3.992594  0  0  -0.132029  0  4.015872  0  0  -0.085494  -0.125751  0  3.97671  0
C  C52  1  0.02806628  0.18969336  0.88559461  1  0  -0.109357  0  3.762923  0  0  -0.130524  0  4.013917  0  0  -0.134064  0  4.038473  0  0  -0.087755  -0.12818  0  3.997331  0
C  C53  1  0.97193776  0.81030545  0.11440899  1  0  -0.109314  0  3.763198  0  0  -0.130499  0  4.014177  0  0  -0.13404  0  4.03874  0  0  -0.087769  -0.128153  0  3.997582  0
C  C54  1  0.06316238  0.04708533  0.87381533  1  0  0.021604  0  3.802795  0  0  0.038693  0  4.032846  0  0  0.035609  0  4.058567  0  0  -0.00395  0.040662  0  4.015497  0
C  C55  1  0.93683454  0.95291280  0.12618490  1  0  0.021558  0  3.802799  0  0  0.038658  0  4.032799  0  0  0.03557  0  4.058519  0  0  -0.003954  0.040631  0  4.015445  0
C  C56  1  0.22587690  0.02477926  0.92247286  1  0  -0.045762  0  3.677189  0  0  -0.072267  0  3.928342  0  0  -0.070057  0  3.946632  0  0  -0.06518  -0.073577  0  3.916063  0
C  C57  1  0.77412364  0.97522334  0.07752822  1  0  -0.045644  0  3.677293  0  0  -0.072145  0  3.928439  0  0  -0.069922  0  3.946739  0  0  -0.065146  -0.07345  0  3.916163  0
C  C58  1  0.25277486  0.88361904  0.90434545  1  0  -0.112068  0  3.718227  0  0  -0.12736  0  3.97565  0  0  -0.134454  0  3.996482  0  0  -0.083238  -0.122751  0  3.961805  0
C  C59  1  0.74722924  0.11638126  0.09565309  1  0  -0.112133  0  3.71835  0  0  -0.127422  0  3.975733  0  0  -0.134517  0  3.996556  0  0  -0.083238  -0.122809  0  3.961887  0
C  C60  1  0.11651228  0.76535766  0.83897171  1  0  0.166912  0  3.675833  0  0  0.135251  0  3.940606  0  0  0.144497  0  3.954409  0  0  0.064284  0.12918  0  3.93098  0
C  C61  1  0.88348919  0.23464308  0.16102768  1  0  0.166817  0  3.675767  0  0  0.135238  0  3.940497  0  0  0.144483  0  3.954302  0  0  0.06426  0.129166  0  3.930873  0
C  C62  1  0.93105438  0.92125093  0.81057946  1  0  0.141772  0  3.750533  0  0  0.137134  0  3.991986  0  0  0.141634  0  4.01277  0  0  0.119535  0.134329  0  3.97772  0
C  C63  1  0.06894976  0.07874922  0.18942077  1  0  0.141771  0  3.750517  0  0  0.137197  0  3.991866  0  0  0.1417  0  4.012652  0  0  0.119551  0.134388  0  3.9776  0
C  C64  1  0.76240138  0.93977552  0.76061815  1  0  0.13912  0  3.748103  0  0  0.134205  0  3.987287  0  0  0.138634  0  4.008214  0  0  0.119692  0.131126  0  3.973194  0
C  C65  1  0.23760060  0.06022767  0.23938209  1  0  0.139073  0  3.74812  0  0  0.134162  0  3.987267  0  0  0.138588  0  4.008194  0  0  0.119785  0.131086  0  3.973173  0
N  N66  1  0.63639998  0.81802921  0.70229716  1  0  -0.416902  0  3.254611  0  0  -0.371345  0  3.518917  0  0  -0.3869  0  3.537088  0  0  -0.382203  -0.360652  0  3.506612  0
N  N67  1  0.36360119  0.18197008  0.29770139  1  0  -0.416942  0  3.25469  0  0  -0.3714  0  3.518995  0  0  -0.386954  0  3.537169  0  0  -0.382277  -0.360707  0  3.506691  0
N  N68  1  0.95880624  0.78244995  0.79426258  1  0  -0.436194  0  3.233699  0  0  -0.393661  0  3.503675  0  0  -0.40936  0  3.520702  0  0  -0.385257  -0.382701  0  3.491482  0
N  N69  1  0.04119512  0.21755036  0.20573596  1  0  -0.43615  0  3.233666  0  0  -0.393658  0  3.503594  0  0  -0.409361  0  3.520625  0  0  -0.385251  -0.382694  0  3.4914  0
O  O70  1  0.41968360  0.50310060  0.62110742  1  0  -0.753194  0  2.083229  0  0  -0.713935  0  2.349054  0  0  -0.740492  0  2.336072  0  0  -0.438322  -0.694878  0  2.357314  0
O  O71  1  0.58031625  0.49689854  0.37889282  1  0  -0.753214  0  2.083326  0  0  -0.713919  0  2.349183  0  0  -0.740479  0  2.336202  0  0  -0.438308  -0.69486  0  2.357441  0
O  O72  1  0.21150269  0.40391883  0.47109705  1  0  -0.726886  0  2.041902  0  0  -0.687271  0  2.294769  0  0  -0.713939  0  2.284265  0  0  -0.416225  -0.66792  0  2.301053  0
O  O73  1  0.78849567  0.59607988  0.52890233  1  0  -0.726911  0  2.041847  0  0  -0.687269  0  2.294753  0  0  -0.713936  0  2.284246  0  0  -0.416227  -0.667924  0  2.301038  0
O  O74  1  0.96957501  0.46912924  0.68459148  1  0  -0.705641  0  2.000215  0  0  -0.659974  0  2.239733  0  0  -0.686361  0  2.231734  0  0  -0.406175  -0.641379  0  2.244311  0
O  O75  1  0.03042472  0.53086948  0.31540791  1  0  -0.705648  0  2.000151  0  0  -0.659933  0  2.239656  0  0  -0.686321  0  2.231659  0  0  -0.406177  -0.641338  0  2.244234  0
O  O76  1  0.72075258  0.31955424  0.58177743  1  0  -0.689041  0  1.957055  0  0  -0.65188  0  2.198257  0  0  -0.677128  0  2.190946  0  0  -0.380663  -0.634182  0  2.20283  0
O  O77  1  0.27924727  0.68044490  0.41822280  1  0  -0.689046  0  1.957046  0  0  -0.651873  0  2.198256  0  0  -0.677119  0  2.190946  0  0  -0.380657  -0.634174  0  2.20283  0
O  O78  1  0.64756567  0.46325162  0.81929502  1  0  -0.695847  0  2.006033  0  0  -0.653389  0  2.248491  0  0  -0.678202  0  2.240323  0  0  -0.386899  -0.635887  0  2.253591  0
O  O79  1  0.35243573  0.53674852  0.18070522  1  0  -0.695822  0  2.006039  0  0  -0.653381  0  2.248521  0  0  -0.678193  0  2.240351  0  0  -0.38688  -0.635875  0  2.25362  0
O  O80  1  0.57981971  0.68754043  0.86413330  1  0  -0.694619  0  2.016104  0  0  -0.659852  0  2.262612  0  0  -0.684588  0  2.255887  0  0  -0.383206  -0.642183  0  2.266548  0
O  O81  1  0.42018002  0.31245828  0.13586608  1  0  -0.694613  0  2.016067  0  0  -0.659846  0  2.262573  0  0  -0.684586  0  2.255853  0  0  -0.383204  -0.642177  0  2.266511  0
