# generated using pymatgen
data_CuH6C8(NO2)2
_symmetry_space_group_name_H-M   'P 1'
_cell_length_a   6.90172207
_cell_length_b   8.02254410
_cell_length_c   8.07104702
_cell_angle_alpha   90.00164851
_cell_angle_beta   109.41859511
_cell_angle_gamma   90.00011087
_symmetry_Int_Tables_number   1
_chemical_formula_structural   CuH6C8(NO2)2
_chemical_formula_sum   'Cu2 H12 C16 N4 O8'
_cell_volume   421.46743098
_cell_formula_units_Z   2
loop_
 _symmetry_equiv_pos_site_id
 _symmetry_equiv_pos_as_xyz
  1  'x, y, z'
loop_
 _atom_site_type_symbol
 _atom_site_label
 _atom_site_symmetry_multiplicity
 _atom_site_fract_x
 _atom_site_fract_y
 _atom_site_fract_z
 _atom_site_occupancy
 _atom_site_pbe_cm5_charge
 _atom_site_pbe_ddec_charge
 _atom_site_pbe_ddec_spin_density
 _atom_site_pbe_ddec_sum_bond_order
 _atom_site_pbe_magmom
Cu  Cu0  1  0.49999462  0.00000413  0.50001341  1  0.738123  0.820106  -0.732929  2.20015  -0.579
Cu  Cu1  1  0.50001072  0.49999403  0.99999415  1  0.738215  0.82005  -0.73291  2.200414  -0.579
H  H2  1  0.02633487  0.41360812  0.40415577  1  0.095935  0.152815  -0.000242  1.040134  0.0
H  H3  1  0.97361103  0.91359746  0.09582923  1  0.09595  0.152853  -0.000242  1.040403  0.0
H  H4  1  0.97362215  0.58639589  0.59585061  1  0.095929  0.152804  -0.000242  1.040368  0.0
H  H5  1  0.02640909  0.08639534  0.90416549  1  0.095963  0.15285  -0.000241  1.040397  0.0
H  H6  1  0.20228902  0.31373334  0.31706348  1  0.101294  0.162967  -3e-05  1.02248  0.0
H  H7  1  0.79772445  0.81374508  0.18294933  1  0.101333  0.163055  -3e-05  1.022492  0.0
H  H8  1  0.79771711  0.68628563  0.68297308  1  0.101269  0.162996  -3e-05  1.022298  0.0
H  H9  1  0.20228040  0.18625520  0.81701500  1  0.101344  0.163141  -3e-05  1.02235  0.0
H  H10  1  0.27813212  0.35054560  0.54397389  1  0.104219  0.167931  -0.000265  0.993052  0.0
H  H11  1  0.72184777  0.85050947  0.95605943  1  0.104223  0.168006  -0.000265  0.993151  0.0
H  H12  1  0.72182018  0.64946589  0.45606334  1  0.104321  0.168044  -0.000265  0.993  0.0
H  H13  1  0.27820007  0.14948457  0.04392341  1  0.10434  0.168076  -0.000265  0.99305  0.0
C  C14  1  0.85789982  0.11909524  0.43549108  1  0.127377  0.023833  -0.002529  3.872085  -0.003
C  C15  1  0.14209528  0.61910267  0.06451738  1  0.127275  0.023453  -0.002531  3.872195  -0.003
C  C16  1  0.14206952  0.88090005  0.56451015  1  0.127413  0.0239  -0.002527  3.872225  -0.003
C  C17  1  0.85792944  0.38089137  0.93547989  1  0.127507  0.023756  -0.00253  3.872021  -0.003
C  C18  1  0.06594342  0.15257830  0.45757595  1  0.150131  0.296962  -0.002031  3.871572  -0.002
C  C19  1  0.93403065  0.65257095  0.04243730  1  0.150238  0.29728  -0.002028  3.871349  -0.002
C  C20  1  0.93402436  0.84742821  0.54243227  1  0.150096  0.296958  -0.00203  3.871988  -0.002
C  C21  1  0.06599713  0.34741811  0.95756209  1  0.150076  0.29731  -0.002027  3.871264  -0.002
C  C22  1  0.68175605  0.23744158  0.34952377  1  0.21627  0.562342  0.000818  4.197069  0.001
C  C23  1  0.31822716  0.73743561  0.15045104  1  0.216137  0.562373  0.000825  4.195662  0.001
C  C24  1  0.31822869  0.76256866  0.65047444  1  0.216015  0.562111  0.000817  4.196862  0.001
C  C25  1  0.68179919  0.26255594  0.84952069  1  0.216129  0.562228  0.000824  4.195871  0.001
C  C26  1  0.14535024  0.31870226  0.42849339  1  -0.24979  -0.47537  -0.002265  3.903845  -0.003
C  C27  1  0.85462639  0.81869945  0.07151890  1  -0.249882  -0.475619  -0.002266  3.904229  -0.003
C  C28  1  0.85462211  0.68130799  0.57152605  1  -0.249857  -0.475555  -0.002266  3.903857  -0.003
C  C29  1  0.14539530  0.18129834  0.92846388  1  -0.249952  -0.475823  -0.002265  3.904285  -0.003
N  N30  1  0.79736675  0.97178426  0.48090566  1  -0.302091  -0.255426  -0.048518  3.492901  -0.063
N  N31  1  0.20265231  0.47179338  0.01908206  1  -0.301942  -0.255278  -0.048524  3.492316  -0.063
N  N32  1  0.20261952  0.02821103  0.51909299  1  -0.302123  -0.255527  -0.048515  3.492562  -0.063
N  N33  1  0.79737087  0.52820316  0.98091477  1  -0.30215  -0.255529  -0.048525  3.492699  -0.063
O  O34  1  0.50785436  0.19653823  0.36410125  1  -0.316848  -0.519392  -0.060093  2.404638  -0.086
O  O35  1  0.49216345  0.69653200  0.13590962  1  -0.316833  -0.519328  -0.060089  2.404341  -0.086
O  O36  1  0.49212256  0.80346953  0.63593065  1  -0.316571  -0.519139  -0.060058  2.404834  -0.086
O  O37  1  0.50785981  0.30346204  0.86406493  1  -0.316725  -0.519217  -0.060084  2.404017  -0.086
O  O38  1  0.70823732  0.35996378  0.26438875  1  -0.295645  -0.526696  -0.018398  2.274759  -0.027
O  O39  1  0.29172451  0.86000275  0.23564025  1  -0.295543  -0.526828  -0.018402  2.273005  -0.027
O  O40  1  0.29173661  0.64003026  0.73562123  1  -0.295586  -0.526673  -0.018403  2.274132  -0.027
O  O41  1  0.70830334  0.14000126  0.76434058  1  -0.295587  -0.526797  -0.018395  2.273788  -0.027
