# generated using pymatgen
data_ZnH20C36NO13
_symmetry_space_group_name_H-M   'P 1'
_cell_length_a   10.85179441
_cell_length_b   17.10839862
_cell_length_c   17.83978663
_cell_angle_alpha   89.28995456
_cell_angle_beta   93.82657003
_cell_angle_gamma   90.72617927
_symmetry_Int_Tables_number   1
_chemical_formula_structural   ZnH20C36NO13
_chemical_formula_sum   'Zn2 H40 C72 N2 O26'
_cell_volume   3304.20755206
_cell_formula_units_Z   2
loop_
 _symmetry_equiv_pos_site_id
 _symmetry_equiv_pos_as_xyz
  1  'x, y, z'
loop_
 _atom_site_type_symbol
 _atom_site_label
 _atom_site_symmetry_multiplicity
 _atom_site_fract_x
 _atom_site_fract_y
 _atom_site_fract_z
 _atom_site_occupancy
 _atom_site_pbe_bader_charge
 _atom_site_pbe_bader_spin_density
 _atom_site_pbe_cm5_charge
 _atom_site_pbe_ddec_charge
 _atom_site_pbe_ddec_spin_density
 _atom_site_pbe_ddec_sum_bond_order
 _atom_site_pbe_magmom
Zn  Zn0  1  0.49192156  0.40715920  0.49633125  1  1.327641  0  0.694887  0.893019  0  2.272252  0
Zn  Zn1  1  0.50060647  0.59421237  0.50397749  1  1.316835  0  0.695016  0.891368  0  2.265197  0
H  H2  1  0.20315051  0.82508690  0.53558783  1  0.134029  0  0.112857  0.110239  0  1.010168  0
H  H3  1  0.79950537  0.17775568  0.46289706  1  0.132179  0  0.113687  0.112995  0  1.006733  0
H  H4  1  0.87247197  0.60287880  0.55380615  1  0.104247  0  0.110027  0.118118  0  1.013671  0
H  H5  1  0.11771057  0.40148038  0.43826622  1  0.09374  0  0.109363  0.120985  0  1.006025  0
H  H6  1  0.35331360  0.82577293  0.73014601  1  0.092841  0  0.107525  0.04463  0  0.967388  0
H  H7  1  0.65761069  0.16241618  0.26860226  1  0.0449  0  0.109612  0.045929  0  0.970403  0
H  H8  1  0.82672808  0.54717831  0.85045264  1  0.073163  0  0.112397  0.050921  0  0.975602  0
H  H9  1  0.20910019  0.43763037  0.11208395  1  0.105961  0  0.116837  0.060704  0  0.947871  0
H  H10  1  0.38512358  0.05152823  0.38920063  1  0.135817  0  0.105706  0.054795  0  1.061237  0
H  H11  1  0.63773374  0.94705531  0.61460604  1  0.166878  0  0.106858  0.057232  0  1.051364  0
H  H12  1  0.34982056  0.27365069  0.34253299  1  0.10304  0  0.109119  0.168224  0  0.97002  0
H  H13  1  0.23356769  0.26218809  0.40434399  1  0.062711  0  0.109564  0.167281  0  0.967807  0
H  H14  1  0.33076653  0.34718310  0.41133098  1  0.094801  0  0.09233  0.135643  0  1.088638  0
H  H15  1  0.63953230  0.70679396  0.65753785  1  0.08164  0  0.104251  0.157103  0  0.983084  0
H  H16  1  0.68495779  0.65184546  0.57977739  1  0.08606  0  0.096696  0.146437  0  1.067452  0
H  H17  1  0.76387344  0.74064832  0.60808732  1  0.065843  0  0.105457  0.161055  0  0.978408  0
H  H18  1  0.69633177  0.25973264  0.65154127  1  0.062639  0  0.10126  0.147787  0  1.0132  0
H  H19  1  0.67339206  0.34466749  0.59374620  1  0.115997  0  0.104225  0.166335  0  1.024324  0
H  H20  1  0.56035830  0.31611330  0.65502636  1  0.084875  0  0.104532  0.16217  0  0.987723  0
H  H21  1  0.29600063  0.74908991  0.35795564  1  0.073706  0  0.101363  0.148535  0  1.017809  0
H  H22  1  0.42657876  0.68858911  0.34959994  1  0.102088  0  0.105521  0.166176  0  0.984263  0
H  H23  1  0.31767508  0.66338967  0.41472250  1  0.098181  0  0.101401  0.159078  0  1.023566  0
H  H24  1  0.74517740  0.15419789  0.63008051  1  0.131589  0  0.113737  0.061323  0  0.993888  0
H  H25  1  0.26279730  0.85931969  0.37686139  1  0.114673  0  0.114636  0.061181  0  0.983641  0
H  H26  1  0.37626594  0.71046526  0.76460091  1  0.032339  0  0.092941  0.125875  0  1.01132  0
H  H27  1  0.22853320  0.71017896  0.80222957  1  0.075455  0  0.107164  0.155349  0  0.96875  0
H  H28  1  0.29159733  0.62156900  0.77510689  1  0.082809  0  0.097054  0.14561  0  1.008839  0
H  H29  1  0.63682043  0.26393666  0.22297694  1  0.008246  0  0.093086  0.125905  0  1.024327  0
H  H30  1  0.65617487  0.36717916  0.22754066  1  0.099406  0  0.096827  0.143796  0  1.012976  0
H  H31  1  0.77353144  0.31123544  0.19392635  1  0.093095  0  0.110814  0.16428  0  0.965092  0
H  H32  1  0.05667516  0.51939873  0.66119774  1  0.123423  0  0.103935  0.048121  0  0.99846  0
H  H33  1  0.91468148  0.48539988  0.33371608  1  0.079688  0  0.099104  0.03874  0  1.003717  0
H  H34  1  0.02543978  0.66749340  0.42707453  1  0.063509  0  0.105277  0.047863  0  0.970354  0
H  H35  1  0.96229143  0.34286427  0.56786561  1  0.059974  0  0.106542  0.049558  0  0.967427  0
H  H36  1  0.33427406  0.39771961  0.94144817  1  0.181323  0  0.115507  0.075226  0  1.030859  0
H  H37  1  0.69605602  0.58144420  0.05994847  1  0.136183  0  0.114192  0.070788  0  1.017879  0
H  H38  1  0.31407400  0.34714378  0.72668418  1  0.075589  0  0.113305  0.054364  0  0.946045  0
H  H39  1  0.66823064  0.66306031  0.26532566  1  0.098792  0  0.111972  0.052779  0  0.950692  0
H  H40  1  0.76539433  0.60867462  0.74730454  1  0.083377  0  0.113948  0.049896  0  0.95381  0
H  H41  1  0.28344876  0.44717573  0.32174105  1  0.082428  0  0.112599  0.058239  0  0.974924  0
C  C42  1  0.49443122  0.49993711  0.35485462  1  1.624234  0  0.214743  0.58008  0  4.236489  0
C  C43  1  0.50353982  0.50026679  0.64414724  1  1.618504  0  0.219581  0.599212  0  4.214419  0
C  C44  1  0.86637806  0.49549467  0.49405051  1  -0.028141  0  0.000541  -0.040621  0  3.908441  0
C  C45  1  0.12406344  0.50904954  0.49809528  1  -0.003789  0  -0.007639  -0.058116  0  3.926315  0
C  C46  1  0.93394537  0.43726703  0.46023796  1  0.015849  0  0.001061  0.030641  0  3.999604  0
C  C47  1  0.05587195  0.56756359  0.53137765  1  -0.038157  0  0.00239  0.035043  0  3.991379  0
C  C48  1  0.42885790  0.44858409  0.84485032  1  -0.005026  0  0.000348  -0.051243  0  3.91753  0
C  C49  1  0.59191678  0.54172499  0.15657059  1  -0.010655  0  0.008163  -0.029492  0  3.892749  0
C  C50  1  0.42246561  0.45159249  0.76591985  1  0.010376  0  0.017874  0.015954  0  3.900726  0
C  C51  1  0.58598031  0.54746871  0.23481000  1  -0.053703  0  0.013103  0.004331  0  3.907173  0
C  C52  1  0.51571571  0.48985138  0.72839321  1  0.035036  0  0.013409  -0.056798  0  3.878053  0
C  C53  1  0.49472803  0.50525489  0.27041449  1  0.03739  0  0.015684  -0.050228  0  3.888516  0
C  C54  1  0.62136191  0.51816468  0.76990296  1  -0.015456  0  0.008893  -0.005491  0  3.926661  0
C  C55  1  0.40229272  0.46447574  0.22692330  1  -0.017158  0  -0.000994  -0.029453  0  3.969463  0
C  C56  1  0.63063024  0.51378500  0.84901479  1  -0.066251  0  -0.001971  -0.056245  0  3.923751  0
C  C57  1  0.40583280  0.45946088  0.14862724  1  0.004105  0  0.014394  -0.011521  0  3.870171  0
C  C58  1  0.53029839  0.48251430  0.88799192  1  0.075335  0  0.031002  0.111075  0  4.024701  0
C  C59  1  0.50452888  0.49594106  0.11257671  1  0.142131  0  0.026352  0.086761  0  4.027725  0
C  C60  1  0.52786330  0.48546887  0.96689728  1  -0.160996  0  -0.020809  -0.074723  0  4.073861  0
C  C61  1  0.51457444  0.48924870  0.03425683  1  -0.062605  0  -0.017239  -0.06385  0  4.064104  0
C  C62  1  0.42108125  0.15925988  0.45206352  1  0.071448  0  -0.006224  -0.12797  0  3.874756  0
C  C63  1  0.58384746  0.83933151  0.55518847  1  0.012705  0  -0.007089  -0.13165  0  3.87411  0
C  C64  1  0.26196271  0.51117246  0.49744771  1  1.604519  0  0.222726  0.606561  0  4.156306  0
C  C65  1  0.72930191  0.49208762  0.49789738  1  1.582821  0  0.227009  0.612937  0  4.151248  0
C  C66  1  0.41423235  0.24153492  0.45465561  1  0.465583  0  0.151522  0.340112  0  3.878461  0
C  C67  1  0.58746315  0.75702984  0.55001997  1  0.534254  0  0.15318  0.342732  0  3.86692  0
C  C68  1  0.56112545  0.24565337  0.55804137  1  0.514462  0  0.144725  0.323329  0  3.895716  0
C  C69  1  0.43889658  0.75842986  0.44761694  1  0.526595  0  0.14249  0.318752  0  3.912923  0
C  C70  1  0.56980968  0.16376183  0.55986426  1  -0.010512  0  -0.004925  -0.125587  0  3.882267  0
C  C71  1  0.43767159  0.84034593  0.44616175  1  -0.042548  0  -0.003862  -0.124332  0  3.887285  0
C  C72  1  0.49890728  0.11903934  0.50603298  1  0.071775  0  0.046534  0.14762  0  4.03144  0
C  C73  1  0.51083393  0.88244431  0.50086217  1  0.124995  0  0.046336  0.148494  0  4.034841  0
C  C74  1  0.50546706  0.03636186  0.50515067  1  -0.023527  0  -0.000342  -0.040404  0  3.99346  0
C  C75  1  0.50802326  0.96516031  0.50273941  1  -0.215726  0  -0.001428  -0.043873  0  3.992819  0
C  C76  1  0.22468909  0.69385074  0.68189006  1  0.062166  0  0.037736  0.18609  0  3.831434  0
C  C77  1  0.76272847  0.30501825  0.31394545  1  0.028661  0  0.040652  0.192638  0  3.821821  0
C  C78  1  0.15039599  0.63346484  0.64796415  1  0.001363  0  -0.012542  -0.090789  0  3.884588  0
C  C79  1  0.82982227  0.36957232  0.34664197  1  -0.001346  0  -0.013702  -0.095092  0  3.881792  0
C  C80  1  0.11421499  0.63690971  0.57040759  1  -0.041312  0  0.033493  0.076188  0  3.8959  0
C  C81  1  0.87453795  0.36713944  0.42293390  1  -0.004803  0  0.033889  0.072899  0  3.89652  0
C  C82  1  0.12928338  0.70790859  0.53032245  1  -0.004042  0  -0.022946  -0.051865  0  4.000416  0
C  C83  1  0.86543237  0.29670035  0.46457181  1  0.017932  0  -0.021454  -0.048131  0  3.997501  0
C  C84  1  0.19282185  0.76983537  0.56584546  1  -0.013811  0  -0.052957  -0.062945  0  3.90872  0
C  C85  1  0.80557444  0.23236676  0.43106526  1  -0.095302  0  -0.051563  -0.06244  0  3.906028  0
C  C86  1  0.24567371  0.76245090  0.63918361  1  -0.095937  0  -0.023307  -0.068903  0  3.975128  0
C  C87  1  0.75156494  0.23605593  0.35777533  1  0.007803  0  -0.021152  -0.067576  0  3.966768  0
C  C88  1  0.92777718  0.55933434  0.52801797  1  0.018303  0  -0.073949  -0.132539  0  3.953147  0
C  C89  1  0.06223657  0.44557560  0.46332321  1  -0.051715  0  -0.079019  -0.141856  0  3.958871  0
C  C90  1  0.31805438  0.83012291  0.67031817  1  0.904463  0  0.098989  0.27538  0  3.955832  0
C  C91  1  0.68672783  0.16421155  0.32943191  1  0.947986  0  0.101595  0.277586  0  3.949859  0
C  C92  1  0.74978619  0.53719441  0.88811477  1  0.938034  0  0.106609  0.268192  0  3.966159  0
C  C93  1  0.30429088  0.41816641  0.10323216  1  0.952116  0  0.109358  0.280415  0  3.961458  0
C  C94  1  0.35402763  0.11279185  0.39192294  1  0.940988  0  0.09838  0.275666  0  3.929822  0
C  C95  1  0.64817750  0.88275547  0.61839369  1  0.904933  0  0.099236  0.281291  0  3.927474  0
C  C96  1  0.32821218  0.28461144  0.40072788  1  -0.079775  0  -0.243157  -0.479072  0  3.936682  0
C  C97  1  0.67403006  0.71072419  0.60104755  1  -0.053419  0  -0.244232  -0.478384  0  3.937227  0
C  C98  1  0.62786677  0.29352666  0.61771259  1  -0.086463  0  -0.242886  -0.47862  0  3.919515  0
C  C99  1  0.36463813  0.71312486  0.38924716  1  -0.093654  0  -0.243823  -0.477654  0  3.924155  0
C  C100  1  0.65428464  0.12484630  0.61782303  1  0.906074  0  0.109128  0.286735  0  3.927674  0
C  C101  1  0.35894882  0.88192978  0.38690276  1  0.94403  0  0.111947  0.290345  0  3.920696  0
C  C102  1  0.28382757  0.68355200  0.76003090  1  -0.06417  0  -0.235994  -0.431399  0  3.970262  0
C  C103  1  0.70345147  0.31117431  0.23568030  1  -0.065344  0  -0.235688  -0.430882  0  3.95636  0
C  C104  1  0.09596477  0.56978575  0.69335885  1  0.935861  0  0.092749  0.2818  0  3.97508  0
C  C105  1  0.86337077  0.43909448  0.30120753  1  0.91051  0  0.092395  0.278387  0  3.971625  0
C  C106  1  0.07780109  0.71827862  0.45197862  1  0.934872  0  0.098397  0.278494  0  3.954628  0
C  C107  1  0.91572783  0.28981694  0.54350715  1  0.93441  0  0.10041  0.28298  0  3.945469  0
C  C108  1  0.32539643  0.40878871  0.88007928  1  0.87321  0  0.109252  0.264526  0  3.891861  0
C  C109  1  0.69413685  0.58367795  0.12183157  1  0.935783  0  0.111369  0.272073  0  3.891619  0
C  C110  1  0.31691893  0.41190995  0.72100970  1  1.002125  0  0.106614  0.287114  0  3.970945  0
C  C111  1  0.67444539  0.59991438  0.28024958  1  0.984713  0  0.105961  0.285269  0  3.962065  0
C  C112  1  0.72635526  0.55124171  0.72816210  1  0.950153  0  0.113874  0.272393  0  3.947186  0
C  C113  1  0.29812165  0.42701951  0.26403771  1  0.931546  0  0.110045  0.275435  0  3.930118  0
N  N114  1  0.48530282  0.28346799  0.50567630  1  -1.217901  0  -0.307311  -0.333825  0  3.340425  0
N  N115  1  0.51358647  0.71783530  0.49836645  1  -1.227433  0  -0.306769  -0.330348  0  3.343996  0
O  O116  1  0.50253184  0.43077216  0.38117900  1  -1.152982  0  -0.301766  -0.530308  0  2.316962  0
O  O117  1  0.51019040  0.56996931  0.62011248  1  -1.150266  0  -0.30297  -0.532524  0  2.316099  0
O  O118  1  0.48317863  0.56311923  0.38931771  1  -1.169156  0  -0.300278  -0.542906  0  2.385596  0
O  O119  1  0.48719149  0.43798183  0.60723575  1  -1.174799  0  -0.301832  -0.545992  0  2.407292  0
O  O120  1  0.31350035  0.44731486  0.48303867  1  -1.185169  0  -0.314019  -0.563354  0  2.400615  0
O  O121  1  0.67621230  0.55743081  0.50134252  1  -1.170391  0  -0.307122  -0.546394  0  2.422157  0
O  O122  1  0.31582414  0.57684486  0.50929039  1  -1.162461  0  -0.301319  -0.53844  0  2.394151  0
O  O123  1  0.67857892  0.42472119  0.49916959  1  -1.165259  0  -0.30194  -0.543444  0  2.38942  0
O  O124  1  0.33929886  0.88938922  0.63362336  1  -1.076277  0  -0.259724  -0.358  0  2.13959  0
O  O125  1  0.66550232  0.10770867  0.36984897  1  -1.078992  0  -0.257861  -0.35722  0  2.144856  0
O  O126  1  0.76905281  0.54382266  0.95608405  1  -1.031788  0  -0.234609  -0.317813  0  2.166102  0
O  O127  1  0.32451004  0.36989417  0.05570734  1  -1.073897  0  -0.250481  -0.342946  0  2.168381  0
O  O128  1  0.27269003  0.13764859  0.34723731  1  -1.059834  0  -0.252811  -0.335906  0  2.105425  0
O  O129  1  0.70534131  0.85242848  0.67262907  1  -1.068871  0  -0.260839  -0.348106  0  2.10527  0
O  O130  1  0.62839361  0.06335314  0.64914313  1  -1.061783  0  -0.239438  -0.329008  0  2.167769  0
O  O131  1  0.39611586  0.93832983  0.35180509  1  -1.061816  0  -0.237234  -0.324964  0  2.163965  0
O  O132  1  0.08393819  0.57451978  0.76113530  1  -1.092718  0  -0.272607  -0.367866  0  2.114587  0
O  O133  1  0.84415346  0.44606194  0.23289171  1  -1.049924  0  -0.26215  -0.356421  0  2.154321  0
O  O134  1  0.08921937  0.77887271  0.41520605  1  -1.090538  0  -0.268076  -0.370329  0  2.127984  0
O  O135  1  0.90777035  0.22984939  0.58162639  1  -1.09244  0  -0.267033  -0.371284  0  2.130648  0
O  O136  1  0.23306828  0.38709327  0.84168639  1  -1.024974  0  -0.219807  -0.300379  0  2.115343  0
O  O137  1  0.77359504  0.61948316  0.16043457  1  -1.017739  0  -0.222072  -0.304943  0  2.119705  0
O  O138  1  0.24811098  0.44686412  0.67538562  1  -1.079667  0  -0.250603  -0.348701  0  2.210345  0
O  O139  1  0.73911280  0.57671141  0.33456677  1  -1.078318  0  -0.249025  -0.342877  0  2.203499  0
O  O140  1  0.76673088  0.51762740  0.67516336  1  -1.051831  0  -0.22869  -0.304571  0  2.151401  0
O  O141  1  0.22899442  0.37811191  0.23329620  1  -1.049298  0  -0.227992  -0.31257  0  2.112831  0
