# generated using pymatgen
data_Zn4C24O13F12
_symmetry_space_group_name_H-M   'P 1'
_cell_length_a   18.54703498
_cell_length_b   18.54699157
_cell_length_c   18.54697645
_cell_angle_alpha   90.00006787
_cell_angle_beta   120.00006559
_cell_angle_gamma   120.00008275
_symmetry_Int_Tables_number   1
_chemical_formula_structural   Zn4C24O13F12
_chemical_formula_sum   'Zn8 C48 O26 F24'
_cell_volume   4511.33270932
_cell_formula_units_Z   2
loop_
 _symmetry_equiv_pos_site_id
 _symmetry_equiv_pos_as_xyz
  1  'x, y, z'
loop_
 _atom_site_type_symbol
 _atom_site_label
 _atom_site_symmetry_multiplicity
 _atom_site_fract_x
 _atom_site_fract_y
 _atom_site_fract_z
 _atom_site_occupancy
 _atom_site_pbe_bader_charge
 _atom_site_pbe_bader_spin_density
 _atom_site_pbe_cm5_charge
 _atom_site_pbe_ddec_charge
 _atom_site_pbe_ddec_spin_density
 _atom_site_pbe_ddec_sum_bond_order
 _atom_site_pbe_magmom
Zn  Zn0  1  0.58659771  0.62989444  0.04329994  1  1.297162  0  0.682403  0.974583  0  2.364425  0
Zn  Zn1  1  0.41340132  0.45670097  0.87010684  1  1.296649  0  0.682417  0.974604  0  2.36437  0
Zn  Zn2  1  0.41340506  0.45670228  0.04329739  1  1.301565  0  0.682458  0.974598  0  2.364447  0
Zn  Zn3  1  0.58659409  0.45670261  0.04329788  1  1.30156  0  0.682501  0.974635  0  2.364413  0
Zn  Zn4  1  0.41340115  0.87010573  0.45670142  1  1.296628  0  0.6824  0.974614  0  2.364385  0
Zn  Zn5  1  0.58659426  0.04329785  0.45670330  1  1.301572  0  0.682503  0.974666  0  2.364293  0
Zn  Zn6  1  0.58659738  0.04329866  0.62989427  1  1.29687  0  0.682383  0.974568  0  2.364478  0
Zn  Zn7  1  0.41340479  0.04329774  0.45670258  1  1.301648  0  0.682436  0.974612  0  2.364409  0
C  C8  1  0.50000057  0.63763467  0.86236667  1  1.567914  0  0.231902  0.637673  0  4.159969  0
C  C9  1  0.22472921  0.36236501  0.86236627  1  1.543744  0  0.231789  0.637604  0  4.160103  0
C  C10  1  0.49999951  0.63763495  0.13763453  1  1.572557  0  0.231811  0.637605  0  4.159976  0
C  C11  1  0.49999896  0.36236532  0.13763494  1  1.550469  0  0.231874  0.637701  0  4.159945  0
C  C12  1  0.77526988  0.63763519  0.13763620  1  1.629558  0  0.231814  0.637603  0  4.159843  0
C  C13  1  0.49999958  0.36236526  0.86236578  1  1.572235  0  0.231876  0.637636  0  4.159813  0
C  C14  1  0.49999873  0.86236459  0.36236544  1  1.572468  0  0.231862  0.637631  0  4.15997  0
C  C15  1  0.77526736  0.13763381  0.63763377  1  1.573459  0  0.2319  0.637693  0  4.159933  0
C  C16  1  0.49999811  0.86236478  0.63763425  1  1.572607  0  0.231877  0.637693  0  4.159978  0
C  C17  1  0.50000150  0.13763411  0.63763544  1  1.572243  0  0.231899  0.637679  0  4.160042  0
C  C18  1  0.22472916  0.86236581  0.36236580  1  1.544715  0  0.231839  0.637637  0  4.16001  0
C  C19  1  0.49999974  0.13763419  0.36236652  1  1.550534  0  0.231944  0.637728  0  4.160012  0
C  C20  1  0.88980962  0.69490580  0.19490625  1  0.042261  0  -0.022002  -0.209388  0  3.960477  0
C  C21  1  0.11018836  0.80509481  0.30509575  1  0.070147  0  -0.022035  -0.209559  0  3.960525  0
C  C22  1  0.94677034  0.65901597  0.22338607  1  0.609654  0  0.101621  0.168939  0  4.064254  0
C  C23  1  0.05322826  0.84098526  0.27661571  1  0.469372  0  0.101609  0.16911  0  4.064062  0
C  C24  1  0.05322769  0.71224435  0.27661524  1  0.55282  0  0.10162  0.169063  0  4.06415  0
C  C25  1  0.94677029  0.78775626  0.22338730  1  0.704552  0  0.101567  0.16887  0  4.064302  0
C  C26  1  0.11018859  0.30509485  0.80509524  1  0.070173  0  -0.021992  -0.209423  0  3.960475  0
C  C27  1  0.88980949  0.19490416  0.69490555  1  0.040367  0  -0.02216  -0.209583  0  3.96036  0
C  C28  1  0.05322832  0.27661451  0.84098562  1  0.536211  0  0.101536  0.16887  0  4.064258  0
C  C29  1  0.94677019  0.22338428  0.65901648  1  0.642486  0  0.101594  0.168948  0  4.064267  0
C  C30  1  0.94677016  0.22338467  0.78775658  1  0.6621  0  0.101615  0.169019  0  4.064215  0
C  C31  1  0.05322791  0.27661434  0.71224475  1  0.555061  0  0.101601  0.168988  0  4.06418  0
C  C32  1  0.49999912  0.69490426  0.19490467  1  0.15253  0  -0.022002  -0.209433  0  3.960295  0
C  C33  1  0.49999868  0.80509551  0.30509454  1  0.152421  0  -0.022063  -0.209465  0  3.960403  0
C  C34  1  0.43563029  0.65901603  0.22338719  1  0.602699  0  0.101622  0.168988  0  4.064185  0
C  C35  1  0.56436732  0.84098290  0.27661302  1  0.602725  0  0.101679  0.16903  0  4.064293  0
C  C36  1  0.43562788  0.71224266  0.27661360  1  0.476377  0  0.101661  0.169035  0  4.064318  0
C  C37  1  0.56436824  0.78775608  0.22338478  1  0.475626  0  0.10159  0.16893  0  4.064252  0
C  C38  1  0.49999935  0.30509533  0.80509533  1  0.152402  0  -0.022055  -0.209335  0  3.960411  0
C  C39  1  0.50000147  0.19490511  0.69490630  1  0.152443  0  -0.022028  -0.209434  0  3.960242  0
C  C40  1  0.56436881  0.27661423  0.84098472  1  0.602703  0  0.101647  0.169008  0  4.064424  0
C  C41  1  0.43563051  0.22338602  0.65901616  1  0.601926  0  0.101639  0.169018  0  4.064203  0
C  C42  1  0.56437042  0.22338614  0.78775683  1  0.476522  0  0.101587  0.16891  0  4.064155  0
C  C43  1  0.43562978  0.27661368  0.71224449  1  0.476475  0  0.101577  0.168845  0  4.064269  0
C  C44  1  0.49999956  0.69490489  0.80509546  1  0.159179  0  -0.022041  -0.20944  0  3.960308  0
C  C45  1  0.49999930  0.80509540  0.69490556  1  0.159366  0  -0.02204  -0.20955  0  3.96041  0
C  C46  1  0.43562910  0.65901525  0.71224471  1  0.596735  0  0.101589  0.168944  0  4.064204  0
C  C47  1  0.56436976  0.84098504  0.78775685  1  0.489024  0  0.101618  0.16905  0  4.064144  0
C  C48  1  0.43562884  0.71224423  0.65901549  1  0.470498  0  0.101582  0.168972  0  4.064212  0
C  C49  1  0.56437003  0.78775606  0.84098606  1  0.614282  0  0.101584  0.168918  0  4.064325  0
C  C50  1  0.49999909  0.30509554  0.19490571  1  0.119707  0  -0.022036  -0.209462  0  3.960382  0
C  C51  1  0.49999997  0.19490565  0.30509538  1  0.119726  0  -0.022091  -0.209598  0  3.960356  0
C  C52  1  0.56436977  0.27661568  0.22338696  1  0.504303  0  0.101605  0.168915  0  4.064232  0
C  C53  1  0.43562903  0.22338657  0.27661563  1  0.630302  0  0.101594  0.168974  0  4.064241  0
C  C54  1  0.56436835  0.22338568  0.27661480  1  0.630312  0  0.101593  0.169024  0  4.0642  0
C  C55  1  0.43562965  0.27661511  0.22338685  1  0.505067  0  0.101605  0.169007  0  4.064185  0
O  O56  1  0.49999954  0.50000004  0.00000006  1  -1.148733  0  -0.57134  -1.042821  0  2.536611  0
O  O57  1  0.56123830  0.67709476  0.94538340  1  -1.13695  0  -0.307497  -0.532328  0  2.358685  0
O  O58  1  0.26828541  0.38414445  0.82290481  1  -1.138079  0  -0.307463  -0.532254  0  2.358604  0
O  O59  1  0.43875955  0.55461743  0.11585464  1  -1.134399  0  -0.3075  -0.532317  0  2.358579  0
O  O60  1  0.43876144  0.55461669  0.82290506  1  -1.139272  0  -0.307531  -0.532371  0  2.358602  0
O  O61  1  0.56123946  0.67709548  0.11585740  1  -1.13308  0  -0.30748  -0.532306  0  2.358586  0
O  O62  1  0.26828676  0.38414227  0.94538313  1  -1.133678  0  -0.30754  -0.532351  0  2.358612  0
O  O63  1  0.43876079  0.38414448  0.11585717  1  -1.134  0  -0.307532  -0.532367  0  2.358551  0
O  O64  1  0.73171174  0.55461677  0.11585751  1  -1.134044  0  -0.307522  -0.532326  0  2.35854  0
O  O65  1  0.56123622  0.38414240  0.11585536  1  -1.133959  0  -0.307493  -0.532334  0  2.358639  0
O  O66  1  0.73171259  0.67709591  0.11585758  1  -1.137835  0  -0.307501  -0.532295  0  2.358516  0
O  O67  1  0.43875862  0.38414297  0.82290394  1  -1.132767  0  -0.307538  -0.532398  0  2.358467  0
O  O68  1  0.56123879  0.38414542  0.94538268  1  -1.134417  0  -0.307512  -0.532312  0  2.358563  0
O  O69  1  0.49999913  0.99999928  0.50000013  1  -1.148739  0  -0.571328  -1.042856  0  2.536662  0
O  O70  1  0.43876065  0.82290593  0.38414459  1  -1.132787  0  -0.30755  -0.532371  0  2.35852  0
O  O71  1  0.73171238  0.11585714  0.55461766  1  -1.134113  0  -0.307545  -0.532361  0  2.358646  0
O  O72  1  0.56123786  0.94538338  0.67709564  1  -1.136874  0  -0.307506  -0.532332  0  2.358509  0
O  O73  1  0.56123575  0.94537984  0.38414171  1  -1.1346  0  -0.30747  -0.532292  0  2.358631  0
O  O74  1  0.43876038  0.82290469  0.55461753  1  -1.143919  0  -0.307518  -0.532366  0  2.358676  0
O  O75  1  0.73171303  0.11585624  0.67709563  1  -1.137894  0  -0.307487  -0.532289  0  2.358699  0
O  O76  1  0.56124008  0.11585666  0.67709663  1  -1.132762  0  -0.307493  -0.532319  0  2.358637  0
O  O77  1  0.26828650  0.94538277  0.38414246  1  -1.134643  0  -0.307527  -0.532321  0  2.358603  0
O  O78  1  0.43876240  0.11585670  0.55461859  1  -1.134373  0  -0.307487  -0.532312  0  2.358657  0
O  O79  1  0.26828539  0.82290470  0.38414497  1  -1.138047  0  -0.307525  -0.532333  0  2.358521  0
O  O80  1  0.56123988  0.11585964  0.38414581  1  -1.133977  0  -0.307529  -0.532343  0  2.358724  0
O  O81  1  0.43875892  0.11585421  0.38414216  1  -1.134118  0  -0.307493  -0.532314  0  2.358646  0
F  F82  1  0.90182626  0.57146175  0.20091332  1  -0.610117  0  -0.078944  -0.088735  0  1.398257  0
F  F83  1  0.09817172  0.92853885  0.29908599  1  -0.610532  0  -0.078886  -0.088739  0  1.398292  0
F  F84  1  0.09816922  0.66963262  0.29908598  1  -0.604489  0  -0.078919  -0.088753  0  1.398254  0
F  F85  1  0.90182938  0.83036861  0.20091687  1  -0.603763  0  -0.078835  -0.088639  0  1.398336  0
F  F86  1  0.09817133  0.29908584  0.92853896  1  -0.61049  0  -0.078852  -0.088651  0  1.398364  0
F  F87  1  0.90182700  0.20091210  0.57146250  1  -0.610469  0  -0.078931  -0.088729  0  1.398259  0
F  F88  1  0.90182925  0.20091454  0.83036890  1  -0.604529  0  -0.078835  -0.088647  0  1.398297  0
F  F89  1  0.09816857  0.29908553  0.66963231  1  -0.60448  0  -0.078896  -0.088729  0  1.398228  0
F  F90  1  0.37055025  0.57146175  0.20091817  1  -0.605737  0  -0.078877  -0.088718  0  1.39824  0
F  F91  1  0.62945037  0.92853753  0.29908408  1  -0.60574  0  -0.078919  -0.088735  0  1.398216  0
F  F92  1  0.37054551  0.66963241  0.29908450  1  -0.605249  0  -0.078876  -0.088725  0  1.398372  0
F  F93  1  0.62944947  0.83036783  0.20091277  1  -0.605272  0  -0.078913  -0.088747  0  1.398249  0
F  F94  1  0.62945167  0.29908555  0.92853898  1  -0.605736  0  -0.078874  -0.088723  0  1.398385  0
F  F95  1  0.37054934  0.20091573  0.57146221  1  -0.605708  0  -0.078889  -0.088722  0  1.39825  0
F  F96  1  0.62945252  0.20091497  0.83036908  1  -0.605347  0  -0.078857  -0.088692  0  1.39819  0
F  F97  1  0.37054599  0.29908382  0.66963139  1  -0.605298  0  -0.078857  -0.088687  0  1.398204  0
F  F98  1  0.37054617  0.57146143  0.66963242  1  -0.607205  0  -0.078859  -0.088692  0  1.398307  0
F  F99  1  0.62945357  0.92853842  0.83036904  1  -0.602592  0  -0.078855  -0.088712  0  1.398292  0
F  F100  1  0.37054575  0.66963215  0.57146217  1  -0.607298  0  -0.07885  -0.088687  0  1.398347  0
F  F101  1  0.62945311  0.83036814  0.92853885  1  -0.602549  0  -0.078826  -0.088645  0  1.398361  0
F  F102  1  0.62945272  0.29908663  0.20091686  1  -0.605985  0  -0.078886  -0.088692  0  1.398265  0
F  F103  1  0.37054839  0.20091727  0.29908796  1  -0.606008  0  -0.078821  -0.088649  0  1.398327  0
F  F104  1  0.62945101  0.20091510  0.29908443  1  -0.605966  0  -0.078879  -0.08873  0  1.398218  0
F  F105  1  0.37054699  0.29908569  0.20091668  1  -0.606083  0  -0.078835  -0.0887  0  1.398261  0
