# generated using pymatgen
data_ZnH4CSeNO3
_symmetry_space_group_name_H-M   'P 1'
_cell_length_a   4.76851902
_cell_length_b   6.51648553
_cell_length_c   15.14050217
_cell_angle_alpha   89.99998259
_cell_angle_beta   89.99985254
_cell_angle_gamma   91.54742204
_symmetry_Int_Tables_number   1
_chemical_formula_structural   ZnH4CSeNO3
_chemical_formula_sum   'Zn4 H16 C4 Se4 N4 O12'
_cell_volume   470.30416515
_cell_formula_units_Z   4
loop_
 _symmetry_equiv_pos_site_id
 _symmetry_equiv_pos_as_xyz
  1  'x, y, z'
loop_
 _atom_site_type_symbol
 _atom_site_label
 _atom_site_symmetry_multiplicity
 _atom_site_fract_x
 _atom_site_fract_y
 _atom_site_fract_z
 _atom_site_occupancy
 _atom_site_hle17_bader_spin_density
 _atom_site_hle17_ddec_charge
 _atom_site_hle17_ddec_spin_density
 _atom_site_hle17_ddec_sum_bond_order
 _atom_site_hle17_magmom
 _atom_site_hse06_10hf_bader_spin_density
 _atom_site_hse06_10hf_ddec_charge
 _atom_site_hse06_10hf_ddec_spin_density
 _atom_site_hse06_10hf_ddec_sum_bond_order
 _atom_site_hse06_10hf_magmom
 _atom_site_hse06_bader_spin_density
 _atom_site_hse06_ddec_charge
 _atom_site_hse06_ddec_spin_density
 _atom_site_hse06_ddec_sum_bond_order
 _atom_site_hse06_magmom
 _atom_site_pbe_bader_spin_density
 _atom_site_pbe_cm5_charge
 _atom_site_pbe_ddec_charge
 _atom_site_pbe_ddec_spin_density
 _atom_site_pbe_ddec_sum_bond_order
 _atom_site_pbe_magmom
Zn  Zn0  1  0.52254835  0.18476349  0.69627193  1  0  1.103682  0  1.80253  0  0  0.92898  0  2.279445  0  0  0.974811  0  2.218886  0  0  0.648016  0.896906  0  2.321233  0
Zn  Zn1  1  0.02255002  0.68476266  0.80372759  1  0  1.103678  0  1.802566  0  0  0.928961  0  2.279476  0  0  0.97478  0  2.218906  0  0  0.648022  0.896884  0  2.321256  0
Zn  Zn2  1  0.47745390  0.81523359  0.30372747  1  0  1.103673  0  1.802574  0  0  0.929004  0  2.279479  0  0  0.974815  0  2.218903  0  0  0.648042  0.896921  0  2.321255  0
Zn  Zn3  1  0.97745032  0.31523903  0.19627049  1  0  1.103701  0  1.80253  0  0  0.929038  0  2.279426  0  0  0.974837  0  2.218852  0  0  0.648053  0.896954  0  2.3212  0
H  H4  1  0.62042075  0.55390453  0.64812750  1  0  0.309958  0  0.933518  0  0  0.29146  0  0.999713  0  0  0.298755  0  0.994645  0  0  0.279517  0.286286  0  1.003303  0
H  H5  1  0.12041628  0.05389412  0.85187526  1  0  0.309991  0  0.933799  0  0  0.291393  0  1.000099  0  0  0.298682  0  0.995035  0  0  0.279568  0.286223  0  1.003696  0
H  H6  1  0.37957976  0.44610176  0.35187653  1  0  0.310041  0  0.933697  0  0  0.291438  0  1.000017  0  0  0.298725  0  0.994956  0  0  0.279583  0.286269  0  1.003606  0
H  H7  1  0.87958820  0.94610603  0.14812414  1  0  0.310048  0  0.933734  0  0  0.291449  0  1.000046  0  0  0.298735  0  0.994982  0  0  0.279581  0.286278  0  1.003639  0
H  H8  1  0.28386971  0.50111815  0.63371068  1  0  0.299567  0  0.918522  0  0  0.286272  0  0.977101  0  0  0.292699  0  0.972942  0  0  0.28355  0.281613  0  0.980288  0
H  H9  1  0.78385628  0.00112189  0.86629261  1  0  0.299512  0  0.918065  0  0  0.286275  0  0.976622  0  0  0.292703  0  0.972442  0  0  0.283472  0.281619  0  0.979796  0
H  H10  1  0.71613878  0.49887739  0.36629335  1  0  0.299542  0  0.918109  0  0  0.286313  0  0.976636  0  0  0.292738  0  0.972463  0  0  0.283516  0.28166  0  0.979815  0
H  H11  1  0.21614825  0.99887979  0.13370943  1  0  0.299405  0  0.918244  0  0  0.286252  0  0.976679  0  0  0.292674  0  0.972507  0  0  0.283488  0.281597  0  0.979858  0
H  H12  1  0.76467696  0.38169508  0.52308668  1  0  0.047502  0  0.929475  0  0  0.064087  0  0.996501  0  0  0.064485  0  0.996008  0  0  0.096454  0.063654  0  0.997074  0
H  H13  1  0.26470026  0.88169404  0.97691196  1  0  0.047478  0  0.929226  0  0  0.064025  0  0.996313  0  0  0.064422  0  0.995816  0  0  0.096429  0.063588  0  0.996893  0
H  H14  1  0.23530451  0.61830663  0.47691404  1  0  0.047528  0  0.929315  0  0  0.064077  0  0.996383  0  0  0.064475  0  0.995888  0  0  0.096455  0.063645  0  0.996958  0
H  H15  1  0.73531895  0.11830762  0.02308480  1  0  0.047424  0  0.929187  0  0  0.064024  0  0.996284  0  0  0.064422  0  0.99579  0  0  0.096393  0.063591  0  0.996857  0
H  H16  1  0.42989736  0.26814122  0.50700347  1  0  0.0458  0  0.979799  0  0  0.050604  0  1.066905  0  0  0.051511  0  1.066758  0  0  0.089162  0.049831  0  1.067204  0
H  H17  1  0.92992176  0.76814358  0.99299835  1  0  0.045868  0  0.979939  0  0  0.050659  0  1.06697  0  0  0.051562  0  1.066826  0  0  0.089179  0.04989  0  1.067263  0
H  H18  1  0.57008410  0.73186048  0.49299857  1  0  0.045849  0  0.979797  0  0  0.050634  0  1.06689  0  0  0.051541  0  1.066744  0  0  0.089167  0.049866  0  1.067183  0
H  H19  1  0.07009949  0.23185654  0.00700237  1  0  0.045818  0  0.979862  0  0  0.050651  0  1.066939  0  0  0.051555  0  1.066797  0  0  0.089173  0.049875  0  1.067239  0
C  C20  1  0.53862182  0.40959581  0.52921206  1  0  0.051345  0  3.655135  0  0  -0.004009  0  3.917364  0  0  -0.000387  0  3.93058  0  0  -0.083576  -0.006362  0  3.908201  0
C  C21  1  0.03861762  0.90958714  0.97078940  1  0  0.051252  0  3.655156  0  0  -0.003951  0  3.917312  0  0  -0.000348  0  3.930552  0  0  -0.083576  -0.0063  0  3.90815  0
C  C22  1  0.46137450  0.59041048  0.47078932  1  0  0.05119  0  3.655078  0  0  -0.004082  0  3.917257  0  0  -0.000471  0  3.930473  0  0  -0.083627  -0.006436  0  3.908102  0
C  C23  1  0.96139938  0.09041146  0.02921132  1  0  0.051417  0  3.654974  0  0  -0.004042  0  3.917336  0  0  -0.000434  0  3.930542  0  0  -0.083505  -0.006391  0  3.908176  0
Se  Se24  1  0.02255524  0.91792222  0.61579392  1  0  1.179175  0  3.591861  0  0  1.117245  0  4.060146  0  0  1.155647  0  4.039515  0  0  0.591429  1.089311  0  4.074669  0
Se  Se25  1  0.52255826  0.41792132  0.88420624  1  0  1.179144  0  3.592025  0  0  1.117209  0  4.060331  0  0  1.155612  0  4.0397  0  0  0.591402  1.089272  0  4.074867  0
Se  Se26  1  0.97744079  0.08207640  0.38420614  1  0  1.179176  0  3.591792  0  0  1.117245  0  4.06008  0  0  1.155645  0  4.039445  0  0  0.591423  1.089306  0  4.074613  0
Se  Se27  1  0.47743993  0.58207883  0.11579052  1  0  1.179179  0  3.591865  0  0  1.117253  0  4.060167  0  0  1.155655  0  4.039534  0  0  0.591447  1.08931  0  4.074707  0
N  N28  1  0.48037436  0.44353435  0.62385624  1  0  -0.654573  0  3.143883  0  0  -0.585713  0  3.405545  0  0  -0.607283  0  3.400797  0  0  -0.63749  -0.570605  0  3.408637  0
N  N29  1  0.98043124  0.94353834  0.87614487  1  0  -0.654524  0  3.144082  0  0  -0.585629  0  3.405759  0  0  -0.607162  0  3.400975  0  0  -0.637433  -0.570535  0  3.408858  0
N  N30  1  0.51958177  0.55646277  0.37614647  1  0  -0.654533  0  3.143893  0  0  -0.585649  0  3.405591  0  0  -0.607183  0  3.400812  0  0  -0.637477  -0.570563  0  3.408692  0
N  N31  1  0.01958582  0.05646179  0.12385519  1  0  -0.654464  0  3.143947  0  0  -0.58562  0  3.405702  0  0  -0.607136  0  3.400904  0  0  -0.637513  -0.570527  0  3.408798  0
O  O32  1  0.38065675  0.95139789  0.62212579  1  0  -0.807454  0  1.837516  0  0  -0.740145  0  2.154394  0  0  -0.767622  0  2.133906  0  0  -0.431409  -0.720256  0  2.168098  0
O  O33  1  0.88065575  0.45140007  0.87787473  1  0  -0.807443  0  1.83756  0  0  -0.740151  0  2.154455  0  0  -0.767618  0  2.133944  0  0  -0.431426  -0.720262  0  2.168164  0
O  O34  1  0.61934131  0.04859919  0.37787295  1  0  -0.807461  0  1.837502  0  0  -0.740157  0  2.1544  0  0  -0.767622  0  2.133885  0  0  -0.431402  -0.720264  0  2.168102  0
O  O35  1  0.11934040  0.54860162  0.12212401  1  0  -0.807475  0  1.83753  0  0  -0.740165  0  2.154395  0  0  -0.767631  0  2.13389  0  0  -0.431411  -0.72027  0  2.168101  0
O  O36  1  0.93074186  0.11251404  0.68588044  1  0  -0.781924  0  1.778504  0  0  -0.704427  0  2.07931  0  0  -0.731635  0  2.057868  0  0  -0.417399  -0.684874  0  2.093822  0
O  O37  1  0.43074122  0.61251013  0.81412008  1  0  -0.78193  0  1.778582  0  0  -0.70442  0  2.079386  0  0  -0.731627  0  2.057943  0  0  -0.41739  -0.684863  0  2.093897  0
O  O38  1  0.06925830  0.88748303  0.31412161  1  0  -0.78192  0  1.778451  0  0  -0.704487  0  2.079372  0  0  -0.731692  0  2.057926  0  0  -0.417417  -0.684926  0  2.093874  0
O  O39  1  0.56925672  0.38748388  0.18587469  1  0  -0.781903  0  1.778442  0  0  -0.704462  0  2.079334  0  0  -0.731667  0  2.057892  0  0  -0.417395  -0.6849  0  2.093839  0
O  O40  1  0.96346516  0.69069300  0.67541905  1  0  -0.793069  0  1.828655  0  0  -0.704351  0  2.117309  0  0  -0.730983  0  2.094609  0  0  -0.418252  -0.685496  0  2.133004  0
O  O41  1  0.46346756  0.19069182  0.82458078  1  0  -0.793057  0  1.828632  0  0  -0.704338  0  2.117307  0  0  -0.730974  0  2.094612  0  0  -0.418241  -0.685484  0  2.133011  0
O  O42  1  0.03653074  0.30930255  0.32457771  1  0  -0.793138  0  1.828611  0  0  -0.704383  0  2.11724  0  0  -0.73101  0  2.094533  0  0  -0.418301  -0.685528  0  2.132937  0
O  O43  1  0.53653667  0.80930218  0.17541929  1  0  -0.793077  0  1.828627  0  0  -0.704366  0  2.117297  0  0  -0.730998  0  2.094595  0  0  -0.418278  -0.685504  0  2.132991  0
