# generated using pymatgen
data_TbH8C6NO7
_symmetry_space_group_name_H-M   'P 1'
_cell_length_a   6.60947202
_cell_length_b   6.79663070
_cell_length_c   19.60042344
_cell_angle_alpha   93.27082324
_cell_angle_beta   90.00035894
_cell_angle_gamma   90.00057180
_symmetry_Int_Tables_number   1
_chemical_formula_structural   TbH8C6NO7
_chemical_formula_sum   'Tb4 H32 C24 N4 O28'
_cell_volume   879.05865207
_cell_formula_units_Z   4
loop_
 _symmetry_equiv_pos_site_id
 _symmetry_equiv_pos_as_xyz
  1  'x, y, z'
loop_
 _atom_site_type_symbol
 _atom_site_label
 _atom_site_symmetry_multiplicity
 _atom_site_fract_x
 _atom_site_fract_y
 _atom_site_fract_z
 _atom_site_occupancy
 _atom_site_hle17_bader_spin_density
 _atom_site_hle17_ddec_charge
 _atom_site_hle17_ddec_spin_density
 _atom_site_hle17_ddec_sum_bond_order
 _atom_site_hle17_magmom
 _atom_site_hse06_10hf_bader_spin_density
 _atom_site_hse06_10hf_ddec_charge
 _atom_site_hse06_10hf_ddec_spin_density
 _atom_site_hse06_10hf_ddec_sum_bond_order
 _atom_site_hse06_10hf_magmom
 _atom_site_hse06_bader_spin_density
 _atom_site_hse06_ddec_charge
 _atom_site_hse06_ddec_spin_density
 _atom_site_hse06_ddec_sum_bond_order
 _atom_site_hse06_magmom
 _atom_site_pbe_bader_spin_density
 _atom_site_pbe_cm5_charge
 _atom_site_pbe_ddec_charge
 _atom_site_pbe_ddec_spin_density
 _atom_site_pbe_ddec_sum_bond_order
 _atom_site_pbe_magmom
Tb  Tb0  1  0.74192764  0.76993310  0.89797236  1  0  2.214297  0  1.676574  0  0  2.051146  0  2.161463  0  0  2.179763  0  1.968568  0  0  1.511284  2.013807  0  2.193472  0
Tb  Tb1  1  0.24192870  0.73006712  0.60203003  1  0  2.21426  0  1.676523  0  0  2.051121  0  2.161451  0  0  2.179767  0  1.968513  0  0  1.511356  2.013862  0  2.193361  0
Tb  Tb2  1  0.25807114  0.23007072  0.10202746  1  0  2.214313  0  1.676504  0  0  2.051237  0  2.161363  0  0  2.179828  0  1.968507  0  0  1.511313  2.013863  0  2.193425  0
Tb  Tb3  1  0.75807462  0.26993082  0.39797071  1  0  2.214236  0  1.676544  0  0  2.051092  0  2.161462  0  0  2.179732  0  1.968536  0  0  1.511327  2.013792  0  2.19341  0
H  H4  1  0.30702555  0.45827466  0.85515124  1  0  0.107384  0  0.919036  0  0  0.118357  0  0.979847  0  0  0.121436  0  0.977633  0  0  0.11309  0.116198  0  0.981526  0
H  H5  1  0.80703420  0.04172002  0.64484979  1  0  0.10733  0  0.919014  0  0  0.118321  0  0.979805  0  0  0.121399  0  0.977593  0  0  0.11307  0.116169  0  0.981469  0
H  H6  1  0.69296567  0.54172034  0.14485097  1  0  0.10735  0  0.919042  0  0  0.118346  0  0.979836  0  0  0.121422  0  0.977621  0  0  0.113075  0.116192  0  0.981506  0
H  H7  1  0.19296760  0.95828086  0.35514946  1  0  0.107337  0  0.919025  0  0  0.118326  0  0.979822  0  0  0.121404  0  0.977608  0  0  0.113085  0.116176  0  0.981483  0
H  H8  1  0.15397292  0.41817278  0.92721625  1  0  0.135499  0  0.928931  0  0  0.148544  0  0.986161  0  0  0.151641  0  0.984432  0  0  0.130024  0.146407  0  0.987474  0
H  H9  1  0.65398674  0.08180856  0.57278113  1  0  0.135475  0  0.928944  0  0  0.148548  0  0.986135  0  0  0.151649  0  0.984409  0  0  0.130034  0.14641  0  0.987456  0
H  H10  1  0.84601829  0.58182958  0.07278559  1  0  0.135461  0  0.928901  0  0  0.148518  0  0.986125  0  0  0.151616  0  0.984403  0  0  0.129998  0.146378  0  0.987438  0
H  H11  1  0.34601356  0.91818789  0.42721702  1  0  0.135442  0  0.929013  0  0  0.148518  0  0.986204  0  0  0.151613  0  0.984481  0  0  0.130013  0.146381  0  0.987526  0
H  H12  1  0.18624668  0.50205715  0.75387139  1  0  0.104022  0  0.958592  0  0  0.11422  0  1.025185  0  0  0.116933  0  1.023772  0  0  0.11385  0.112124  0  1.026872  0
H  H13  1  0.68626642  0.99793365  0.74612661  1  0  0.104117  0  0.958544  0  0  0.114251  0  1.025168  0  0  0.116983  0  1.023758  0  0  0.113875  0.112151  0  1.026847  0
H  H14  1  0.81375059  0.49794374  0.24613042  1  0  0.103981  0  0.958642  0  0  0.114169  0  1.025224  0  0  0.116888  0  1.023814  0  0  0.113825  0.11207  0  1.02691  0
H  H15  1  0.31373841  0.00206722  0.25387163  1  0  0.104047  0  0.958637  0  0  0.114269  0  1.025176  0  0  0.116998  0  1.023756  0  0  0.113871  0.112169  0  1.026858  0
H  H16  1  0.92386211  0.49099107  0.73575931  1  0  0.11488  0  0.911011  0  0  0.131302  0  0.965155  0  0  0.13375  0  0.963582  0  0  0.12603  0.129592  0  0.966475  0
H  H17  1  0.42388802  0.00900919  0.76424107  1  0  0.114718  0  0.911224  0  0  0.131207  0  0.965223  0  0  0.133673  0  0.963656  0  0  0.126006  0.129496  0  0.966522  0
H  H18  1  0.07613516  0.50901423  0.26424106  1  0  0.114868  0  0.91109  0  0  0.131287  0  0.965212  0  0  0.133743  0  0.963636  0  0  0.126022  0.129574  0  0.966533  0
H  H19  1  0.57611984  0.99099316  0.23575873  1  0  0.114725  0  0.911181  0  0  0.131201  0  0.965224  0  0  0.133662  0  0.963649  0  0  0.12599  0.129491  0  0.966522  0
H  H20  1  0.00708933  0.19037153  0.83996377  1  0  0.124013  0  0.936291  0  0  0.136926  0  0.99226  0  0  0.140746  0  0.989091  0  0  0.116841  0.134306  0  0.994458  0
H  H21  1  0.50710708  0.30962897  0.66003468  1  0  0.124041  0  0.93619  0  0  0.13691  0  0.992196  0  0  0.140729  0  0.989026  0  0  0.116897  0.134297  0  0.994382  0
H  H22  1  0.99289886  0.80962787  0.16003546  1  0  0.12403  0  0.936271  0  0  0.136928  0  0.992239  0  0  0.14075  0  0.989065  0  0  0.116874  0.13431  0  0.994435  0
H  H23  1  0.49289322  0.69036896  0.33996503  1  0  0.124037  0  0.93617  0  0  0.136894  0  0.992184  0  0  0.140715  0  0.989012  0  0  0.11689  0.13428  0  0.994371  0
H  H24  1  0.80569330  0.28725214  0.79415061  1  0  0.10891  0  0.918806  0  0  0.124359  0  0.977541  0  0  0.126833  0  0.974875  0  0  0.120925  0.122761  0  0.9792  0
H  H25  1  0.30572025  0.21275432  0.70585115  1  0  0.108992  0  0.918753  0  0  0.124426  0  0.977488  0  0  0.126904  0  0.974817  0  0  0.120968  0.122833  0  0.979122  0
H  H26  1  0.19429641  0.71275612  0.20585031  1  0  0.108921  0  0.918841  0  0  0.124383  0  0.977553  0  0  0.126855  0  0.974891  0  0  0.120954  0.122785  0  0.979209  0
H  H27  1  0.69428155  0.78724361  0.29414754  1  0  0.108941  0  0.918768  0  0  0.124378  0  0.977498  0  0  0.126852  0  0.974832  0  0  0.120949  0.122783  0  0.979134  0
H  H28  1  0.57894358  0.85073715  0.03892228  1  0  0.444356  0  0.836107  0  0  0.411953  0  0.907896  0  0  0.423569  0  0.890907  0  0  0.310179  0.403773  0  0.920062  0
H  H29  1  0.07894878  0.64927028  0.46107904  1  0  0.444526  0  0.835963  0  0  0.412106  0  0.90771  0  0  0.423724  0  0.890717  0  0  0.310205  0.403923  0  0.919877  0
H  H30  1  0.42105823  0.14926225  0.96107695  1  0  0.444379  0  0.836052  0  0  0.411966  0  0.907879  0  0  0.423583  0  0.890889  0  0  0.310175  0.40379  0  0.920042  0
H  H31  1  0.92105605  0.35073060  0.53892124  1  0  0.444509  0  0.835964  0  0  0.41209  0  0.907728  0  0  0.423708  0  0.890736  0  0  0.310215  0.403909  0  0.919893  0
H  H32  1  0.79093682  0.95799518  0.03368731  1  0  0.435997  0  0.859922  0  0  0.404077  0  0.926318  0  0  0.415853  0  0.90928  0  0  0.304461  0.395778  0  0.938499  0
H  H33  1  0.29094403  0.54201584  0.46631199  1  0  0.435995  0  0.859955  0  0  0.404079  0  0.926314  0  0  0.415856  0  0.909274  0  0  0.304421  0.395773  0  0.938501  0
H  H34  1  0.20906045  0.04200570  0.96631246  1  0  0.436015  0  0.859899  0  0  0.404098  0  0.926286  0  0  0.415873  0  0.909248  0  0  0.304458  0.395798  0  0.938467  0
H  H35  1  0.70905929  0.45798210  0.53368823  1  0  0.435982  0  0.859875  0  0  0.40405  0  0.926348  0  0  0.415827  0  0.909308  0  0  0.304412  0.395743  0  0.938538  0
C  C36  1  0.17434985  0.51384974  0.88426176  1  0  -0.199891  0  3.623006  0  0  -0.247932  0  3.866913  0  0  -0.251992  0  3.876979  0  0  -0.066625  -0.245651  0  3.862159  0
C  C37  1  0.67435500  0.98614245  0.61574134  1  0  -0.199754  0  3.622731  0  0  -0.247765  0  3.866674  0  0  -0.251825  0  3.876742  0  0  -0.066592  -0.245475  0  3.861917  0
C  C38  1  0.82564440  0.48614968  0.11574053  1  0  -0.199759  0  3.622853  0  0  -0.247894  0  3.866851  0  0  -0.251948  0  3.876911  0  0  -0.066614  -0.245612  0  3.862092  0
C  C39  1  0.32564529  0.01385549  0.38425888  1  0  -0.199743  0  3.62284  0  0  -0.247788  0  3.866787  0  0  -0.251839  0  3.87685  0  0  -0.066601  -0.245507  0  3.862031  0
C  C40  1  0.21993728  0.71805884  0.91623472  1  0  0.758753  0  3.790539  0  0  0.709475  0  4.0881  0  0  0.744958  0  4.081499  0  0  0.240342  0.685428  0  4.095025  0
C  C41  1  0.71994429  0.78192495  0.58376679  1  0  0.758775  0  3.790324  0  0  0.709442  0  4.088023  0  0  0.74492  0  4.081431  0  0  0.2404  0.685401  0  4.094934  0
C  C42  1  0.78005393  0.28193615  0.08376595  1  0  0.758793  0  3.790553  0  0  0.709571  0  4.088065  0  0  0.745049  0  4.081464  0  0  0.24041  0.685522  0  4.094994  0
C  C43  1  0.28005903  0.21807445  0.41623346  1  0  0.758826  0  3.790262  0  0  0.709539  0  4.08789  0  0  0.745017  0  4.081292  0  0  0.240451  0.685499  0  4.094812  0
C  C44  1  0.03714747  0.55789704  0.77097395  1  0  -0.196136  0  3.666921  0  0  -0.251637  0  3.922024  0  0  -0.25443  0  3.932115  0  0  -0.068903  -0.250648  0  3.91834  0
C  C45  1  0.53716481  0.94209965  0.72902741  1  0  -0.196099  0  3.667112  0  0  -0.251454  0  3.921941  0  0  -0.254332  0  3.932138  0  0  -0.06882  -0.25045  0  3.91822  0
C  C46  1  0.96285131  0.44210679  0.22902740  1  0  -0.196176  0  3.666899  0  0  -0.251567  0  3.921917  0  0  -0.254382  0  3.932036  0  0  -0.068875  -0.250577  0  3.918223  0
C  C47  1  0.46284305  0.05790122  0.27097236  1  0  -0.195977  0  3.666947  0  0  -0.251419  0  3.921817  0  0  -0.254261  0  3.931957  0  0  -0.068786  -0.250413  0  3.918102  0
C  C48  1  0.89591587  0.31049828  0.84105070  1  0  -0.196751  0  3.66902  0  0  -0.254262  0  3.929715  0  0  -0.256126  0  3.936999  0  0  -0.070776  -0.253392  0  3.926639  0
C  C49  1  0.39593266  0.18950171  0.65895063  1  0  -0.196901  0  3.668853  0  0  -0.254312  0  3.929571  0  0  -0.256177  0  3.936854  0  0  -0.070925  -0.253444  0  3.926468  0
C  C50  1  0.10407383  0.68950555  0.15894964  1  0  -0.196924  0  3.669155  0  0  -0.25442  0  3.929881  0  0  -0.256276  0  3.937141  0  0  -0.07092  -0.253554  0  3.926805  0
C  C51  1  0.60406914  0.81049769  0.34104860  1  0  -0.196882  0  3.668863  0  0  -0.254257  0  3.929559  0  0  -0.256115  0  3.936836  0  0  -0.070913  -0.253384  0  3.926448  0
C  C52  1  0.74686052  0.29127394  0.89941741  1  0  0.744181  0  3.803098  0  0  0.69768  0  4.1042  0  0  0.7323  0  4.098688  0  0  0.235518  0.674296  0  4.110612  0
C  C53  1  0.24686435  0.20871572  0.60058391  1  0  0.744097  0  3.803271  0  0  0.697557  0  4.104428  0  0  0.732176  0  4.098917  0  0  0.235515  0.674181  0  4.11084  0
C  C54  1  0.25312918  0.70872105  0.10058327  1  0  0.744118  0  3.803208  0  0  0.697585  0  4.104361  0  0  0.732213  0  4.098831  0  0  0.235502  0.674201  0  4.110776  0
C  C55  1  0.75313745  0.79128811  0.39941642  1  0  0.74417  0  3.803127  0  0  0.697553  0  4.10439  0  0  0.732168  0  4.098889  0  0  0.235491  0.674173  0  4.110803  0
C  C56  1  0.02708872  0.77845979  0.76163989  1  0  0.733443  0  3.824074  0  0  0.688376  0  4.122349  0  0  0.723078  0  4.116182  0  0  0.223983  0.665129  0  4.128844  0
C  C57  1  0.52707218  0.72151908  0.73835397  1  0  0.733305  0  3.824508  0  0  0.688358  0  4.122552  0  0  0.723086  0  4.116379  0  0  0.223965  0.665075  0  4.129105  0
C  C58  1  0.97291914  0.22153813  0.23835829  1  0  0.733607  0  3.823696  0  0  0.688391  0  4.122199  0  0  0.723097  0  4.116034  0  0  0.223971  0.665144  0  4.128701  0
C  C59  1  0.47293871  0.27848622  0.26164588  1  0  0.733406  0  3.824521  0  0  0.688426  0  4.122647  0  0  0.72316  0  4.116444  0  0  0.224  0.66514  0  4.129209  0
N  N60  1  0.98978218  0.50684294  0.84123781  1  0  -0.226862  0  3.34189  0  0  -0.154273  0  3.594884  0  0  -0.173813  0  3.620379  0  0  -0.388506  -0.145139  0  3.580315  0
N  N61  1  0.48978849  0.99314798  0.65876392  1  0  -0.226823  0  3.341766  0  0  -0.154524  0  3.595296  0  0  -0.174044  0  3.620761  0  0  -0.388595  -0.145386  0  3.580733  0
N  N62  1  0.01021358  0.49315942  0.15876301  1  0  -0.226754  0  3.341744  0  0  -0.154187  0  3.594877  0  0  -0.173741  0  3.620394  0  0  -0.388441  -0.145047  0  3.580304  0
N  N63  1  0.51021180  0.00684996  0.34123579  1  0  -0.226887  0  3.341701  0  0  -0.154549  0  3.595181  0  0  -0.174098  0  3.620694  0  0  -0.388591  -0.145409  0  3.580616  0
O  O64  1  0.07143449  0.81870135  0.94180554  1  0  -0.722482  0  2.015104  0  0  -0.662795  0  2.260097  0  0  -0.699962  0  2.246974  0  0  -0.383235  -0.643395  0  2.266626  0
O  O65  1  0.57143848  0.68128686  0.55819982  1  0  -0.722507  0  2.015146  0  0  -0.66282  0  2.260195  0  0  -0.699995  0  2.247085  0  0  -0.383285  -0.643423  0  2.26672  0
O  O66  1  0.92856429  0.18129806  0.05819573  1  0  -0.722508  0  2.015073  0  0  -0.662866  0  2.260075  0  0  -0.700029  0  2.24695  0  0  -0.383282  -0.643461  0  2.266607  0
O  O67  1  0.42856332  0.31871401  0.44179944  1  0  -0.722492  0  2.015118  0  0  -0.662833  0  2.260141  0  0  -0.700003  0  2.247025  0  0  -0.383282  -0.643433  0  2.266668  0
O  O68  1  0.39916979  0.78015758  0.91856766  1  0  -0.721904  0  2.077082  0  0  -0.665143  0  2.339218  0  0  -0.701983  0  2.322671  0  0  -0.39986  -0.646719  0  2.34655  0
O  O69  1  0.89917157  0.71983244  0.58143691  1  0  -0.721884  0  2.076986  0  0  -0.665097  0  2.33916  0  0  -0.701938  0  2.322614  0  0  -0.399827  -0.646669  0  2.346467  0
O  O70  1  0.60083201  0.21984036  0.08143358  1  0  -0.721938  0  2.077245  0  0  -0.665184  0  2.33935  0  0  -0.702017  0  2.322803  0  0  -0.399862  -0.646756  0  2.346686  0
O  O71  1  0.10083023  0.28016550  0.41856535  1  0  -0.721887  0  2.076982  0  0  -0.665107  0  2.339114  0  0  -0.701946  0  2.322566  0  0  -0.399857  -0.646675  0  2.346428  0
O  O72  1  0.69489985  0.44732664  0.93351716  1  0  -0.686483  0  1.95852  0  0  -0.633537  0  2.203018  0  0  -0.668619  0  2.189177  0  0  -0.378443  -0.61602  0  2.20919  0
O  O73  1  0.19490599  0.05267724  0.56648635  1  0  -0.68634  0  1.958824  0  0  -0.633346  0  2.20328  0  0  -0.668426  0  2.18944  0  0  -0.378325  -0.615837  0  2.209453  0
O  O74  1  0.30509137  0.55267867  0.06648473  1  0  -0.686355  0  1.958754  0  0  -0.633392  0  2.203245  0  0  -0.66847  0  2.1894  0  0  -0.378365  -0.615871  0  2.209423  0
O  O75  1  0.80509431  0.94731774  0.43351279  1  0  -0.686317  0  1.958929  0  0  -0.633288  0  2.203397  0  0  -0.668364  0  2.18956  0  0  -0.378291  -0.615783  0  2.209576  0
O  O76  1  0.67347262  0.12084036  0.90848370  1  0  -0.73329  0  1.974247  0  0  -0.676212  0  2.227022  0  0  -0.712329  0  2.209372  0  0  -0.375818  -0.658154  0  2.235467  0
O  O77  1  0.17348259  0.37917068  0.59151940  1  0  -0.73339  0  1.974134  0  0  -0.676275  0  2.226909  0  0  -0.712414  0  2.209286  0  0  -0.375878  -0.658205  0  2.235333  0
O  O78  1  0.32652011  0.87916789  0.09151519  1  0  -0.733319  0  1.97405  0  0  -0.676235  0  2.226834  0  0  -0.71236  0  2.209197  0  0  -0.375846  -0.658167  0  2.235279  0
O  O79  1  0.82652073  0.62082431  0.40848026  1  0  -0.733431  0  1.973873  0  0  -0.676305  0  2.226695  0  0  -0.712433  0  2.209053  0  0  -0.375885  -0.658236  0  2.235122  0
O  O80  1  0.09018586  0.84098806  0.70569742  1  0  -0.727953  0  2.042506  0  0  -0.678742  0  2.305653  0  0  -0.715665  0  2.293029  0  0  -0.397384  -0.66022  0  2.311089  0
O  O81  1  0.59019692  0.65899741  0.79431048  1  0  -0.728125  0  2.042056  0  0  -0.678971  0  2.305159  0  0  -0.715897  0  2.292519  0  0  -0.397501  -0.660396  0  2.310592  0
O  O82  1  0.90981897  0.15900988  0.29430434  1  0  -0.728184  0  2.042186  0  0  -0.678904  0  2.305381  0  0  -0.715836  0  2.292774  0  0  -0.39749  -0.660373  0  2.310818  0
O  O83  1  0.40980792  0.34100348  0.20569082  1  0  -0.728262  0  2.042026  0  0  -0.679129  0  2.305199  0  0  -0.716052  0  2.292544  0  0  -0.397598  -0.660555  0  2.310645  0
O  O84  1  0.94879571  0.88750452  0.80913737  1  0  -0.722996  0  2.103039  0  0  -0.66988  0  2.354077  0  0  -0.70491  0  2.342523  0  0  -0.381953  -0.65191  0  2.359572  0
O  O85  1  0.44880169  0.61250075  0.69087067  1  0  -0.722623  0  2.103825  0  0  -0.669596  0  2.354837  0  0  -0.704617  0  2.343266  0  0  -0.381823  -0.651652  0  2.36037  0
O  O86  1  0.05120761  0.11249931  0.19086348  1  0  -0.722836  0  2.103065  0  0  -0.669724  0  2.354216  0  0  -0.704746  0  2.342659  0  0  -0.381835  -0.651756  0  2.359723  0
O  O87  1  0.55121827  0.38749718  0.30912802  1  0  -0.722635  0  2.103944  0  0  -0.669568  0  2.354939  0  0  -0.704596  0  2.343371  0  0  -0.381786  -0.651604  0  2.360441  0
O  O88  1  0.71574396  0.83629457  0.01867595  1  0  -0.891017  0  1.888525  0  0  -0.842012  0  2.092395  0  0  -0.871045  0  2.051956  0  0  -0.635103  -0.828422  0  2.116335  0
O  O89  1  0.21574363  0.66371570  0.48132521  1  0  -0.891179  0  1.888483  0  0  -0.842168  0  2.092274  0  0  -0.871203  0  2.051822  0  0  -0.635057  -0.828564  0  2.116216  0
O  O90  1  0.28425330  0.16370484  0.98132481  1  0  -0.891055  0  1.888463  0  0  -0.842056  0  2.092359  0  0  -0.871083  0  2.051912  0  0  -0.635098  -0.828467  0  2.116302  0
O  O91  1  0.78425818  0.33628224  0.51867450  1  0  -0.891146  0  1.888377  0  0  -0.84213  0  2.092239  0  0  -0.871162  0  2.05179  0  0  -0.635059  -0.828521  0  2.116182  0
