# generated using pymatgen
data_CdH8C7SN4O5
_symmetry_space_group_name_H-M   'P 1'
_cell_length_a   5.40424127
_cell_length_b   5.58993392
_cell_length_c   18.46373183
_cell_angle_alpha   89.99951349
_cell_angle_beta   89.99863675
_cell_angle_gamma   104.09338880
_symmetry_Int_Tables_number   1
_chemical_formula_structural   CdH8C7SN4O5
_chemical_formula_sum   'Cd2 H16 C14 S2 N8 O10'
_cell_volume   540.98833348
_cell_formula_units_Z   2
loop_
 _symmetry_equiv_pos_site_id
 _symmetry_equiv_pos_as_xyz
  1  'x, y, z'
loop_
 _atom_site_type_symbol
 _atom_site_label
 _atom_site_symmetry_multiplicity
 _atom_site_fract_x
 _atom_site_fract_y
 _atom_site_fract_z
 _atom_site_occupancy
 _atom_site_hle17_bader_spin_density
 _atom_site_hle17_ddec_charge
 _atom_site_hle17_ddec_spin_density
 _atom_site_hle17_ddec_sum_bond_order
 _atom_site_hle17_magmom
 _atom_site_hse06_10hf_bader_spin_density
 _atom_site_hse06_10hf_ddec_charge
 _atom_site_hse06_10hf_ddec_spin_density
 _atom_site_hse06_10hf_ddec_sum_bond_order
 _atom_site_hse06_10hf_magmom
 _atom_site_hse06_bader_spin_density
 _atom_site_hse06_ddec_charge
 _atom_site_hse06_ddec_spin_density
 _atom_site_hse06_ddec_sum_bond_order
 _atom_site_hse06_magmom
 _atom_site_pbe_bader_spin_density
 _atom_site_pbe_cm5_charge
 _atom_site_pbe_ddec_charge
 _atom_site_pbe_ddec_spin_density
 _atom_site_pbe_ddec_sum_bond_order
 _atom_site_pbe_magmom
Cd  Cd0  1  0.30330852  0.73765063  0.16771708  1  0  1.218947  0  1.642425  0  0  1.030601  0  2.090919  0  0  1.081815  0  2.038434  0  0  0.804985  0.993981  0  2.127145  0
Cd  Cd1  1  0.69669833  0.26233921  0.66771604  1  0  1.21895  0  1.64244  0  0  1.030614  0  2.090951  0  0  1.081824  0  2.038463  0  0  0.805013  0.993991  0  2.127177  0
H  H2  1  0.23597313  0.18345191  0.19369815  1  0  0.4062  0  0.909998  0  0  0.374037  0  0.97822  0  0  0.383991  0  0.963797  0  0  0.282037  0.366983  0  0.988417  0
H  H3  1  0.76401088  0.81652927  0.69369575  1  0  0.406345  0  0.909813  0  0  0.374161  0  0.978026  0  0  0.384107  0  0.963616  0  0  0.282125  0.367108  0  0.988223  0
H  H4  1  0.95196452  0.02912656  0.19797890  1  0  0.424028  0  0.880706  0  0  0.393567  0  0.94388  0  0  0.40392  0  0.928903  0  0  0.285115  0.38625  0  0.954439  0
H  H5  1  0.04801678  0.97085994  0.69797936  1  0  0.423928  0  0.880827  0  0  0.393468  0  0.943987  0  0  0.403819  0  0.929015  0  0  0.285118  0.386148  0  0.954549  0
H  H6  1  0.03018912  0.04468899  0.05440812  1  0  0.091877  0  0.966037  0  0  0.096729  0  1.035165  0  0  0.099649  0  1.03222  0  0  0.115678  0.094464  0  1.037507  0
H  H7  1  0.96983870  0.95528809  0.55440504  1  0  0.091944  0  0.965692  0  0  0.096763  0  1.034912  0  0  0.099648  0  1.032008  0  0  0.115668  0.094543  0  1.037203  0
H  H8  1  0.98103538  0.09704899  0.92091599  1  0  0.116469  0  0.960338  0  0  0.122305  0  1.026847  0  0  0.125908  0  1.025485  0  0  0.10968  0.119704  0  1.027986  0
H  H9  1  0.01898431  0.90295760  0.42090392  1  0  0.116425  0  0.960333  0  0  0.122265  0  1.026868  0  0  0.125874  0  1.025504  0  0  0.109616  0.119653  0  1.028017  0
H  H10  1  0.19665173  0.87094028  0.83522859  1  0  0.125206  0  0.922611  0  0  0.138368  0  0.977631  0  0  0.141284  0  0.975533  0  0  0.120893  0.136199  0  0.979209  0
H  H11  1  0.80334290  0.12908541  0.33523539  1  0  0.125229  0  0.922977  0  0  0.138373  0  0.977978  0  0  0.141285  0  0.975884  0  0  0.12094  0.136212  0  0.979548  0
H  H12  1  0.46583124  0.53691202  0.02198785  1  0  0.098131  0  0.987128  0  0  0.102168  0  1.057854  0  0  0.105054  0  1.055363  0  0  0.120484  0.100047  0  1.059624  0
H  H13  1  0.53419792  0.46310359  0.52199173  1  0  0.098142  0  0.987107  0  0  0.102166  0  1.057823  0  0  0.10504  0  1.055368  0  0  0.120485  0.100045  0  1.059587  0
H  H14  1  0.74360984  0.44375609  0.95295646  1  0  0.127021  0  0.983583  0  0  0.133044  0  1.047542  0  0  0.136034  0  1.04459  0  0  0.139414  0.130819  0  1.049694  0
H  H15  1  0.25640081  0.55626181  0.45296426  1  0  0.127015  0  0.983707  0  0  0.132997  0  1.047719  0  0  0.13599  0  1.044757  0  0  0.139385  0.130767  0  1.04989  0
H  H16  1  0.29046497  0.54258371  0.77227393  1  0  0.125933  0  0.97241  0  0  0.130604  0  1.038846  0  0  0.134224  0  1.034272  0  0  0.143308  0.127867  0  1.042246  0
H  H17  1  0.70951437  0.45742673  0.27226968  1  0  0.125728  0  0.972553  0  0  0.130462  0  1.03895  0  0  0.134081  0  1.034377  0  0  0.143256  0.127723  0  1.042354  0
C  C18  1  0.12038418  0.94506331  0.01596426  1  0  0.134464  0  3.662186  0  0  0.100522  0  3.91748  0  0  0.107081  0  3.935626  0  0  0.049626  0.096231  0  3.90532  0
C  C19  1  0.87962241  0.05494157  0.51595655  1  0  0.134421  0  3.661979  0  0  0.100463  0  3.917355  0  0  0.107048  0  3.935532  0  0  0.04966  0.096148  0  3.905159  0
C  C20  1  0.09466212  0.97550062  0.94159679  1  0  -0.102559  0  3.708738  0  0  -0.115421  0  3.965134  0  0  -0.121884  0  3.986379  0  0  -0.080037  -0.111281  0  3.950887  0
C  C21  1  0.90533572  0.02450679  0.44158421  1  0  -0.102647  0  3.708896  0  0  -0.11552  0  3.965239  0  0  -0.12197  0  3.986432  0  0  -0.080054  -0.111373  0  3.951018  0
C  C22  1  0.21381309  0.84747550  0.89348114  1  0  -0.077788  0  3.678629  0  0  -0.107937  0  3.93421  0  0  -0.106181  0  3.951981  0  0  -0.060925  -0.108782  0  3.922171  0
C  C23  1  0.78617179  0.15253804  0.39347337  1  0  -0.077862  0  3.679306  0  0  -0.107947  0  3.934909  0  0  -0.10619  0  3.95269  0  0  -0.060945  -0.108796  0  3.922876  0
C  C24  1  0.35139581  0.68830099  0.92239811  1  0  0.137779  0  3.76255  0  0  0.132631  0  4.010986  0  0  0.133759  0  4.034194  0  0  0.105666  0.131553  0  3.995455  0
C  C25  1  0.64861540  0.31169446  0.42239899  1  0  0.137896  0  3.762533  0  0  0.132607  0  4.011136  0  0  0.13373  0  4.034351  0  0  0.105578  0.131527  0  3.995607  0
C  C26  1  0.36598721  0.66396988  0.99743439  1  0  0.057678  0  3.659107  0  0  0.021135  0  3.909334  0  0  0.026443  0  3.926668  0  0  0.051811  0.017762  0  3.897577  0
C  C27  1  0.63402657  0.33603839  0.49743584  1  0  0.057579  0  3.658736  0  0  0.021155  0  3.908936  0  0  0.026454  0  3.926282  0  0  0.05177  0.017782  0  3.89719  0
C  C28  1  0.67089492  0.44088924  0.89792450  1  0  0.124746  0  3.651476  0  0  0.06975  0  3.926758  0  0  0.079817  0  3.939869  0  0  0.148633  0.063256  0  3.917831  0
C  C29  1  0.32911402  0.55911852  0.39793179  1  0  0.124591  0  3.651547  0  0  0.069637  0  3.92685  0  0  0.079702  0  3.939978  0  0  0.148576  0.063145  0  3.917912  0
C  C30  1  0.43661203  0.49436493  0.80580734  1  0  0.177699  0  3.591815  0  0  0.114835  0  3.854926  0  0  0.128674  0  3.866268  0  0  0.164484  0.105812  0  3.847142  0
C  C31  1  0.56337980  0.50563274  0.30580776  1  0  0.177932  0  3.59164  0  0  0.115012  0  3.854778  0  0  0.128846  0  3.866125  0  0  0.164502  0.105993  0  3.846993  0
S  S32  1  0.70557603  0.31647834  0.12874201  1  0  1.586379  0  5.820082  0  0  1.457774  0  6.363522  0  0  1.514277  0  6.327576  0  0  0.562156  1.418551  0  6.38721  0
S  S33  1  0.29442671  0.68351901  0.62874749  1  0  1.586333  0  5.819914  0  0  1.457778  0  6.363275  0  0  1.514273  0  6.327333  0  0  0.562255  1.418554  0  6.386961  0
N  N34  1  0.25494972  0.79231125  0.04299699  1  0  -0.314123  0  3.274567  0  0  -0.235383  0  3.53842  0  0  -0.255328  0  3.558324  0  0  -0.319964  -0.221752  0  3.524685  0
N  N35  1  0.74506446  0.20769594  0.54300226  1  0  -0.31402  0  3.274307  0  0  -0.23532  0  3.538162  0  0  -0.255265  0  3.55806  0  0  -0.319882  -0.221689  0  3.524429  0
N  N36  1  0.47700447  0.54829207  0.87770755  1  0  -0.112098  0  3.570726  0  0  -0.022716  0  3.784866  0  0  -0.038983  0  3.809016  0  0  -0.213612  -0.011886  0  3.768354  0
N  N37  1  0.52299063  0.45169089  0.37770838  1  0  -0.111899  0  3.570614  0  0  -0.022475  0  3.784787  0  0  -0.03874  0  3.808944  0  0  -0.213415  -0.01164  0  3.76827  0
N  N38  1  0.74641115  0.33054030  0.84228612  1  0  -0.221161  0  2.93158  0  0  -0.20576  0  3.216341  0  0  -0.21302  0  3.231544  0  0  -0.22992  -0.200882  0  3.205988  0
N  N39  1  0.25357304  0.66946106  0.34229147  1  0  -0.221172  0  2.931521  0  0  -0.205741  0  3.216262  0  0  -0.213007  0  3.231475  0  0  -0.229858  -0.200858  0  3.205902  0
N  N40  1  0.59705728  0.36481900  0.78410929  1  0  -0.275297  0  3.147554  0  0  -0.206344  0  3.43801  0  0  -0.225055  0  3.455186  0  0  -0.238881  -0.193539  0  3.426096  0
N  N41  1  0.40292785  0.63518161  0.28411155  1  0  -0.275346  0  3.147369  0  0  -0.206392  0  3.437831  0  0  -0.225106  0  3.455014  0  0  -0.238916  -0.193584  0  3.425916  0
O  O42  1  0.89296405  0.48713637  0.17596779  1  0  -0.755673  0  2.017083  0  0  -0.683861  0  2.291147  0  0  -0.708409  0  2.271159  0  0  -0.371359  -0.666416  0  2.304368  0
O  O43  1  0.10703048  0.51286599  0.67597174  1  0  -0.755748  0  2.01718  0  0  -0.683946  0  2.291281  0  0  -0.70849  0  2.271298  0  0  -0.371378  -0.666497  0  2.304495  0
O  O44  1  0.78533281  0.33202814  0.05277766  1  0  -0.701678  0  1.943127  0  0  -0.654431  0  2.194527  0  0  -0.675367  0  2.180038  0  0  -0.355529  -0.639612  0  2.203991  0
O  O45  1  0.21466613  0.66798780  0.55277777  1  0  -0.701613  0  1.942825  0  0  -0.654411  0  2.194277  0  0  -0.675325  0  2.179741  0  0  -0.355532  -0.639596  0  2.20375  0
O  O46  1  0.67883650  0.05872529  0.15781240  1  0  -0.780713  0  2.01115  0  0  -0.708048  0  2.281604  0  0  -0.732807  0  2.260783  0  0  -0.370942  -0.69042  0  2.295345  0
O  O47  1  0.32117504  0.94127980  0.65781649  1  0  -0.780727  0  2.011175  0  0  -0.708009  0  2.281565  0  0  -0.732765  0  2.260755  0  0  -0.370956  -0.690377  0  2.295308  0
O  O48  1  0.44988560  0.37700305  0.13645793  1  0  -0.787827  0  2.04013  0  0  -0.712701  0  2.311582  0  0  -0.737702  0  2.292008  0  0  -0.366212  -0.694948  0  2.324591  0
O  O49  1  0.55011453  0.62298653  0.63645478  1  0  -0.787775  0  2.040051  0  0  -0.71272  0  2.311558  0  0  -0.737704  0  2.291976  0  0  -0.366288  -0.694974  0  2.324575  0
O  O50  1  0.12572831  0.03636337  0.21748914  1  0  -0.823615  0  1.855586  0  0  -0.765462  0  2.047522  0  0  -0.787178  0  2.015844  0  0  -0.596605  -0.749969  0  2.069349  0
O  O51  1  0.87424923  0.96360739  0.71749157  1  0  -0.823674  0  1.855585  0  0  -0.765443  0  2.047623  0  0  -0.787177  0  2.015996  0  0  -0.596706  -0.749949  0  2.06945  0
