# generated using pymatgen
data_CaH12C8(NO3)2
_symmetry_space_group_name_H-M   'P 1'
_cell_length_a   8.01782611
_cell_length_b   8.01783053
_cell_length_c   9.81567524
_cell_angle_alpha   74.03296790
_cell_angle_beta   74.03299221
_cell_angle_gamma   62.08381268
_symmetry_Int_Tables_number   1
_chemical_formula_structural   CaH12C8(NO3)2
_chemical_formula_sum   'Ca2 H24 C16 N4 O12'
_cell_volume   528.05876189
_cell_formula_units_Z   2
loop_
 _symmetry_equiv_pos_site_id
 _symmetry_equiv_pos_as_xyz
  1  'x, y, z'
loop_
 _atom_site_type_symbol
 _atom_site_label
 _atom_site_symmetry_multiplicity
 _atom_site_fract_x
 _atom_site_fract_y
 _atom_site_fract_z
 _atom_site_occupancy
 _atom_site_hle17_bader_spin_density
 _atom_site_hle17_ddec_charge
 _atom_site_hle17_ddec_spin_density
 _atom_site_hle17_ddec_sum_bond_order
 _atom_site_hle17_magmom
 _atom_site_hse06_10hf_bader_spin_density
 _atom_site_hse06_10hf_ddec_charge
 _atom_site_hse06_10hf_ddec_spin_density
 _atom_site_hse06_10hf_ddec_sum_bond_order
 _atom_site_hse06_10hf_magmom
 _atom_site_hse06_bader_spin_density
 _atom_site_hse06_ddec_charge
 _atom_site_hse06_ddec_spin_density
 _atom_site_hse06_ddec_sum_bond_order
 _atom_site_hse06_magmom
 _atom_site_pbe_bader_spin_density
 _atom_site_pbe_cm5_charge
 _atom_site_pbe_ddec_charge
 _atom_site_pbe_ddec_spin_density
 _atom_site_pbe_ddec_sum_bond_order
 _atom_site_pbe_magmom
Ca  Ca0  1  0.61727789  0.38272268  0.24999990  1  0  1.558714  0  1.141157  0  0  1.42036  0  1.50759  0  0  1.464022  0  1.460243  0  0  0.89917  1.387638  0  1.540755  0
Ca  Ca1  1  0.38272247  0.61727705  0.75000033  1  0  1.558716  0  1.141146  0  0  1.420342  0  1.507592  0  0  1.464032  0  1.460222  0  0  0.899166  1.387638  0  1.54074  0
H  H2  1  0.32745750  0.01396382  0.10865971  1  0  0.10054  0  0.943406  0  0  0.118281  0  1.00163  0  0  0.119569  0  1.002286  0  0  0.10208  0.116987  0  1.00192  0
H  H3  1  0.98603671  0.67254313  0.39134011  1  0  0.100534  0  0.943421  0  0  0.118277  0  1.001641  0  0  0.119574  0  1.002286  0  0  0.102076  0.116983  0  1.00193  0
H  H4  1  0.67254353  0.98603736  0.89134106  1  0  0.10054  0  0.94342  0  0  0.118283  0  1.001638  0  0  0.119577  0  1.002288  0  0  0.102088  0.116989  0  1.001928  0
H  H5  1  0.01396173  0.32745802  0.60865922  1  0  0.100525  0  0.943437  0  0  0.118268  0  1.001651  0  0  0.119561  0  1.002301  0  0  0.102082  0.116975  0  1.001943  0
H  H6  1  0.17168724  0.91963365  0.10801910  1  0  0.114418  0  0.928901  0  0  0.130365  0  0.988233  0  0  0.132585  0  0.987223  0  0  0.112067  0.128741  0  0.989141  0
H  H7  1  0.08036480  0.82831264  0.39198213  1  0  0.114432  0  0.928893  0  0  0.130392  0  0.988201  0  0  0.132612  0  0.987194  0  0  0.112074  0.128766  0  0.989109  0
H  H8  1  0.82831311  0.08036608  0.89198317  1  0  0.114418  0  0.928896  0  0  0.130364  0  0.988228  0  0  0.132583  0  0.98722  0  0  0.112083  0.12874  0  0.989136  0
H  H9  1  0.91963365  0.17168851  0.60801821  1  0  0.114406  0  0.928926  0  0  0.130357  0  0.988236  0  0  0.132578  0  0.987228  0  0  0.112083  0.128735  0  0.989145  0
H  H10  1  0.28329285  0.20223050  0.86200071  1  0  0.107721  0  0.952825  0  0  0.122217  0  1.013892  0  0  0.124645  0  1.013377  0  0  0.107502  0.120519  0  1.014173  0
H  H11  1  0.79776864  0.71670662  0.63799910  1  0  0.107706  0  0.952832  0  0  0.122204  0  1.013909  0  0  0.124633  0  1.013393  0  0  0.107494  0.120506  0  1.01419  0
H  H12  1  0.71670621  0.79776921  0.13799982  1  0  0.107704  0  0.952869  0  0  0.1222  0  1.013926  0  0  0.124627  0  1.013413  0  0  0.10749  0.120502  0  1.014208  0
H  H13  1  0.20223109  0.28329454  0.36200095  1  0  0.107737  0  0.952805  0  0  0.122218  0  1.013879  0  0  0.124646  0  1.013366  0  0  0.107505  0.120521  0  1.014159  0
H  H14  1  0.17216192  0.06977971  0.83761467  1  0  0.116359  0  0.932071  0  0  0.128867  0  0.996766  0  0  0.131896  0  0.994916  0  0  0.114226  0.126184  0  0.999015  0
H  H15  1  0.93022023  0.82783714  0.66238505  1  0  0.116349  0  0.932084  0  0  0.128873  0  0.996777  0  0  0.131905  0  0.994925  0  0  0.11423  0.126189  0  0.999026  0
H  H16  1  0.82783906  0.93021858  0.16238677  1  0  0.116389  0  0.932022  0  0  0.128883  0  0.996728  0  0  0.131922  0  0.994866  0  0  0.114228  0.1262  0  0.998977  0
H  H17  1  0.06978141  0.17216260  0.33761387  1  0  0.116342  0  0.93208  0  0  0.128845  0  0.996777  0  0  0.131883  0  0.994917  0  0  0.114217  0.126162  0  0.999025  0
H  H18  1  0.78992795  0.54179274  0.90973019  1  0  0.342021  0  0.898298  0  0  0.318861  0  0.970561  0  0  0.327995  0  0.962067  0  0  0.313264  0.312451  0  0.976436  0
H  H19  1  0.45820708  0.21007318  0.59027014  1  0  0.342019  0  0.898291  0  0  0.318854  0  0.97056  0  0  0.327988  0  0.962067  0  0  0.313263  0.312444  0  0.976433  0
H  H20  1  0.21007432  0.45820557  0.09027196  1  0  0.342029  0  0.898308  0  0  0.318864  0  0.970573  0  0  0.327998  0  0.96208  0  0  0.313263  0.312453  0  0.976449  0
H  H21  1  0.54179265  0.78992798  0.40972889  1  0  0.342017  0  0.898309  0  0  0.318857  0  0.970573  0  0  0.327991  0  0.962079  0  0  0.31326  0.312447  0  0.976448  0
H  H22  1  0.01466328  0.47753693  0.79269123  1  0  0.340806  0  0.920414  0  0  0.319148  0  0.988736  0  0  0.327486  0  0.982267  0  0  0.30374  0.313123  0  0.993562  0
H  H23  1  0.52246279  0.98533704  0.70730813  1  0  0.340812  0  0.920409  0  0  0.319149  0  0.988733  0  0  0.327488  0  0.982264  0  0  0.303741  0.313125  0  0.993559  0
H  H24  1  0.98533707  0.52246280  0.20731002  1  0  0.340899  0  0.92038  0  0  0.319224  0  0.988715  0  0  0.327562  0  0.982245  0  0  0.303769  0.313198  0  0.993541  0
H  H25  1  0.47753757  0.01466268  0.29269109  1  0  0.34086  0  0.920358  0  0  0.319188  0  0.988699  0  0  0.327527  0  0.982229  0  0  0.303756  0.313163  0  0.993525  0
C  C26  1  0.44704187  0.78983877  0.98602346  1  0  0.73979  0  3.833806  0  0  0.689757  0  4.138667  0  0  0.723458  0  4.129652  0  0  0.233166  0.66663  0  4.14399  0
C  C27  1  0.21016121  0.55295827  0.51397591  1  0  0.739779  0  3.833815  0  0  0.689732  0  4.138696  0  0  0.723433  0  4.129683  0  0  0.233167  0.666604  0  4.144017  0
C  C28  1  0.55295848  0.21016096  0.01397779  1  0  0.739739  0  3.833793  0  0  0.689687  0  4.138686  0  0  0.723388  0  4.129673  0  0  0.23316  0.666561  0  4.144007  0
C  C29  1  0.78983915  0.44704146  0.48602229  1  0  0.739833  0  3.833743  0  0  0.68976  0  4.138658  0  0  0.723459  0  4.129646  0  0  0.233185  0.666636  0  4.143979  0
C  C30  1  0.27972384  0.96700255  0.03722685  1  0  -0.248252  0  3.684686  0  0  -0.290241  0  3.936795  0  0  -0.294866  0  3.944529  0  0  -0.162396  -0.286824  0  3.931565  0
C  C31  1  0.03299714  0.72027600  0.46277413  1  0  -0.248266  0  3.68475  0  0  -0.290245  0  3.936855  0  0  -0.294876  0  3.944591  0  0  -0.162395  -0.286823  0  3.931619  0
C  C32  1  0.72027651  0.03299718  0.96277542  1  0  -0.248224  0  3.684679  0  0  -0.290225  0  3.936809  0  0  -0.294855  0  3.944545  0  0  -0.162422  -0.286808  0  3.931579  0
C  C33  1  0.96700130  0.27972515  0.53722520  1  0  -0.248271  0  3.684764  0  0  -0.290242  0  3.936858  0  0  -0.29487  0  3.944589  0  0  -0.162455  -0.286834  0  3.931641  0
C  C34  1  0.19079622  0.12890379  0.91846497  1  0  -0.253743  0  3.679944  0  0  -0.293329  0  3.923643  0  0  -0.298354  0  3.931509  0  0  -0.161509  -0.289491  0  3.918127  0
C  C35  1  0.87109555  0.80920379  0.58153466  1  0  -0.253701  0  3.679912  0  0  -0.293353  0  3.923651  0  0  -0.298375  0  3.931529  0  0  -0.161511  -0.289521  0  3.918131  0
C  C36  1  0.80920605  0.87109452  0.08153617  1  0  -0.253755  0  3.679923  0  0  -0.293325  0  3.923535  0  0  -0.298355  0  3.931399  0  0  -0.1615  -0.289486  0  3.918017  0
C  C37  1  0.12890351  0.19079592  0.41846484  1  0  -0.253725  0  3.679917  0  0  -0.293299  0  3.923555  0  0  -0.298329  0  3.931428  0  0  -0.161494  -0.289461  0  3.918041  0
C  C38  1  0.99463435  0.27637387  0.97141297  1  0  0.68628  0  3.772786  0  0  0.64532  0  4.055712  0  0  0.674991  0  4.054712  0  0  0.258561  0.625006  0  4.05565  0
C  C39  1  0.72362487  0.00536822  0.52858434  1  0  0.68626  0  3.772827  0  0  0.645356  0  4.055686  0  0  0.675004  0  4.054718  0  0  0.258563  0.625056  0  4.055606  0
C  C40  1  0.00536663  0.72362442  0.02858745  1  0  0.686259  0  3.772877  0  0  0.645363  0  4.05569  0  0  0.675034  0  4.054693  0  0  0.258564  0.625049  0  4.055631  0
C  C41  1  0.27637486  0.99463294  0.47141367  1  0  0.686219  0  3.772846  0  0  0.645291  0  4.055715  0  0  0.674946  0  4.054743  0  0  0.258545  0.624979  0  4.055654  0
N  N42  1  0.92670332  0.44295142  0.88208364  1  0  -0.691824  0  3.099479  0  0  -0.657434  0  3.343308  0  0  -0.680405  0  3.336333  0  0  -0.560639  -0.641459  0  3.348148  0
N  N43  1  0.55704769  0.07329660  0.61791617  1  0  -0.691841  0  3.099444  0  0  -0.657443  0  3.343229  0  0  -0.680408  0  3.336265  0  0  -0.560642  -0.641474  0  3.348062  0
N  N44  1  0.07329704  0.55704831  0.11791761  1  0  -0.691911  0  3.099505  0  0  -0.657518  0  3.343304  0  0  -0.680491  0  3.33633  0  0  -0.560644  -0.641541  0  3.348145  0
N  N45  1  0.44295137  0.92670311  0.38208334  1  0  -0.691854  0  3.099463  0  0  -0.657465  0  3.343286  0  0  -0.680433  0  3.33632  0  0  -0.560633  -0.64149  0  3.348126  0
O  O46  1  0.49356399  0.77927619  0.85182442  1  0  -0.73402  0  1.957648  0  0  -0.663911  0  2.197207  0  0  -0.690651  0  2.185827  0  0  -0.366947  -0.644714  0  2.204431  0
O  O47  1  0.22072293  0.50643661  0.64817607  1  0  -0.734033  0  1.957611  0  0  -0.663921  0  2.197188  0  0  -0.690663  0  2.185808  0  0  -0.366956  -0.644724  0  2.204412  0
O  O48  1  0.50643507  0.22072352  0.14817712  1  0  -0.734012  0  1.957629  0  0  -0.663905  0  2.197207  0  0  -0.690638  0  2.185826  0  0  -0.366944  -0.644705  0  2.20443  0
O  O49  1  0.77927680  0.49356455  0.35182296  1  0  -0.734026  0  1.957588  0  0  -0.663919  0  2.197198  0  0  -0.69065  0  2.185811  0  0  -0.366939  -0.644719  0  2.20442  0
O  O50  1  0.53492979  0.65665275  0.08050295  1  0  -0.729284  0  1.962925  0  0  -0.670844  0  2.219145  0  0  -0.69745  0  2.205943  0  0  -0.385949  -0.65193  0  2.227589  0
O  O51  1  0.34334762  0.46507115  0.41949775  1  0  -0.72926  0  1.962917  0  0  -0.670812  0  2.219133  0  0  -0.697418  0  2.205931  0  0  -0.385947  -0.6519  0  2.227578  0
O  O52  1  0.46507056  0.34334698  0.91949830  1  0  -0.729246  0  1.962913  0  0  -0.670789  0  2.219138  0  0  -0.697397  0  2.205934  0  0  -0.385938  -0.651878  0  2.22758  0
O  O53  1  0.65665212  0.53493001  0.58050128  1  0  -0.72926  0  1.962883  0  0  -0.670808  0  2.219129  0  0  -0.697419  0  2.205926  0  0  -0.385935  -0.651898  0  2.22757  0
O  O54  1  0.89897342  0.23888902  0.09099777  1  0  -0.67018  0  1.961034  0  0  -0.607241  0  2.20146  0  0  -0.632922  0  2.193272  0  0  -0.356755  -0.589049  0  2.206982  0
O  O55  1  0.76110919  0.10102782  0.40900252  1  0  -0.670153  0  1.96116  0  0  -0.607238  0  2.201562  0  0  -0.63291  0  2.193383  0  0  -0.356742  -0.58905  0  2.207074  0
O  O56  1  0.10102626  0.76110926  0.90900396  1  0  -0.670185  0  1.961101  0  0  -0.607274  0  2.201498  0  0  -0.632956  0  2.193302  0  0  -0.356779  -0.589084  0  2.207018  0
O  O57  1  0.23888925  0.89897332  0.59099783  1  0  -0.670146  0  1.96107  0  0  -0.607227  0  2.201485  0  0  -0.632906  0  2.193302  0  0  -0.356754  -0.589038  0  2.207007  0
