# generated using pymatgen
data_CdH20C17(NO)4
_symmetry_space_group_name_H-M   'P 1'
_cell_length_a   11.10479987
_cell_length_b   13.62773672
_cell_length_c   17.28753973
_cell_angle_alpha   106.04945739
_cell_angle_beta   89.99977433
_cell_angle_gamma   89.99978924
_symmetry_Int_Tables_number   1
_chemical_formula_structural   CdH20C17(NO)4
_chemical_formula_sum   'Cd4 H80 C68 N16 O16'
_cell_volume   2514.21045816
_cell_formula_units_Z   4
loop_
 _symmetry_equiv_pos_site_id
 _symmetry_equiv_pos_as_xyz
  1  'x, y, z'
loop_
 _atom_site_type_symbol
 _atom_site_label
 _atom_site_symmetry_multiplicity
 _atom_site_fract_x
 _atom_site_fract_y
 _atom_site_fract_z
 _atom_site_occupancy
 _atom_site_pbe_bader_charge
 _atom_site_pbe_bader_spin_density
 _atom_site_pbe_cm5_charge
 _atom_site_pbe_ddec_charge
 _atom_site_pbe_ddec_spin_density
 _atom_site_pbe_ddec_sum_bond_order
 _atom_site_pbe_magmom
Cd  Cd0  1  0.31702288  0.11657300  0.33917618  1  1.20876  0  0.751014  0.792634  0  2.175512  0
Cd  Cd1  1  0.81702259  0.88342675  0.16082417  1  1.208867  0  0.751008  0.792597  0  2.175575  0
Cd  Cd2  1  0.68297993  0.88342929  0.66082710  1  1.208893  0  0.751028  0.792658  0  2.175468  0
Cd  Cd3  1  0.18297481  0.11657246  0.83917614  1  1.208802  0  0.750998  0.792606  0  2.175544  0
H  H4  1  0.40813184  0.08156429  0.75547884  1  0.448673  0  0.296595  0.255279  0  0.960167  0
H  H5  1  0.90813358  0.91843497  0.74452098  1  0.448579  0  0.296587  0.255267  0  0.960141  0
H  H6  1  0.59186646  0.91843494  0.24452264  1  0.448596  0  0.296583  0.255271  0  0.960149  0
H  H7  1  0.09186742  0.08156348  0.25547917  1  0.448652  0  0.296588  0.255276  0  0.960148  0
H  H8  1  0.30645764  0.26940695  0.96046500  1  0.387128  0  0.30147  0.240142  0  0.949163  0
H  H9  1  0.80645968  0.73059045  0.53953527  1  0.387137  0  0.301489  0.24012  0  0.949194  0
H  H10  1  0.69354066  0.73059225  0.03953358  1  0.38709  0  0.301495  0.240211  0  0.949071  0
H  H11  1  0.19353592  0.26940876  0.46046505  1  0.3871  0  0.301505  0.240205  0  0.949106  0
H  H12  1  0.24109842  0.11569984  0.51411585  1  0.079482  0  0.113531  0.095986  0  1.015592  0
H  H13  1  0.74109435  0.88430622  0.98588525  1  0.079418  0  0.113554  0.096042  0  1.015658  0
H  H14  1  0.75890889  0.88430321  0.48588643  1  0.079371  0  0.113542  0.096056  0  1.015581  0
H  H15  1  0.25890125  0.11569450  0.01411365  1  0.079479  0  0.113516  0.095969  0  1.015604  0
H  H16  1  0.55354218  0.09978192  0.65989226  1  0.140544  0  0.110303  0.122547  0  1.028744  0
H  H17  1  0.05353891  0.90021879  0.84010589  1  0.140545  0  0.110297  0.122519  0  1.028731  0
H  H18  1  0.44646242  0.90022421  0.34011299  1  0.140313  0  0.110306  0.122487  0  1.02874  0
H  H19  1  0.94645939  0.09977967  0.15989542  1  0.140484  0  0.1103  0.122487  0  1.02881  0
H  H20  1  0.67978067  0.12567986  0.54929443  1  0.073297  0  0.111772  0.120026  0  0.98298  0
H  H21  1  0.17977684  0.87432033  0.95070386  1  0.073347  0  0.111788  0.120047  0  0.982982  0
H  H22  1  0.32022484  0.87432858  0.45071246  1  0.073424  0  0.111825  0.120115  0  0.982982  0
H  H23  1  0.82021876  0.12567968  0.04929894  1  0.07328  0  0.111758  0.119984  0  0.983014  0
H  H24  1  0.57979902  0.14208749  0.42269635  1  0.115167  0  0.117857  0.090198  0  0.990627  0
H  H25  1  0.07979485  0.85791475  0.07730167  1  0.115134  0  0.117886  0.090223  0  0.990693  0
H  H26  1  0.42021008  0.85791558  0.57730767  1  0.114972  0  0.117909  0.090293  0  0.990667  0
H  H27  1  0.92019895  0.14208525  0.92269997  1  0.115006  0  0.117879  0.090271  0  0.990622  0
H  H28  1  0.21347386  0.12895888  0.65673559  1  0.05763  0  0.106886  0.09201  0  1.001904  0
H  H29  1  0.71347162  0.87104041  0.84326300  1  0.057634  0  0.106908  0.092057  0  1.001845  0
H  H30  1  0.78652894  0.87103726  0.34326234  1  0.057613  0  0.106894  0.092014  0  1.001802  0
H  H31  1  0.28652578  0.12895802  0.15673542  1  0.057243  0  0.106896  0.092014  0  1.001893  0
H  H32  1  0.28275140  0.01004803  0.65041245  1  0.075908  0  0.11811  0.110989  0  0.9539  0
H  H33  1  0.78274858  0.98995170  0.84958374  1  0.075904  0  0.118116  0.110993  0  0.953896  0
H  H34  1  0.71725050  0.98995039  0.34958538  1  0.075949  0  0.118123  0.110977  0  0.953958  0
H  H35  1  0.21724972  0.01004672  0.15041410  1  0.07588  0  0.118111  0.111008  0  0.953856  0
H  H36  1  0.30987029  0.28116226  0.74981381  1  0.057715  0  0.107755  0.090528  0  0.97077  0
H  H37  1  0.80987561  0.71883665  0.75018676  1  0.057769  0  0.107776  0.09053  0  0.970801  0
H  H38  1  0.69012621  0.71883465  0.25018486  1  0.057664  0  0.107788  0.090539  0  0.970822  0
H  H39  1  0.19012540  0.28116179  0.24981281  1  0.05778  0  0.10778  0.09055  0  0.970784  0
H  H40  1  0.46493488  0.24877524  0.73851657  1  0.045085  0  0.09595  0.064819  0  1.005589  0
H  H41  1  0.96493908  0.75122377  0.76148247  1  0.045164  0  0.095927  0.064772  0  1.005568  0
H  H42  1  0.53506252  0.75122167  0.26148152  1  0.045036  0  0.09593  0.064786  0  1.0056  0
H  H43  1  0.03506283  0.24877467  0.23851653  1  0.045178  0  0.095929  0.064771  0  1.005623  0
H  H44  1  0.46210331  0.22071529  0.87757917  1  0.08326  0  0.119471  0.109471  0  0.946539  0
H  H45  1  0.96210643  0.77928143  0.62241881  1  0.083372  0  0.119468  0.109432  0  0.946584  0
H  H46  1  0.53789499  0.77928238  0.12241908  1  0.083388  0  0.119471  0.109439  0  0.94659  0
H  H47  1  0.03789367  0.22071547  0.37757870  1  0.084441  0  0.11949  0.109482  0  0.94661  0
H  H48  1  0.44390459  0.34966375  0.87451745  1  0.023021  0  0.095766  0.065612  0  0.977126  0
H  H49  1  0.94391007  0.65033306  0.62548176  1  0.022931  0  0.095774  0.065611  0  0.977021  0
H  H50  1  0.55609371  0.65033468  0.12548096  1  0.022968  0  0.095754  0.065591  0  0.977109  0
H  H51  1  0.05608913  0.34966308  0.37451617  1  0.022976  0  0.095743  0.065592  0  0.977096  0
H  H52  1  0.27148327  0.43869498  0.93344441  1  0.050465  0  0.095088  0.068097  0  0.984358  0
H  H53  1  0.77148772  0.56130183  0.56655872  1  0.050299  0  0.095087  0.068067  0  0.98432  0
H  H54  1  0.72851683  0.56130266  0.06655211  1  0.050262  0  0.095063  0.068054  0  0.984355  0
H  H55  1  0.22850698  0.43869736  0.43343986  1  0.050198  0  0.095087  0.068062  0  0.984386  0
H  H56  1  0.17967563  0.36746166  0.85232641  1  0.062834  0  0.10951  0.098724  0  0.989717  0
H  H57  1  0.67967746  0.63253626  0.64767372  1  0.06281  0  0.109503  0.098721  0  0.989719  0
H  H58  1  0.82032357  0.63253445  0.14766920  1  0.062944  0  0.109502  0.098698  0  0.98973  0
H  H59  1  0.32032174  0.36746221  0.35232760  1  0.063214  0  0.109481  0.098677  0  0.989715  0
H  H60  1  0.97375742  0.35724557  0.87859461  1  0.121845  0  0.109776  0.087693  0  0.995049  0
H  H61  1  0.47376205  0.64275341  0.62140498  1  0.121825  0  0.109788  0.087721  0  0.99506  0
H  H62  1  0.02623908  0.64274677  0.12140367  1  0.121791  0  0.109745  0.087678  0  0.99506  0
H  H63  1  0.52623174  0.35724810  0.37859640  1  0.121703  0  0.109731  0.087698  0  0.995035  0
H  H64  1  0.22244052  0.39562164  0.07587990  1  0.037559  0  0.107076  0.104593  0  0.977349  0
H  H65  1  0.72244800  0.60437546  0.42411956  1  0.03747  0  0.107057  0.104585  0  0.977384  0
H  H66  1  0.77756318  0.60438666  0.92411539  1  0.037689  0  0.107069  0.104587  0  0.977301  0
H  H67  1  0.27754940  0.39562609  0.57588414  1  0.037441  0  0.107066  0.104578  0  0.977456  0
H  H68  1  0.04490710  0.39857758  0.16608566  1  0.083275  0  0.103545  0.104196  0  1.001257  0
H  H69  1  0.54491514  0.60142560  0.33391438  1  0.083247  0  0.103515  0.104158  0  1.001226  0
H  H70  1  0.95510291  0.60143001  0.83391353  1  0.082923  0  0.103572  0.104176  0  1.00137  0
H  H71  1  0.45508316  0.39857593  0.66608758  1  0.083203  0  0.103527  0.104197  0  1.001229  0
H  H72  1  0.83824894  0.38309721  0.10664047  1  0.056243  0  0.107287  0.071527  0  0.977116  0
H  H73  1  0.33825654  0.61690549  0.39335872  1  0.056407  0  0.10723  0.071438  0  0.977165  0
H  H74  1  0.16175836  0.61690508  0.89336165  1  0.056271  0  0.107253  0.07148  0  0.977082  0
H  H75  1  0.66174086  0.38309142  0.60664053  1  0.056441  0  0.107235  0.071388  0  0.97718  0
H  H76  1  0.54213246  0.14248402  0.11672136  1  0.056073  0  0.104206  0.140656  0  0.969768  0
H  H77  1  0.04213182  0.85751454  0.38327483  1  0.056015  0  0.104222  0.140687  0  0.969828  0
H  H78  1  0.45786404  0.85751366  0.88327806  1  0.056115  0  0.10422  0.140664  0  0.969729  0
H  H79  1  0.95787008  0.14248767  0.61672091  1  0.056175  0  0.104245  0.14074  0  0.969707  0
H  H80  1  0.64705968  0.21326688  0.18898265  1  0.063025  0  0.10196  0.136166  0  0.973473  0
H  H81  1  0.14705980  0.78673124  0.31101259  1  0.063015  0  0.101981  0.136169  0  0.973526  0
H  H82  1  0.35293772  0.78673003  0.81101544  1  0.062979  0  0.101952  0.136126  0  0.973498  0
H  H83  1  0.85294300  0.21327174  0.68898389  1  0.062999  0  0.101964  0.136164  0  0.973491  0
C  C84  1  0.33803033  0.12027765  0.52583728  1  0.553805  0  0.034352  0.010196  0  3.958478  0
C  C85  1  0.83802545  0.87972724  0.97416333  1  0.553804  0  0.034378  0.01017  0  3.958542  0
C  C86  1  0.66197787  0.87972540  0.47416500  1  0.553787  0  0.034414  0.010249  0  3.958432  0
C  C87  1  0.16196925  0.12027350  0.02583731  1  0.553891  0  0.034362  0.010204  0  3.958456  0
C  C88  1  0.38485673  0.10943282  0.59789359  1  -0.102217  0  -0.009551  0.048354  0  3.96689  0
C  C89  1  0.88485494  0.89057035  0.90210653  1  -0.10244  0  -0.009533  0.048306  0  3.967049  0
C  C90  1  0.61514697  0.89056949  0.40211085  1  -0.102294  0  -0.00967  0.048238  0  3.967028  0
C  C91  1  0.11514336  0.10942963  0.09789394  1  -0.102275  0  -0.009597  0.048301  0  3.966939  0
C  C92  1  0.51022141  0.11095698  0.60630752  1  -0.017249  0  -0.070817  -0.091015  0  3.929537  0
C  C93  1  0.01021787  0.88904469  0.89369267  1  -0.0172  0  -0.07083  -0.090947  0  3.929625  0
C  C94  1  0.48978409  0.88904839  0.39369814  1  -0.016784  0  -0.070767  -0.090847  0  3.92964  0
C  C95  1  0.98977953  0.11095378  0.10630922  1  -0.017225  0  -0.070816  -0.091008  0  3.929546  0
C  C96  1  0.58199324  0.12454200  0.54405745  1  -0.012439  0  -0.082904  -0.116772  0  3.984126  0
C  C97  1  0.08199028  0.87546013  0.95594208  1  -0.012527  0  -0.082908  -0.116773  0  3.984222  0
C  C98  1  0.41801407  0.87546491  0.45594912  1  -0.01326  0  -0.082935  -0.116899  0  3.984217  0
C  C99  1  0.91800622  0.12453986  0.04405897  1  -0.01249  0  -0.082836  -0.11658  0  3.984053  0
C  C100  1  0.52752329  0.13348992  0.47382892  1  0.440336  0  0.04488  0.084061  0  3.970449  0
C  C101  1  0.02751939  0.86651332  0.02617118  1  0.440508  0  0.044857  0.083999  0  3.97066  0
C  C102  1  0.47248491  0.86651469  0.52617658  1  0.441141  0  0.044915  0.08402  0  3.97054  0
C  C103  1  0.97247531  0.13348667  0.97383045  1  0.440563  0  0.044846  0.083882  0  3.970565  0
C  C104  1  0.30033997  0.09229522  0.66146338  1  0.307319  0  -0.064075  -0.082096  0  3.942773  0
C  C105  1  0.80033939  0.90770446  0.83853449  1  0.307543  0  -0.064147  -0.082151  0  3.942777  0
C  C106  1  0.69966013  0.90770246  0.33853603  1  0.307564  0  -0.064091  -0.082065  0  3.942607  0
C  C107  1  0.19966071  0.09229396  0.16146334  1  0.307733  0  -0.064075  -0.082073  0  3.942665  0
C  C108  1  0.38101434  0.23639708  0.76870673  1  0.270559  0  -0.072204  -0.050297  0  3.934204  0
C  C109  1  0.88101867  0.76360075  0.73129228  1  0.270586  0  -0.072226  -0.050261  0  3.934133  0
C  C110  1  0.61898306  0.76359906  0.23129120  1  0.270782  0  -0.07224  -0.050303  0  3.934237  0
C  C111  1  0.11898143  0.23639692  0.26870656  1  0.270386  0  -0.072214  -0.05025  0  3.934209  0
C  C112  1  0.40059381  0.27364987  0.85948151  1  0.265435  0  -0.068507  -0.049786  0  3.922852  0
C  C113  1  0.90059795  0.72634788  0.64051743  1  0.265202  0  -0.068557  -0.049853  0  3.922849  0
C  C114  1  0.59940450  0.72634781  0.14051732  1  0.265121  0  -0.068504  -0.049774  0  3.9229  0
C  C115  1  0.09940125  0.27364979  0.35948082  1  0.26436  0  -0.068527  -0.049828  0  3.922951  0
C  C116  1  0.21480620  0.36951875  0.91213764  1  0.266931  0  -0.06756  -0.081434  0  3.953827  0
C  C117  1  0.71480840  0.63047751  0.58786320  1  0.266904  0  -0.067526  -0.081343  0  3.953768  0
C  C118  1  0.78519300  0.63047890  0.08785887  1  0.267041  0  -0.067517  -0.081316  0  3.953839  0
C  C119  1  0.28518540  0.36952172  0.41213827  1  0.266635  0  -0.067472  -0.081203  0  3.953541  0
C  C120  1  0.99193943  0.36760642  0.94251003  1  0.507451  0  0.041087  0.040062  0  3.95696  0
C  C121  1  0.49194540  0.63239172  0.55748875  1  0.507521  0  0.041149  0.040101  0  3.957078  0
C  C122  1  0.00805977  0.63238896  0.05748773  1  0.507561  0  0.041178  0.040113  0  3.957034  0
C  C123  1  0.50805110  0.36760980  0.44251321  1  0.507808  0  0.041193  0.03996  0  3.957376  0
C  C124  1  0.11142729  0.37494526  0.96941176  1  -0.052985  0  -0.008932  0.050315  0  3.965123  0
C  C125  1  0.61143347  0.62505141  0.53058770  1  -0.052972  0  -0.008948  0.050207  0  3.96524  0
C  C126  1  0.88857191  0.62505315  0.03058492  1  -0.053001  0  -0.008979  0.050259  0  3.965218  0
C  C127  1  0.38856303  0.37495088  0.46941500  1  -0.053061  0  -0.008982  0.050264  0  3.965223  0
C  C128  1  0.13106031  0.38745443  0.05147361  1  0.007947  0  -0.07412  -0.092273  0  3.965572  0
C  C129  1  0.63106670  0.61254381  0.44852632  1  0.007956  0  -0.074132  -0.092263  0  3.965575  0
C  C130  1  0.86894339  0.61255008  0.94852319  1  0.007898  0  -0.074149  -0.092333  0  3.965474  0
C  C131  1  0.36892980  0.38745848  0.55147638  1  0.007839  0  -0.074137  -0.09228  0  3.965692  0
C  C132  1  0.03280984  0.38994154  0.10195593  1  -0.095164  0  -0.090607  -0.131934  0  4.020025  0
C  C133  1  0.53281745  0.61005939  0.39804367  1  -0.095191  0  -0.090586  -0.131962  0  4.020036  0
C  C134  1  0.96719656  0.61006298  0.89804203  1  -0.095256  0  -0.090614  -0.131866  0  4.020002  0
C  C135  1  0.46718085  0.38994213  0.60195829  1  -0.094653  0  -0.090629  -0.132034  0  4.020032  0
C  C136  1  0.91739322  0.38160619  0.06864892  1  0.54234  0  0.03549  0.076458  0  4.0422  0
C  C137  1  0.41740057  0.61839542  0.43135041  1  0.54232  0  0.035525  0.076599  0  4.042286  0
C  C138  1  0.08261049  0.61839456  0.93135229  1  0.542661  0  0.03554  0.076543  0  4.0422  0
C  C139  1  0.58259683  0.38160455  0.56864949  1  0.542059  0  0.035537  0.076674  0  4.042394  0
C  C140  1  0.50223492  0.14573898  0.23812011  1  1.56796  0  0.193204  0.63862  0  4.160984  0
C  C141  1  0.00223774  0.85426358  0.26187818  1  1.56745  0  0.193135  0.638667  0  4.161411  0
C  C142  1  0.49776428  0.85426024  0.76188079  1  1.568494  0  0.193204  0.638632  0  4.161173  0
C  C143  1  0.99776867  0.14574091  0.73811746  1  1.568507  0  0.193206  0.638663  0  4.160884  0
C  C144  1  0.59338581  0.14286877  0.17120112  1  -0.047049  0  -0.169683  -0.434381  0  3.917343  0
C  C145  1  0.09338730  0.85713188  0.32879595  1  -0.046983  0  -0.169689  -0.434414  0  3.917576  0
C  C146  1  0.40661069  0.85713121  0.82879878  1  -0.047146  0  -0.169693  -0.434313  0  3.91731  0
C  C147  1  0.90661370  0.14287033  0.67119979  1  -0.047162  0  -0.169745  -0.434528  0  3.917416  0
C  C148  1  0.67351358  0.04933657  0.15616730  1  1.570598  0  0.181091  0.631561  0  4.207361  0
C  C149  1  0.17351726  0.95066150  0.34383249  1  1.570549  0  0.181068  0.631621  0  4.207463  0
C  C150  1  0.32648202  0.95066114  0.84383443  1  1.570423  0  0.181086  0.631577  0  4.207481  0
C  C151  1  0.82648735  0.04934076  0.65616731  1  1.570668  0  0.181072  0.631567  0  4.207516  0
N  N152  1  0.40742301  0.13047905  0.46483440  1  -1.248321  0  -0.3344  -0.243154  0  3.569878  0
N  N153  1  0.90742085  0.86952643  0.03516635  1  -1.24843  0  -0.33446  -0.243199  0  3.569896  0
N  N154  1  0.59258340  0.86952553  0.53516878  1  -1.248554  0  -0.334558  -0.243346  0  3.56994  0
N  N155  1  0.09257475  0.13047431  0.96483371  1  -1.24828  0  -0.334378  -0.24308  0  3.56976  0
N  N156  1  0.34235930  0.12944526  0.74490105  1  -1.061358  0  -0.482892  -0.322316  0  3.47354  0
N  N157  1  0.84236120  0.87055351  0.75509884  1  -1.061273  0  -0.482818  -0.322208  0  3.473441  0
N  N158  1  0.65763990  0.87055243  0.25509895  1  -1.061188  0  -0.48281  -0.322202  0  3.473383  0
N  N159  1  0.15763980  0.12944494  0.24490074  1  -1.061327  0  -0.482894  -0.322348  0  3.473518  0
N  N160  1  0.28752634  0.27638487  0.90444895  1  -1.02431  0  -0.4785  -0.321573  0  3.468562  0
N  N161  1  0.78752987  0.72361108  0.59555106  1  -1.024269  0  -0.478494  -0.321471  0  3.468577  0
N  N162  1  0.71247286  0.72361204  0.09554914  1  -1.02422  0  -0.478539  -0.321641  0  3.468645  0
N  N163  1  0.21246843  0.27638814  0.40444984  1  -1.024344  0  -0.478518  -0.321632  0  3.46859  0
N  N164  1  0.89601229  0.37164861  0.99053071  1  -1.228765  0  -0.338684  -0.291146  0  3.349639  0
N  N165  1  0.39601767  0.62835145  0.50946873  1  -1.228705  0  -0.338699  -0.291149  0  3.349612  0
N  N166  1  0.10398871  0.62834832  0.00946912  1  -1.22885  0  -0.338722  -0.291198  0  3.34972  0
N  N167  1  0.60397613  0.37164778  0.49053274  1  -1.228852  0  -0.338679  -0.291064  0  3.349944  0
O  O168  1  0.64135709  0.96737978  0.10505437  1  -1.193089  0  -0.36091  -0.601911  0  2.105467  0
O  O169  1  0.14136012  0.03261767  0.39494653  1  -1.192981  0  -0.360895  -0.601931  0  2.105443  0
O  O170  1  0.35863671  0.03261714  0.89494546  1  -1.192998  0  -0.360881  -0.601907  0  2.105604  0
O  O171  1  0.85864269  0.96738384  0.60505427  1  -1.192983  0  -0.360872  -0.601886  0  2.105558  0
O  O172  1  0.76894063  0.05756520  0.19930657  1  -1.172256  0  -0.35532  -0.578771  0  2.162443  0
O  O173  1  0.26894371  0.94243400  0.30069379  1  -1.172286  0  -0.355321  -0.578817  0  2.162546  0
O  O174  1  0.23105407  0.94243250  0.80069458  1  -1.172166  0  -0.355333  -0.578806  0  2.162471  0
O  O175  1  0.73106179  0.05756827  0.69930659  1  -1.172415  0  -0.355325  -0.578801  0  2.162549  0
O  O176  1  0.49958929  0.07100284  0.26960236  1  -1.172151  0  -0.331653  -0.550816  0  2.16137  0
O  O177  1  0.99959107  0.92899995  0.23039643  1  -1.171733  0  -0.331607  -0.550778  0  2.161478  0
O  O178  1  0.50041261  0.92899717  0.73040043  1  -1.172561  0  -0.331648  -0.55084  0  2.161395  0
O  O179  1  0.00041263  0.07100304  0.76960121  1  -1.172615  0  -0.331658  -0.550833  0  2.161277  0
O  O180  1  0.43058639  0.22103348  0.25819265  1  -1.200376  0  -0.353716  -0.601847  0  2.1372  0
O  O181  1  0.93059059  0.77896881  0.24180448  1  -1.200259  0  -0.353678  -0.601895  0  2.13741  0
O  O182  1  0.56941101  0.77896575  0.74180883  1  -1.200374  0  -0.353717  -0.601866  0  2.137315  0
O  O183  1  0.06941402  0.22103565  0.75818884  1  -1.200437  0  -0.353697  -0.601827  0  2.137175  0
