# generated using pymatgen
data_CuH5C5(NO2)3
_symmetry_space_group_name_H-M   'P 1'
_cell_length_a   6.34184533
_cell_length_b   10.94271731
_cell_length_c   13.30926216
_cell_angle_alpha   101.41111989
_cell_angle_beta   90.00348601
_cell_angle_gamma   106.86224209
_symmetry_Int_Tables_number   1
_chemical_formula_structural   CuH5C5(NO2)3
_chemical_formula_sum   'Cu4 H20 C20 N12 O24'
_cell_volume   864.81307134
_cell_formula_units_Z   4
loop_
 _symmetry_equiv_pos_site_id
 _symmetry_equiv_pos_as_xyz
  1  'x, y, z'
loop_
 _atom_site_type_symbol
 _atom_site_label
 _atom_site_symmetry_multiplicity
 _atom_site_fract_x
 _atom_site_fract_y
 _atom_site_fract_z
 _atom_site_occupancy
 _atom_site_hle17_ddec_charge
 _atom_site_hle17_ddec_spin_density
 _atom_site_hle17_ddec_sum_bond_order
 _atom_site_hle17_magmom
 _atom_site_hse06_10hf_ddec_charge
 _atom_site_hse06_10hf_ddec_spin_density
 _atom_site_hse06_10hf_ddec_sum_bond_order
 _atom_site_hse06_10hf_magmom
 _atom_site_hse06_ddec_charge
 _atom_site_hse06_ddec_spin_density
 _atom_site_hse06_ddec_sum_bond_order
 _atom_site_hse06_magmom
 _atom_site_pbe_cm5_charge
 _atom_site_pbe_ddec_charge
 _atom_site_pbe_ddec_spin_density
 _atom_site_pbe_ddec_sum_bond_order
 _atom_site_pbe_magmom
Cu  Cu0  1  0.56485689  0.27458945  0.15196871  1  0.834993  0.736553  1.87424  0.517  0.81212  0.814743  2.265653  0.633  0.8994  0.894094  2.198196  0.723  0.75366  0.759875  0.751426  2.311727  0.569
Cu  Cu1  1  0.28989395  0.72527436  0.34801645  1  0.835617  -0.736665  1.874501  -0.517  0.812159  -0.814783  2.266095  -0.633  0.899565  -0.894099  2.198436  -0.723  0.753923  0.759571  -0.751384  2.312632  -0.569
Cu  Cu2  1  0.43518454  0.72537159  0.84801350  1  0.835223  0.736502  1.87392  0.517  0.81218  0.814699  2.265508  0.633  0.899541  0.894069  2.197934  0.723  0.753557  0.759796  0.751398  2.311706  0.569
Cu  Cu3  1  0.71014583  0.27475588  0.65199749  1  0.835488  -0.736458  1.874543  -0.517  0.812241  -0.814777  2.266265  -0.633  0.899562  -0.894075  2.198608  -0.723  0.75379  0.759661  -0.751378  2.312604  -0.569
H  H4  1  0.99469436  0.34236807  0.84622723  1  0.119924  -0.000416  0.906953  -0.001  0.124607  -0.000198  0.970898  0.0  0.127595  -0.000201  0.96766  0.0  0.13682  0.122044  -0.000158  0.973784  0.0
H  H5  1  0.65144520  0.65758109  0.65386059  1  0.12038  0.00042  0.907007  0.001  0.124871  0.000199  0.971152  0.0  0.127764  0.000202  0.968053  0.0  0.136649  0.122284  0.000163  0.974085  0.0
H  H6  1  0.00529614  0.65763301  0.15375559  1  0.119985  -0.000416  0.907005  -0.001  0.124703  -0.000199  0.970888  0.0  0.12769  -0.000202  0.967649  0.0  0.136877  0.122143  -0.000159  0.973775  0.0
H  H7  1  0.34857571  0.34242087  0.34614190  1  0.120412  0.000418  0.907054  0.001  0.124918  0.000199  0.971167  0.0  0.127813  0.000202  0.968068  0.0  0.136698  0.122332  0.000163  0.9741  0.0
H  H8  1  0.31996639  0.17713335  0.76697428  1  0.118994  -0.000617  0.910179  -0.001  0.122354  -0.000383  0.974616  -0.001  0.126105  -0.000275  0.970508  -0.001  0.135925  0.11907  -0.000465  0.978375  -0.001
H  H9  1  0.14254968  0.82322024  0.73300725  1  0.119392  0.000616  0.909094  0.001  0.122919  0.000382  0.973542  0.001  0.126625  0.000274  0.969491  0.001  0.136186  0.119625  0.000466  0.977302  0.001
H  H10  1  0.68003779  0.82287930  0.23304201  1  0.119173  -0.000617  0.910246  -0.001  0.12246  -0.000383  0.974748  -0.001  0.126211  -0.000275  0.970636  -0.001  0.135948  0.11918  -0.000466  0.978511  -0.001
H  H11  1  0.85746159  0.17675930  0.26698627  1  0.119512  0.000616  0.909045  0.001  0.122964  0.000383  0.973541  0.001  0.126629  0.000274  0.969534  0.001  0.136151  0.119703  0.000467  0.97727  0.001
H  H12  1  0.24870905  0.17349014  0.95338009  1  0.113497  0.000526  0.956727  0.001  0.116541  0.000392  1.022345  0.001  0.119484  0.000305  1.020256  0.001  0.130152  0.113852  0.000446  1.024651  0.001
H  H13  1  0.07482102  0.82657734  0.54650857  1  0.113686  -0.000527  0.956607  -0.001  0.11668  -0.000395  1.022501  -0.001  0.119626  -0.000306  1.020399  -0.001  0.130032  0.114004  -0.000446  1.024759  -0.001
H  H14  1  0.75127569  0.82650886  0.04662868  1  0.11344  0.000526  0.956776  0.001  0.116579  0.000392  1.022299  0.001  0.119516  0.000305  1.020209  0.001  0.130099  0.11389  0.000446  1.024619  0.001
H  H15  1  0.92517661  0.17342852  0.45349757  1  0.113527  -0.000527  0.956586  -0.001  0.116604  -0.000395  1.022403  -0.001  0.11955  -0.000306  1.020305  -0.001  0.129992  0.113931  -0.000445  1.02466  -0.001
H  H16  1  0.51961388  0.52886646  0.23817322  1  0.419021  5.2e-05  0.884814  0.0  0.393618  -5.1e-05  0.941065  0.0  0.405294  -9e-06  0.924147  0.0  0.284078  0.38569  -8.3e-05  0.952556  0.0
H  H17  1  0.99026958  0.47113909  0.26194915  1  0.418872  -5.5e-05  0.885066  0.0  0.393304  4.8e-05  0.941495  0.0  0.405007  6e-06  0.924569  0.0  0.284355  0.385397  8.2e-05  0.952925  0.0
H  H18  1  0.48039896  0.47114144  0.76181372  1  0.418931  5.2e-05  0.884948  0.0  0.393547  -5.1e-05  0.94116  0.0  0.405225  -9e-06  0.924239  0.0  0.284051  0.385616  -8.3e-05  0.952656  0.0
H  H19  1  0.00974112  0.52885509  0.73804830  1  0.418794  -5.5e-05  0.885172  0.0  0.393213  4.8e-05  0.941633  0.0  0.404914  6e-06  0.924709  0.0  0.284315  0.385299  8.2e-05  0.953071  0.0
H  H20  1  0.37313615  0.45713393  0.13209230  1  0.418773  -0.000118  0.884304  0.0  0.391219  -7.2e-05  0.943428  0.0  0.403592  -5.7e-05  0.925504  0.0  0.281996  0.382749  -6e-05  0.955667  0.0
H  H21  1  0.91558746  0.54290577  0.36806413  1  0.419667  0.000117  0.882863  0.0  0.39157  7.1e-05  0.942745  0.0  0.40394  5.6e-05  0.924824  0.0  0.282306  0.383073  5.9e-05  0.955025  0.0
H  H22  1  0.62689102  0.54288370  0.86790227  1  0.418954  -0.000118  0.884082  0.0  0.39136  -7.2e-05  0.943311  0.0  0.403735  -5.7e-05  0.925384  0.0  0.28203  0.382873  -6e-05  0.955574  0.0
H  H23  1  0.08442516  0.45707963  0.63193037  1  0.419764  0.000117  0.882748  0.0  0.391662  7.1e-05  0.942644  0.0  0.404031  5.6e-05  0.924726  0.0  0.282344  0.383162  5.9e-05  0.954928  0.0
C  C24  1  0.96343577  0.35934204  0.05843265  1  0.625188  -0.003389  3.89557  -0.005  0.573486  0.000337  4.200758  -0.001  0.610045  0.000385  4.194466  0.0  0.220883  0.548569  0.000351  4.20482  -0.001
C  C25  1  0.60379494  0.64079504  0.44174535  1  0.62701  0.003335  3.896609  0.005  0.574822  -0.000368  4.202173  0.001  0.611384  -0.000407  4.19582  0.0  0.22081  0.549903  -0.000352  4.20615  0.001
C  C26  1  0.03655481  0.64065604  0.94156470  1  0.624988  -0.003385  3.896403  -0.005  0.57331  0.000338  4.201469  -0.001  0.609865  0.000387  4.195182  0.0  0.220701  0.548385  0.000351  4.205509  -0.001
C  C27  1  0.39618679  0.35920111  0.55824792  1  0.626589  0.003335  3.896789  0.005  0.574535  -0.000368  4.202212  0.001  0.611096  -0.000407  4.195863  0.0  0.220764  0.549618  -0.000351  4.206176  0.001
C  C28  1  0.78748227  0.30335929  0.97243511  1  0.072969  -0.015176  3.695627  -0.016  0.076194  -0.004257  3.944681  -0.005  0.076147  -0.005095  3.960045  -0.006  0.127379  0.07522  -0.003727  3.936442  -0.005
C  C29  1  0.48343286  0.69661659  0.52762022  1  0.072153  0.015226  3.696143  0.016  0.075664  0.004262  3.944265  0.006  0.075654  0.005099  3.95965  0.007  0.127719  0.074697  0.003739  3.935905  0.005
C  C30  1  0.21251548  0.69664366  0.02756605  1  0.073333  -0.015177  3.695404  -0.016  0.07665  -0.004259  3.944306  -0.005  0.076612  -0.005095  3.959664  -0.006  0.127531  0.075667  -0.00373  3.936039  -0.005
C  C31  1  0.51655780  0.30336589  0.47237304  1  0.072382  0.015207  3.6962  0.016  0.075841  0.00426  3.944383  0.006  0.075826  0.005095  3.959782  0.007  0.127749  0.074872  0.003739  3.936005  0.005
C  C32  1  0.82794670  0.30408130  0.86980495  1  0.112331  0.015475  3.604524  0.015  0.071897  0.004236  3.866688  0.005  0.080243  0.005359  3.879464  0.006  0.077688  0.065815  0.003433  3.859982  0.004
C  C33  1  0.52309552  0.69592408  0.63026692  1  0.112594  -0.015472  3.605245  -0.015  0.071988  -0.004255  3.867381  -0.005  0.080379  -0.005376  3.880255  -0.006  0.077647  0.065909  -0.003437  3.860755  -0.004
C  C34  1  0.17205090  0.69591190  0.13019384  1  0.112051  0.015473  3.60473  0.015  0.071589  0.004234  3.866833  0.005  0.079933  0.005356  3.879613  0.006  0.077575  0.065521  0.003431  3.860131  0.004
C  C35  1  0.47692916  0.30407596  0.36972925  1  0.112541  -0.01546  3.60497  -0.015  0.072061  -0.004255  3.867076  -0.005  0.080448  -0.005374  3.879951  -0.006  0.077702  0.065979  -0.003436  3.860459  -0.004
C  C36  1  0.45414832  0.21321989  0.82644536  1  0.128848  0.017241  3.560916  0.018  0.099905  0.004832  3.814121  0.006  0.107681  0.005796  3.824011  0.007  0.080919  0.094145  0.004027  3.809755  0.005
C  C37  1  0.24056951  0.78706045  0.67354014  1  0.128671  -0.017177  3.556417  -0.018  0.09935  -0.004786  3.810258  -0.006  0.107152  -0.005768  3.820167  -0.007  0.080607  0.093609  -0.004004  3.805924  -0.005
C  C38  1  0.54586043  0.78678298  0.17357381  1  0.128673  0.017247  3.560982  0.018  0.099781  0.004834  3.814235  0.006  0.10754  0.005798  3.824151  0.007  0.080976  0.094045  0.004027  3.809857  0.005
C  C39  1  0.75946197  0.21294059  0.32645093  1  0.128388  -0.017161  3.556583  -0.018  0.099226  -0.004785  3.810385  -0.006  0.107063  -0.005767  3.820296  -0.007  0.080574  0.093458  -0.004002  3.806048  -0.005
C  C40  1  0.41432688  0.21151373  0.92923062  1  0.131276  -0.016618  3.584514  -0.017  0.105687  -0.004678  3.833427  -0.006  0.112144  -0.005666  3.845321  -0.007  0.07796  0.100431  -0.003801  3.82787  -0.005
C  C41  1  0.20236461  0.78860557  0.57071436  1  0.131237  0.016646  3.583282  0.017  0.105194  0.004682  3.832159  0.006  0.11171  0.00567  3.844041  0.007  0.078032  0.099994  0.003804  3.826502  0.005
C  C42  1  0.58564806  0.78849405  0.07078035  1  0.131213  -0.016616  3.584843  -0.017  0.105538  -0.004678  3.833805  -0.006  0.112017  -0.005665  3.845683  -0.007  0.077925  0.100254  -0.003801  3.82825  -0.005
C  C43  1  0.79762064  0.21139448  0.42928030  1  0.131382  0.016638  3.583281  0.017  0.105356  0.004684  3.832074  0.006  0.111873  0.005672  3.84394  0.007  0.078091  0.100136  0.003807  3.82643  0.005
N  N44  1  0.58105463  0.25760151  0.00084052  1  -0.237847  0.076595  3.314607  0.094  -0.20151  0.05095  3.598506  0.067  -0.222868  0.043732  3.615025  0.06  -0.320498  -0.19072  0.053378  3.591475  0.068
N  N45  1  0.32294187  0.74242254  0.49915154  1  -0.238034  -0.076572  3.315843  -0.094  -0.200748  -0.050953  3.598631  -0.067  -0.222199  -0.043758  3.615197  -0.06  -0.320636  -0.189881  -0.053413  3.591523  -0.068
N  N46  1  0.41894289  0.74240729  0.99916310  1  -0.238036  0.076592  3.314494  0.094  -0.201735  0.050947  3.598421  0.067  -0.223125  0.043724  3.614938  0.06  -0.320543  -0.190872  0.053381  3.591349  0.068
N  N47  1  0.67704203  0.25757164  0.50084591  1  -0.238069  -0.076556  3.315858  -0.094  -0.200997  -0.050944  3.598956  -0.067  -0.222424  -0.043748  3.615491  -0.06  -0.320686  -0.190117  -0.05341  3.591779  -0.068
N  N48  1  0.66013938  0.26083273  0.79794258  1  -0.249347  -0.074067  3.326137  -0.091  -0.205453  -0.049201  3.623112  -0.065  -0.228962  -0.042323  3.639369  -0.058  -0.329604  -0.193184  -0.051656  3.61577  -0.065
N  N49  1  0.39879964  0.73937966  0.70209399  1  -0.250189  0.074048  3.323823  0.091  -0.206007  0.049192  3.620888  0.065  -0.22957  0.042299  3.6372  0.058  -0.329367  -0.193918  0.051631  3.613653  0.065
N  N50  1  0.33985261  0.73915556  0.20205991  1  -0.249184  -0.074087  3.326108  -0.091  -0.205247  -0.049217  3.622981  -0.065  -0.228786  -0.042334  3.639284  -0.058  -0.329586  -0.193  -0.05167  3.615712  -0.065
N  N51  1  0.60125092  0.26063114  0.29790020  1  -0.249932  0.074051  3.323309  0.091  -0.206008  0.049201  3.620551  0.065  -0.229551  0.042308  3.636839  0.058  -0.329368  -0.193948  0.051639  3.613332  0.065
N  N52  1  0.22232577  0.04857959  0.13262362  1  0.678357  -0.004874  4.128353  -0.008  0.723798  -0.001176  4.422188  -0.003  0.754311  -0.000807  4.429161  -0.003  0.099537  0.700767  -0.001539  4.417364  -0.004
N  N53  1  0.17321020  0.95110781  0.36739119  1  0.679177  0.004863  4.129896  0.008  0.724407  0.001165  4.423757  0.003  0.755043  0.000798  4.430721  0.003  0.099572  0.701395  0.00153  4.418952  0.004
N  N54  1  0.77765698  0.95144380  0.86739219  1  0.678242  -0.00488  4.127655  -0.008  0.723671  -0.001178  4.421575  -0.003  0.754137  -0.000807  4.428572  -0.003  0.099617  0.700639  -0.001543  4.41674  -0.004
N  N55  1  0.82674537  0.04887072  0.63260893  1  0.678828  0.004868  4.128934  0.008  0.724067  0.001168  4.422897  0.003  0.75469  0.000799  4.429869  0.003  0.099638  0.701046  0.001536  4.418094  0.004
O  O56  1  0.89300216  0.35147600  0.14887741  1  -0.595019  0.082341  2.102445  0.108  -0.558203  0.055017  2.372723  0.079  -0.600379  0.042988  2.36322  0.065  -0.310751  -0.531124  0.061858  2.379933  0.085
O  O57  1  0.54134773  0.64861079  0.35124680  1  -0.596472  -0.082187  2.100993  -0.107  -0.559411  -0.054844  2.371425  -0.079  -0.601549  -0.042847  2.361774  -0.065  -0.31093  -0.532216  -0.061733  2.378702  -0.085
O  O58  1  0.10699791  0.64853474  0.85112879  1  -0.595111  0.082303  2.102499  0.108  -0.558268  0.054989  2.372752  0.079  -0.600461  0.042963  2.363256  0.065  -0.310783  -0.531154  0.061835  2.379953  0.085
O  O59  1  0.45861264  0.35138048  0.64874491  1  -0.596296  -0.08216  2.101044  -0.107  -0.559277  -0.05482  2.371419  -0.079  -0.601407  -0.042827  2.361769  -0.065  -0.310877  -0.532071  -0.061711  2.37862  -0.085
O  O60  1  0.15772509  0.41100846  0.03942772  1  -0.548905  0.016687  1.956485  0.021  -0.505199  0.008097  2.174193  0.011  -0.533684  0.003751  2.168748  0.005  -0.280462  -0.48458  0.012613  2.177006  0.016
O  O61  1  0.74651020  0.58933842  0.46088447  1  -0.549516  -0.016592  1.959477  -0.021  -0.50529  -0.008042  2.177092  -0.011  -0.533809  -0.003737  2.171761  -0.005  -0.280071  -0.484706  -0.012585  2.17988  -0.016
O  O62  1  0.84229901  0.58899357  0.96056126  1  -0.548759  0.016687  1.95715  0.021  -0.505054  0.008098  2.174878  0.011  -0.53354  0.003751  2.169446  0.005  -0.280287  -0.484446  0.012613  2.177711  0.016
O  O63  1  0.25348722  0.41067335  0.53911138  1  -0.549327  -0.016612  1.95937  -0.021  -0.505258  -0.008045  2.177075  -0.011  -0.533776  -0.003739  2.171743  -0.005  -0.280124  -0.484674  -0.012587  2.17986  -0.016
O  O64  1  0.24413627  0.17459542  0.14517725  1  -0.45863  0.108904  1.815127  0.14  -0.477176  0.070345  2.083636  0.1  -0.515237  0.050463  2.079495  0.076  -0.215333  -0.450184  0.084309  2.086312  0.115
O  O65  1  0.06908462  0.82508900  0.35473746  1  -0.458597  -0.109148  1.818149  -0.141  -0.477145  -0.070478  2.087014  -0.1  -0.515333  -0.050551  2.08293  -0.076  -0.215227  -0.450021  -0.084401  2.089566  -0.115
O  O66  1  0.75587207  0.82539087  0.85483618  1  -0.458727  0.108988  1.814513  0.141  -0.477237  0.070393  2.08299  0.1  -0.515305  0.050496  2.078849  0.076  -0.215474  -0.450217  0.084356  2.085668  0.115
O  O67  1  0.93092698  0.17492274  0.64526289  1  -0.458641  -0.109265  1.817243  -0.141  -0.477117  -0.07053  2.08601  -0.1  -0.515297  -0.050585  2.081913  -0.076  -0.215309  -0.449997  -0.084454  2.088528  -0.116
O  O68  1  0.03238887  0.97375455  0.13120628  1  -0.403008  0.017827  1.758428  0.022  -0.410103  0.009103  1.966106  0.012  -0.426054  0.004156  1.961163  0.006  -0.166058  -0.395616  0.015628  1.968608  0.02
O  O69  1  0.05800855  0.02585986  0.36906485  1  -0.402959  -0.017763  1.761075  -0.022  -0.410085  -0.009083  1.969025  -0.012  -0.426066  -0.004152  1.96404  -0.006  -0.165712  -0.395623  -0.015681  1.971562  -0.02
O  O70  1  0.96761511  0.02627662  0.86881757  1  -0.402931  0.017805  1.757967  0.022  -0.409987  0.009098  1.965658  0.012  -0.425908  0.004154  1.960704  0.006  -0.166019  -0.395515  0.015612  1.968159  0.02
O  O71  1  0.94196132  0.97411573  0.63093855  1  -0.402884  -0.017759  1.760804  -0.022  -0.410025  -0.009079  1.968743  -0.012  -0.425995  -0.004151  1.963758  -0.006  -0.165772  -0.395557  -0.015669  1.971261  -0.02
O  O72  1  0.39207911  0.01233238  0.12304396  1  -0.431486  -0.002947  1.775464  -0.002  -0.445918  -0.002555  1.993997  -0.002  -0.464284  -0.002692  1.990441  -0.003  -0.172709  -0.431074  -0.001137  1.996282  -0.001
O  O73  1  0.37925729  0.98743955  0.37682263  1  -0.432526  0.002863  1.772575  0.002  -0.446862  0.00252  1.991031  0.002  -0.465325  0.002691  1.98746  0.003  -0.173524  -0.43211  0.001133  1.993434  0.001
O  O74  1  0.60786672  0.98766764  0.87695671  1  -0.43133  -0.002961  1.775504  -0.002  -0.445826  -0.00256  1.994133  -0.002  -0.46417  -0.002695  1.990567  -0.003  -0.172667  -0.430978  -0.001144  1.996407  -0.001
O  O75  1  0.62068902  0.01256144  0.62317820  1  -0.432143  0.002871  1.772617  0.002  -0.446504  0.002525  1.991045  0.002  -0.464955  0.002692  1.987476  0.003  -0.173326  -0.431751  0.001139  1.993435  0.001
O  O76  1  0.51194277  0.46750848  0.17205251  1  -0.849948  -0.00162  1.868341  -0.001  -0.807851  -0.001087  2.050313  -0.001  -0.830487  -0.001175  2.011959  -0.001  -0.611734  -0.791604  -0.00084  2.076508  0.0
O  O77  1  0.04393105  0.53249341  0.32808721  1  -0.850317  0.00163  1.867749  0.001  -0.807541  0.001097  2.050773  0.001  -0.830211  0.001181  2.012288  0.001  -0.612267  -0.791239  0.000841  2.077058  0.0
O  O78  1  0.48808791  0.53250039  0.82793535  1  -0.850007  -0.001619  1.868608  -0.001  -0.807892  -0.001086  2.050563  -0.001  -0.830553  -0.001175  2.012199  -0.001  -0.611641  -0.791612  -0.000836  2.076794  0.0
O  O79  1  0.95608738  0.46749099  0.67191313  1  -0.850265  0.001628  1.868048  0.001  -0.80748  0.001096  2.051129  0.001  -0.830137  0.001181  2.01263  0.001  -0.612188  -0.791184  0.000837  2.077403  0.0
