# generated using pymatgen
data_Ni3H7C5ClO11
_symmetry_space_group_name_H-M   'P 1'
_cell_length_a   7.42512550
_cell_length_b   11.89549801
_cell_length_c   11.90757144
_cell_angle_alpha   120.01484825
_cell_angle_beta   89.95891143
_cell_angle_gamma   90.02751505
_symmetry_Int_Tables_number   1
_chemical_formula_structural   Ni3H7C5ClO11
_chemical_formula_sum   'Ni9 H21 C15 Cl3 O33'
_cell_volume   910.69958686
_cell_formula_units_Z   3
loop_
 _symmetry_equiv_pos_site_id
 _symmetry_equiv_pos_as_xyz
  1  'x, y, z'
loop_
 _atom_site_type_symbol
 _atom_site_label
 _atom_site_symmetry_multiplicity
 _atom_site_fract_x
 _atom_site_fract_y
 _atom_site_fract_z
 _atom_site_occupancy
 _atom_site_hle17_ddec_charge
 _atom_site_hle17_ddec_spin_density
 _atom_site_hle17_ddec_sum_bond_order
 _atom_site_hle17_magmom
 _atom_site_hse06_10hf_ddec_charge
 _atom_site_hse06_10hf_ddec_spin_density
 _atom_site_hse06_10hf_ddec_sum_bond_order
 _atom_site_hse06_10hf_magmom
 _atom_site_hse06_ddec_charge
 _atom_site_hse06_ddec_spin_density
 _atom_site_hse06_ddec_sum_bond_order
 _atom_site_hse06_magmom
 _atom_site_pbe_cm5_charge
 _atom_site_pbe_ddec_charge
 _atom_site_pbe_ddec_spin_density
 _atom_site_pbe_ddec_sum_bond_order
 _atom_site_pbe_magmom
Ni  Ni0  1  0.53608429  0.38838908  0.61583920  1  0.995187  1.774629  1.949892  1.544  1.010968  1.834352  2.345589  1.666  1.095377  1.888881  2.277945  1.746  0.641863  0.934963  1.776105  2.410656  1.59
Ni  Ni1  1  0.87000112  0.38431968  0.77312677  1  0.992771  -1.80918  1.951606  -1.532  1.008809  -1.859448  2.347161  -1.66  1.094305  -1.922855  2.279287  -1.744  0.639777  0.929825  -1.782195  2.414631  -1.571
Ni  Ni2  1  0.20411939  0.22734265  0.61110911  1  0.992529  1.769968  1.951512  1.54  1.008544  1.83192  2.347124  1.663  1.09337  1.88795  2.279512  1.744  0.640293  0.931199  1.769853  2.413223  1.583
Ni  Ni3  1  0.51320774  0.56250116  0.30078948  1  1.018928  1.785623  1.889616  1.551  1.03528  1.840984  2.27833  1.67  1.116862  1.891944  2.212949  1.747  0.641334  0.963702  1.789553  2.338767  1.6
Ni  Ni4  1  0.84652037  0.69883966  0.26169472  1  1.020285  1.79266  1.889732  1.557  1.03639  1.845044  2.277733  1.673  1.117077  1.894447  2.213259  1.748  0.642235  0.965633  1.797907  2.337865  1.607
Ni  Ni5  1  0.17972225  0.73811337  0.43713602  1  1.020323  1.792208  1.888804  1.556  1.036224  1.844629  2.277299  1.673  1.117207  1.894115  2.2124  1.748  0.642325  0.966265  1.797429  2.336073  1.606
Ni  Ni6  1  0.13563123  0.04556892  0.11472542  1  0.880234  1.707277  2.022769  1.485  0.920843  1.786963  2.40113  1.621  1.021032  1.859514  2.318523  1.715  0.542772  0.840083  1.71267  2.469738  1.531
Ni  Ni7  1  0.46956363  0.88556935  0.93033604  1  0.879284  -1.75562  2.024617  -1.487  0.92095  -1.816053  2.40254  -1.623  1.020851  -1.891171  2.32008  -1.715  0.543381  0.840432  -1.741807  2.471258  -1.538
Ni  Ni8  1  0.80230542  0.06943990  0.95451672  1  0.877899  -1.753675  2.027699  -1.483  0.919643  -1.815797  2.405846  -1.62  1.019831  -1.892208  2.323149  -1.714  0.54281  0.839231  -1.737972  2.47436  -1.532
H  H9  1  0.70962306  0.34694606  0.22716518  1  0.423403  0.001503  0.854439  0.001  0.400837  0.0017  0.919729  0.001  0.411698  0.00125  0.904034  0.001  0.287289  0.392499  0.002081  0.93175  0.001
H  H10  1  0.04266567  0.77401328  0.12096854  1  0.423611  -0.001013  0.854275  0.0  0.400701  -0.000706  0.919798  0.0  0.411518  -0.000582  0.904205  0.0  0.287594  0.392439  -0.000816  0.931691  0.001
H  H11  1  0.37493893  0.87916016  0.65310592  1  0.423795  -0.000686  0.852932  0.0  0.40123  -0.000534  0.918622  0.0  0.412012  -0.000418  0.903042  0.0  0.288849  0.392971  -0.000645  0.930522  0.001
H  H12  1  0.63559989  0.39746764  0.36855304  1  0.428453  0.00016  0.862583  0.0  0.397824  0.000387  0.935607  0.0  0.409365  0.000194  0.918501  0.0  0.30047  0.389308  0.000581  0.948154  0.001
H  H13  1  0.97053927  0.63214545  0.02911498  1  0.428537  0.000231  0.863128  0.0  0.397585  0.000483  0.936235  0.001  0.409202  0.000337  0.919044  0.0  0.300295  0.388985  0.000604  0.948888  0.001
H  H14  1  0.30446860  0.97093361  0.60266756  1  0.429043  8.4e-05  0.86198  0.0  0.398439  0.000288  0.934578  0.0  0.410014  0.000145  0.917423  0.0  0.300903  0.389889  0.000423  0.947168  0.001
H  H15  1  0.23395682  0.59559913  0.60361054  1  0.044955  0.003201  0.906867  0.005  0.051373  0.001896  0.969388  0.003  0.051149  0.001235  0.964297  0.002  0.128023  0.051403  0.0026  0.973505  0.004
H  H16  1  0.56833777  0.39511621  0.99224135  1  0.046006  0.003102  0.908059  0.005  0.051326  0.002035  0.971629  0.003  0.051007  0.001439  0.96665  0.002  0.12824  0.051562  0.002656  0.97553  0.003
H  H17  1  0.90089116  0.00797655  0.40445258  1  0.045472  0.003464  0.907206  0.006  0.051394  0.002044  0.970145  0.003  0.051131  0.001312  0.965075  0.002  0.128175  0.051515  0.002846  0.974214  0.004
H  H18  1  0.47225930  0.20063587  0.30804455  1  0.040415  0.003798  0.909852  0.006  0.048367  0.0023  0.971486  0.003  0.047696  0.001487  0.966942  0.002  0.123957  0.048548  0.003147  0.975539  0.004
H  H19  1  0.80347415  0.69099419  0.89429036  1  0.040142  0.00371  0.910426  0.005  0.048264  0.002577  0.97207  0.003  0.047416  0.001903  0.9677  0.002  0.124033  0.048808  0.00322  0.975765  0.004
H  H20  1  0.13575293  0.10403585  0.79459800  1  0.041621  -0.003854  0.911381  -0.006  0.048516  -0.002301  0.974245  -0.003  0.047574  -0.001597  0.969992  -0.002  0.124605  0.04924  -0.002999  0.97776  -0.004
H  H21  1  0.74044916  0.63198624  0.55349757  1  0.041653  0.007769  0.913208  0.012  0.044349  0.004673  0.98002  0.007  0.042148  0.003181  0.976324  0.005  0.120344  0.046102  0.006186  0.98313  0.009
H  H22  1  0.07412437  0.44641393  0.07830009  1  0.040983  0.008068  0.914045  0.012  0.044144  0.005046  0.980348  0.007  0.041916  0.003472  0.976725  0.005  0.120625  0.045852  0.006624  0.983461  0.009
H  H23  1  0.40737947  0.92139049  0.36747781  1  0.041936  0.007656  0.914447  0.012  0.044353  0.004585  0.981492  0.007  0.042094  0.003103  0.977871  0.005  0.120601  0.046226  0.006082  0.984473  0.009
H  H24  1  0.97801051  0.25350585  0.39563890  1  0.049436  0.000382  0.961028  0.002  0.051498  -0.000165  1.03077  0.001  0.049957  -0.00025  1.026983  0.0  0.12075  0.052935  -7e-06  1.033754  0.001
H  H25  1  0.31043020  0.60521472  0.85866090  1  0.048727  -0.000185  0.959719  -0.001  0.051081  0.000127  1.029257  0.0  0.049638  0.000118  1.025431  0.0  0.120615  0.052257  0.000154  1.032514  0.0
H  H26  1  0.64401548  0.14221686  0.74708445  1  0.048071  0.006541  0.959232  0.011  0.050903  0.004121  1.028552  0.006  0.049334  0.002938  1.024887  0.004  0.120464  0.052018  0.005244  1.031681  0.008
H  H27  1  0.34032749  0.26088727  0.08933934  1  0.037312  -0.007404  0.960433  -0.011  0.041425  -0.004703  1.030855  -0.007  0.039994  -0.003321  1.026764  -0.005  0.114581  0.042747  -0.006021  1.03386  -0.008
H  H28  1  0.67338446  0.91145575  0.17177474  1  0.038868  0.001001  0.959127  0.001  0.041594  0.000624  1.030688  0.0  0.040154  0.000413  1.026469  0.0  0.114819  0.043242  0.00084  1.033647  0.001
H  H29  1  0.00769075  0.82898201  0.73943493  1  0.039194  -0.000784  0.9593  -0.002  0.042254  -0.00034  1.030575  -0.001  0.040745  -0.000178  1.02644  0.0  0.115228  0.044018  -0.000513  1.033431  -0.001
C  C30  1  0.34763864  0.56719350  0.53522173  1  0.625342  -0.006643  3.751347  -0.011  0.568088  8.9e-05  4.055583  -0.001  0.609956  9e-05  4.042348  -0.001  0.175838  0.536821  -0.000156  4.063714  -0.002
C  C31  1  0.68142977  0.46406818  0.03211426  1  0.624239  -0.001444  3.749618  -0.003  0.56725  9.3e-05  4.054471  -0.001  0.609352  -4.5e-05  4.041219  -0.001  0.176062  0.535558  0.00029  4.062437  -0.001
C  C32  1  0.01482377  0.96784216  0.43238410  1  0.624593  -0.00658  3.752171  -0.011  0.567105  0.000238  4.056957  -0.001  0.608977  0.000166  4.043765  -0.001  0.175325  0.535803  8.8e-05  4.064982  -0.002
C  C33  1  0.35573048  0.19156798  0.36057046  1  0.604705  -0.006681  3.775421  -0.012  0.549344  0.00074  4.081443  -0.001  0.590998  0.00045  4.070105  -0.001  0.167015  0.518278  0.000829  4.088327  -0.002
C  C34  1  0.68802849  0.63894426  0.83114396  1  0.602668  0.001663  3.775693  0.002  0.547365  -0.000617  4.081317  -0.001  0.589017  -0.000568  4.070557  -0.001  0.166467  0.516209  -0.00048  4.087201  -0.001
C  C35  1  0.02111252  0.16827290  0.80704382  1  0.600567  0.004919  3.774015  0.008  0.546277  0.001327  4.079425  0.003  0.588055  0.001121  4.068654  0.002  0.165726  0.514825  0.001701  4.08522  0.004
C  C36  1  0.82121335  0.66516820  0.49768838  1  0.604766  -0.008558  3.803193  -0.015  0.548513  -0.000458  4.118755  -0.003  0.590991  -0.000661  4.106374  -0.003  0.161961  0.516857  -0.000332  4.125817  -0.004
C  C37  1  0.15481369  0.50212835  0.16725978  1  0.605242  -0.008279  3.803902  -0.015  0.548823  -0.000109  4.119948  -0.003  0.591289  -0.000408  4.107552  -0.002  0.161601  0.517187  0.000106  4.127045  -0.004
C  C38  1  0.48826113  0.83247233  0.33457149  1  0.603643  -0.008332  3.804607  -0.015  0.54775  -0.00013  4.119966  -0.003  0.590198  -0.000444  4.107645  -0.003  0.161432  0.516088  0.000116  4.126952  -0.004
C  C39  1  0.89604996  0.29708399  0.48479973  1  0.597317  -0.003688  3.769298  -0.006  0.542651  -0.000421  4.074443  -0.002  0.583858  -0.000445  4.06374  -0.001  0.164827  0.511603  -0.000394  4.079897  -0.002
C  C40  1  0.22855016  0.51592665  0.81290477  1  0.600037  -0.000208  3.770093  0.0  0.545136  0.000632  4.074153  0.001  0.586345  0.000578  4.062808  0.001  0.165259  0.514143  0.000629  4.080553  0.001
C  C41  1  0.56211885  0.18774059  0.70347010  1  0.598826  -0.004002  3.769389  -0.008  0.544153  -0.000238  4.073374  -0.002  0.585451  -0.000483  4.062492  -0.002  0.165196  0.513131  -3.4e-05  4.079095  -0.003
C  C42  1  0.43099539  0.17622559  0.04432551  1  0.590293  0.003338  3.79033  0.007  0.533193  -0.00056  4.101307  0.001  0.57588  -0.000166  4.0916  0.001  0.153698  0.501819  -0.000927  4.106283  0.001
C  C43  1  0.76424207  0.95606224  0.13178180  1  0.589101  -0.000355  3.793294  -0.001  0.532884  -0.000599  4.10419  -0.001  0.575566  -0.000555  4.09434  -0.001  0.154194  0.50131  -0.000591  4.109554  -0.001
C  C44  1  0.09811360  0.86876848  0.82413174  1  0.587767  0.004077  3.792008  0.007  0.531272  0.000693  4.103095  0.002  0.574046  0.000589  4.093471  0.001  0.15412  0.499492  0.000908  4.108022  0.003
Cl  Cl45  1  0.30082416  0.85821977  0.08879579  1  -0.484412  0.003708  1.047428  0.007  -0.503047  0.002061  1.321843  0.003  -0.541874  0.001311  1.293461  0.002  -0.239321  -0.472276  0.002972  1.34426  0.005
Cl  Cl46  1  0.63509540  0.91188173  0.76964540  1  -0.476529  -0.125837  1.055784  -0.172  -0.500777  -0.08493  1.333068  -0.113  -0.540462  -0.064563  1.304618  -0.086  -0.236751  -0.468627  -0.101249  1.355296  -0.133
Cl  Cl47  1  0.96737378  0.23118943  0.14250822  1  -0.482867  -0.003737  1.048656  -0.002  -0.501851  -0.002407  1.323404  -0.002  -0.540716  -0.001944  1.295026  -0.002  -0.238929  -0.471051  -0.002717  1.345766  -0.002
O  O48  1  0.97128278  0.30750810  0.58671017  1  -0.591492  -0.002932  2.295541  -0.003  -0.574441  -0.001818  2.608039  -0.003  -0.620903  -0.001815  2.595241  -0.003  -0.307178  -0.53443  -0.001461  2.614647  -0.002
O  O49  1  0.30363049  0.41397568  0.72125035  1  -0.594608  0.074844  2.299401  0.123  -0.576802  0.054125  2.612332  0.089  -0.622313  0.043197  2.598635  0.072  -0.308932  -0.538561  0.063453  2.620172  0.102
O  O50  1  0.63713533  0.27951770  0.69322011  1  -0.592578  0.003215  2.298033  0.007  -0.575417  0.001664  2.610761  0.004  -0.621674  0.000858  2.597672  0.003  -0.307434  -0.535763  0.002484  2.617618  0.005
O  O51  1  0.37688628  0.23736163  0.48344543  1  -0.599634  0.081196  2.291131  0.134  -0.582429  0.056609  2.603705  0.093  -0.628071  0.044355  2.589027  0.074  -0.31771  -0.544194  0.066749  2.612756  0.108
O  O52  1  0.70886010  0.51580475  0.75417579  1  -0.595801  0.006377  2.287914  0.012  -0.578722  0.002651  2.599777  0.006  -0.625158  0.001747  2.585901  0.005  -0.315012  -0.538873  0.003702  2.607587  0.008
O  O53  1  0.04141108  0.24472493  0.76028166  1  -0.595315  -0.011801  2.289598  -0.019  -0.578714  -0.00568  2.601448  -0.01  -0.625524  -0.003865  2.587484  -0.007  -0.314475  -0.538028  -0.007045  2.609252  -0.012
O  O54  1  0.47433658  0.49785129  0.53600796  1  -0.560166  0.043553  2.202604  0.072  -0.530496  0.028805  2.488823  0.048  -0.566421  0.022052  2.475091  0.037  -0.299353  -0.501888  0.034951  2.498121  0.057
O  O55  1  0.80757782  0.46427179  0.96208040  1  -0.55758  -0.037895  2.203565  -0.06  -0.528834  -0.026141  2.490225  -0.042  -0.565276  -0.021317  2.476481  -0.035  -0.298441  -0.498964  -0.029726  2.499383  -0.047
O  O56  1  0.14220385  0.03771813  0.50088428  1  -0.559576  0.044083  2.201457  0.072  -0.529324  0.02908  2.486679  0.048  -0.565175  0.022232  2.473076  0.037  -0.299381  -0.500673  0.035525  2.495938  0.057
O  O57  1  0.98118924  0.69981196  0.53227636  1  -0.537523  0.054951  2.129775  0.091  -0.514263  0.033673  2.403487  0.057  -0.551938  0.024929  2.39147  0.043  -0.294321  -0.484538  0.041948  2.411117  0.069
O  O58  1  0.31489748  0.46768363  0.16707476  1  -0.536633  0.053803  2.130135  0.089  -0.513632  0.03288  2.404149  0.056  -0.551271  0.024416  2.392088  0.042  -0.294076  -0.483741  0.040804  2.411826  0.068
O  O59  1  0.64831740  0.83253937  0.30012151  1  -0.536473  0.05506  2.12943  0.091  -0.513398  0.03377  2.403076  0.056  -0.550971  0.025032  2.391106  0.043  -0.294078  -0.48356  0.042057  2.410784  0.069
O  O60  1  0.73725813  0.33146669  0.47958795  1  -0.55156  0.054351  2.154241  0.088  -0.519136  0.035252  2.423669  0.058  -0.556318  0.026758  2.411505  0.045  -0.294915  -0.4897  0.043049  2.431935  0.07
O  O61  1  0.06976289  0.52119012  0.85265090  1  -0.552927  -0.044978  2.158744  -0.072  -0.519268  -0.029423  2.42762  -0.049  -0.556376  -0.023405  2.415077  -0.039  -0.294255  -0.489643  -0.034026  2.436345  -0.055
O  O62  1  0.40345808  0.14785188  0.66889035  1  -0.551612  0.043381  2.15684  0.072  -0.518359  0.028925  2.425701  0.049  -0.555461  0.022443  2.413325  0.039  -0.29405  -0.488991  0.0342  2.434148  0.057
O  O63  1  0.60685175  0.39162234  0.28498053  1  -0.807103  0.035998  1.992734  0.058  -0.780722  0.026955  2.206596  0.043  -0.807346  0.021254  2.170319  0.034  -0.565679  -0.758926  0.032043  2.233435  0.05
O  O64  1  0.94085129  0.71528249  0.10728196  1  -0.80756  0.034018  1.992614  0.055  -0.780609  0.024917  2.207841  0.039  -0.806936  0.019827  2.170948  0.032  -0.566081  -0.759074  0.029459  2.235181  0.046
O  O65  1  0.27369932  0.89309461  0.60799326  1  -0.807154  0.033636  1.993245  0.054  -0.780415  0.024603  2.207572  0.039  -0.806711  0.019627  2.171022  0.032  -0.565722  -0.759103  0.028987  2.234709  0.045
O  O66  1  0.36856291  0.07053648  0.03413481  1  -0.597546  -0.003433  2.368324  -0.006  -0.577553  -0.001284  2.680832  -0.002  -0.631741  -0.000646  2.674389  -0.001  -0.315695  -0.534857  -0.001994  2.683094  -0.004
O  O67  1  0.70204483  0.96600305  0.03629832  1  -0.597756  -0.075777  2.370575  -0.121  -0.578044  -0.05457  2.682759  -0.088  -0.632051  -0.043881  2.67624  -0.072  -0.316469  -0.535877  -0.062904  2.685494  -0.1
O  O68  1  0.03527026  0.96401504  0.92969599  1  -0.59582  0.001534  2.368502  0.003  -0.576363  0.000538  2.680558  0.001  -0.630792  0.000603  2.674276  0.001  -0.31544  -0.533218  0.000239  2.682757  0.001
O  O69  1  0.21189809  0.13995334  0.30355934  1  -0.530952  0.044239  2.224577  0.073  -0.504554  0.029365  2.505945  0.049  -0.543099  0.022632  2.495811  0.038  -0.293664  -0.47535  0.035487  2.512671  0.058
O  O70  1  0.54542196  0.69652962  0.83493164  1  -0.531847  -0.045962  2.225214  -0.072  -0.505056  -0.030902  2.506779  -0.05  -0.543669  -0.024441  2.496772  -0.04  -0.293895  -0.475758  -0.036474  2.513288  -0.058
O  O71  1  0.87952165  0.16635808  0.86291381  1  -0.529389  -0.034858  2.226296  -0.056  -0.503712  -0.023997  2.508022  -0.04  -0.542757  -0.019352  2.4982  -0.032  -0.292421  -0.473474  -0.027463  2.514154  -0.044
O  O72  1  0.74069318  0.66433941  0.40201400  1  -0.599191  0.078804  2.302374  0.131  -0.582196  0.055106  2.612112  0.092  -0.627656  0.043208  2.599503  0.073  -0.310988  -0.544733  0.065508  2.619138  0.107
O  O73  1  0.07405760  0.59766629  0.26238293  1  -0.599464  0.079607  2.302203  0.132  -0.583081  0.055622  2.612581  0.092  -0.628487  0.04357  2.599961  0.073  -0.311071  -0.545838  0.066221  2.619596  0.108
O  O74  1  0.40766506  0.73751299  0.33550168  1  -0.599736  0.079005  2.303627  0.131  -0.583112  0.055306  2.613775  0.092  -0.62865  0.043373  2.601124  0.073  -0.311132  -0.545703  0.065724  2.620707  0.107
O  O75  1  0.34537409  0.60982214  0.45510009  1  -0.594723  0.08051  2.281186  0.133  -0.571899  0.056152  2.589365  0.093  -0.616751  0.044309  2.574531  0.074  -0.310791  -0.53572  0.066375  2.598914  0.108
O  O76  1  0.67930898  0.54412030  0.15494149  1  -0.592974  0.074496  2.281898  0.123  -0.570952  0.053098  2.590525  0.088  -0.616384  0.042492  2.575823  0.071  -0.310171  -0.533554  0.062033  2.599895  0.101
O  O77  1  0.01195240  0.84499785  0.39003507  1  -0.594824  0.081726  2.282685  0.135  -0.572161  0.056653  2.591403  0.093  -0.61713  0.044599  2.576738  0.075  -0.310752  -0.535795  0.067315  2.600839  0.109
O  O78  1  0.58397147  0.19089260  0.00827649  1  -0.532404  -0.044778  2.151677  -0.072  -0.505449  -0.028299  2.425414  -0.047  -0.545235  -0.021953  2.415057  -0.037  -0.299257  -0.474869  -0.03361  2.431864  -0.055
O  O79  1  0.91736487  0.99176680  0.18225901  1  -0.531099  0.043904  2.151003  0.072  -0.505056  0.02827  2.424781  0.048  -0.545155  0.022292  2.414495  0.038  -0.298934  -0.473875  0.032934  2.431206  0.054
O  O80  1  0.25129333  0.81828913  0.80938276  1  -0.531348  -0.053872  2.150612  -0.085  -0.505061  -0.03404  2.425015  -0.055  -0.545198  -0.025954  2.414812  -0.043  -0.299195  -0.473795  -0.041135  2.431286  -0.066
