# generated using pymatgen
data_HgP2H26C18N2(ClO3)2
_symmetry_space_group_name_H-M   'P 1'
_cell_length_a   8.17119467
_cell_length_b   11.86338836
_cell_length_c   14.04800000
_cell_angle_alpha   90.00000000
_cell_angle_beta   90.00000000
_cell_angle_gamma   109.45958868
_symmetry_Int_Tables_number   1
_chemical_formula_structural   HgP2H26C18N2(ClO3)2
_chemical_formula_sum   'Hg2 P4 H52 C36 N4 Cl4 O12'
_cell_volume   1283.99610030
_cell_formula_units_Z   2
loop_
 _symmetry_equiv_pos_site_id
 _symmetry_equiv_pos_as_xyz
  1  'x, y, z'
loop_
 _atom_site_type_symbol
 _atom_site_label
 _atom_site_symmetry_multiplicity
 _atom_site_fract_x
 _atom_site_fract_y
 _atom_site_fract_z
 _atom_site_occupancy
 _atom_site_hle17_bader_spin_density
 _atom_site_hle17_ddec_charge
 _atom_site_hle17_ddec_spin_density
 _atom_site_hle17_ddec_sum_bond_order
 _atom_site_hle17_magmom
 _atom_site_hse06_10hf_bader_spin_density
 _atom_site_hse06_10hf_ddec_charge
 _atom_site_hse06_10hf_ddec_spin_density
 _atom_site_hse06_10hf_ddec_sum_bond_order
 _atom_site_hse06_10hf_magmom
 _atom_site_hse06_bader_spin_density
 _atom_site_hse06_ddec_charge
 _atom_site_hse06_ddec_spin_density
 _atom_site_hse06_ddec_sum_bond_order
 _atom_site_hse06_magmom
 _atom_site_pbe_bader_charge
 _atom_site_pbe_bader_spin_density
 _atom_site_pbe_cm5_charge
 _atom_site_pbe_ddec_charge
 _atom_site_pbe_ddec_spin_density
 _atom_site_pbe_ddec_sum_bond_order
 _atom_site_pbe_magmom
Hg  Hg0  1  0.56678718  0.77289221  0.74999858  1  0  0.790955  0  2.109697  0  0  0.625124  0  2.620321  0  0  0.674999  0  2.581126  0  0.853696  0  0.536034  0.591089  0  2.646433  0
Hg  Hg1  1  0.43321483  0.22710757  0.25000214  1  0  0.790977  0  2.109641  0  0  0.625164  0  2.620254  0  0  0.675042  0  2.581061  0  0.853618  0  0.536034  0.591133  0  2.646367  0
P  P2  1  0.68048415  0.45464605  0.74999929  1  0  1.346516  0  4.702153  0  0  1.191758  0  5.191075  0  0  1.243525  0  5.152785  0  3.324605  0  0.407921  1.15589  0  5.216941  0
P  P3  1  0.31951297  0.54535373  0.25000000  1  0  1.346729  0  4.702063  0  0  1.192011  0  5.19095  0  0  1.243756  0  5.152667  0  3.324583  0  0.408099  1.156139  0  5.216817  0
P  P4  1  0.06289714  0.15140833  0.75000142  1  0  1.308063  0  4.771433  0  0  1.152313  0  5.270982  0  0  1.204114  0  5.23293  0  3.347877  0  0.397027  1.116358  0  5.296605  0
P  P5  1  0.93710322  0.84859056  0.24999929  1  0  1.30811  0  4.771604  0  0  1.152239  0  5.27127  0  0  1.204039  0  5.233222  0  3.34787  0  0.397041  1.116288  0  5.296885  0
H  H6  1  0.30357119  0.50018808  0.75000000  1  0  0.115158  0  0.968868  0  0  0.120059  0  1.033789  0  0  0.123409  0  1.030588  0  0.195471  0  0.120464  0.117535  0  1.036324  0
H  H7  1  0.69643003  0.49981260  0.25000000  1  0  0.115183  0  0.968848  0  0  0.120088  0  1.033751  0  0  0.123438  0  1.03055  0  0.19548  0  0.120473  0.117565  0  1.036286  0
H  H8  1  0.99068923  0.38112637  0.75000000  1  0  0.120842  0  0.95767  0  0  0.128271  0  1.018817  0  0  0.132499  0  1.015791  0  0.121865  0  0.115219  0.125175  0  1.021202  0
H  H9  1  0.00931206  0.61887699  0.24999929  1  0  0.120801  0  0.957635  0  0  0.128195  0  1.01883  0  0  0.132424  0  1.015806  0  0.121813  0  0.115224  0.125102  0  1.021209  0
H  H10  1  0.49531878  0.42944426  0.58267227  1  0  0.054949  0  0.937815  0  0  0.071091  0  0.998059  0  0  0.071228  0  0.998117  0  0.060137  0  0.105604  0.070894  0  0.998134  0
H  H11  1  0.49531791  0.42944247  0.91732773  1  0  0.054906  0  0.937812  0  0  0.071066  0  0.998057  0  0  0.071203  0  0.998116  0  0.060147  0  0.105611  0.070869  0  0.998131  0
H  H12  1  0.50468086  0.57055821  0.41732773  1  0  0.054945  0  0.937821  0  0  0.071094  0  0.998051  0  0  0.071234  0  0.998112  0  0.06018  0  0.105611  0.070896  0  0.998128  0
H  H13  1  0.50468122  0.57055642  0.08267227  1  0  0.05495  0  0.937821  0  0  0.071092  0  0.998057  0  0  0.071228  0  0.998118  0  0.060141  0  0.105605  0.070895  0  0.99813  0
H  H14  1  0.53096550  0.29883479  0.53957289  1  0  0.061294  0  0.945384  0  0  0.071397  0  1.01337  0  0  0.072322  0  1.012122  0  0.121599  0  0.095346  0.070703  0  1.014298  0
H  H15  1  0.53096507  0.29883389  0.96042640  1  0  0.061356  0  0.945382  0  0  0.071452  0  1.013384  0  0  0.072379  0  1.012134  0  0.121591  0  0.095374  0.070756  0  1.014316  0
H  H16  1  0.46903205  0.70116589  0.46042711  1  0  0.061347  0  0.945393  0  0  0.071445  0  1.01337  0  0  0.072373  0  1.012122  0  0.121594  0  0.095367  0.07075  0  1.014299  0
H  H17  1  0.46903407  0.70116500  0.03957218  1  0  0.061305  0  0.945377  0  0  0.071407  0  1.01336  0  0  0.072331  0  1.012115  0  0.121601  0  0.095354  0.070712  0  1.014288  0
H  H18  1  0.69224379  0.46909127  0.43789579  1  0  0.112409  0  0.958574  0  0  0.132987  0  1.021857  0  0  0.133658  0  1.022934  0  0.070068  0  0.093096  0.132481  0  1.02115  0
H  H19  1  0.69224292  0.46908948  0.06210350  1  0  0.112449  0  0.95853  0  0  0.133018  0  1.021819  0  0  0.133689  0  1.022897  0  0.070088  0  0.093109  0.132513  0  1.021111  0
H  H20  1  0.30775578  0.53090852  0.56210350  1  0  0.112425  0  0.958564  0  0  0.133005  0  1.021841  0  0  0.133677  0  1.022917  0  0.070114  0  0.093103  0.132499  0  1.021133  0
H  H21  1  0.30775657  0.53090762  0.93789579  1  0  0.112375  0  0.958608  0  0  0.132972  0  1.021866  0  0  0.133643  0  1.022943  0  0.070106  0  0.093091  0.132466  0  1.021157  0
H  H22  1  0.84505100  0.42328819  0.50346740  1  0  0.107299  0  0.947167  0  0  0.130429  0  1.004031  0  0  0.131558  0  1.004979  0  0.035221  0  0.089844  0.129623  0  1.003365  0
H  H23  1  0.84505057  0.42328730  0.99653189  1  0  0.107302  0  0.947169  0  0  0.130447  0  1.004015  0  0  0.131573  0  1.004969  0  0.035213  0  0.08985  0.129643  0  1.003346  0
H  H24  1  0.15494735  0.57671159  0.49653189  1  0  0.107285  0  0.947169  0  0  0.130421  0  1.004023  0  0  0.131545  0  1.004984  0  0.035187  0  0.089838  0.129616  0  1.003354  0
H  H25  1  0.15494936  0.57671070  0.00346740  1  0  0.107312  0  0.947133  0  0  0.130432  0  1.004016  0  0  0.13156  0  1.004965  0  0.035214  0  0.089851  0.129627  0  1.003346  0
H  H26  1  0.79761583  0.55461734  0.53783314  1  0  0.104243  0  0.960609  0  0  0.121145  0  1.029296  0  0  0.122416  0  1.029736  0  0.02748  0  0.084655  0.120211  0  1.029045  0
H  H27  1  0.79761496  0.55461555  0.96216614  1  0  0.104249  0  0.960617  0  0  0.121153  0  1.029293  0  0  0.122431  0  1.029725  0  0.02742  0  0.084657  0.120214  0  1.029047  0
H  H28  1  0.20238461  0.44538424  0.46216614  1  0  0.104261  0  0.960601  0  0  0.121166  0  1.029281  0  0  0.122436  0  1.029722  0  0.027408  0  0.084661  0.120231  0  1.02903  0
H  H29  1  0.20238540  0.44538334  0.03783386  1  0  0.104237  0  0.960607  0  0  0.121138  0  1.029295  0  0  0.122408  0  1.029737  0  0.027397  0  0.084654  0.120198  0  1.02905  0
H  H30  1  0.87857702  0.71183128  0.75000000  1  0  0.098199  0  1.016654  0  0  0.103299  0  1.091144  0  0  0.10648  0  1.089188  0  0.118001  0  0.094384  0.100972  0  1.092703  0
H  H31  1  0.12142586  0.28817029  0.25000071  1  0  0.09819  0  1.016561  0  0  0.103292  0  1.091057  0  0  0.106472  0  1.089101  0  0.118002  0  0.094391  0.100965  0  1.092616  0
H  H32  1  0.97454392  0.88817499  0.74999929  1  0  0.107064  0  0.981212  0  0  0.111565  0  1.056413  0  0  0.114951  0  1.05396  0  0.080769  0  0.10103  0.109067  0  1.058353  0
H  H33  1  0.02545766  0.11182390  0.24999929  1  0  0.107036  0  0.981229  0  0  0.111558  0  1.056413  0  0  0.114946  0  1.053959  0  0.08075  0  0.101031  0.10906  0  1.058353  0
H  H34  1  0.04649756  0.09851764  0.53730353  1  0  0.051669  0  0.937942  0  0  0.066181  0  1.001003  0  0  0.066251  0  1.00115  0  0.066019  0  0.093325  0.066034  0  1.001034  0
H  H35  1  0.04650131  0.09852032  0.96270216  1  0  0.051557  0  0.93799  0  0  0.066156  0  1.000987  0  0  0.066226  0  1.001133  0  0.066024  0  0.093337  0.066007  0  1.001015  0
H  H36  1  0.95350280  0.90148125  0.46269860  1  0  0.051561  0  0.937971  0  0  0.066105  0  1.001016  0  0  0.066176  0  1.001163  0  0.066075  0  0.093312  0.065958  0  1.001045  0
H  H37  1  0.95350071  0.90147946  0.03729926  1  0  0.05158  0  0.937986  0  0  0.066192  0  1.000968  0  0  0.066262  0  1.001115  0  0.066084  0  0.093358  0.066043  0  1.000998  0
H  H38  1  0.05337199  0.24481677  0.57066985  1  0  0.048229  0  0.926175  0  0  0.063917  0  0.986569  0  0  0.06434  0  0.985938  0  0.079751  0  0.100813  0.063498  0  0.987132  0
H  H39  1  0.05337443  0.24481677  0.92933514  1  0  0.048188  0  0.926086  0  0  0.063891  0  0.986516  0  0  0.064314  0  0.985885  0  0.079762  0  0.100798  0.063471  0  0.98708  0
H  H40  1  0.94662679  0.75518391  0.42933158  1  0  0.048178  0  0.926152  0  0  0.063909  0  0.986525  0  0  0.064333  0  0.985895  0  0.079746  0  0.1008  0.063487  0  0.987092  0
H  H41  1  0.94662470  0.75518212  0.07066486  1  0  0.048197  0  0.926068  0  0  0.063877  0  0.986528  0  0  0.0643  0  0.985897  0  0.079985  0  0.100806  0.063459  0  0.98709  0
H  H42  1  0.83294559  0.16413438  0.44228431  1  0  0.102246  0  0.968331  0  0  0.120647  0  1.034153  0  0  0.120545  0  1.036729  0  0.043567  0  0.084977  0.120705  0  1.03236  0
H  H43  1  0.83294646  0.16413617  0.05771925  1  0  0.102246  0  0.968292  0  0  0.120634  0  1.034152  0  0  0.120536  0  1.036717  0  0.044018  0  0.084962  0.120689  0  1.032363  0
H  H44  1  0.16705477  0.83586451  0.55771711  1  0  0.102237  0  0.968339  0  0  0.120623  0  1.034186  0  0  0.120522  0  1.03676  0  0.043531  0  0.084961  0.120681  0  1.032394  0
H  H45  1  0.16705145  0.83586272  0.94228075  1  0  0.102266  0  0.968301  0  0  0.120654  0  1.034154  0  0  0.120554  0  1.036725  0  0.044108  0  0.084961  0.120709  0  1.032365  0
H  H46  1  0.72798733  0.18215112  0.54967326  1  0  0.108899  0  0.951842  0  0  0.130863  0  1.009992  0  0  0.132065  0  1.01017  0  0.032805  0  0.090526  0.129928  0  1.009909  0
H  H47  1  0.72799143  0.18215201  0.95033101  1  0  0.108893  0  0.951891  0  0  0.130889  0  1.010009  0  0  0.132085  0  1.010195  0  0.032857  0  0.090555  0.129953  0  1.009929  0
H  H48  1  0.27201058  0.81784778  0.45032887  1  0  0.108857  0  0.951914  0  0  0.130842  0  1.010049  0  0  0.132042  0  1.010227  0  0.032821  0  0.090513  0.129906  0  1.009967  0
H  H49  1  0.27200972  0.81784599  0.04966828  1  0  0.108858  0  0.951945  0  0  0.130859  0  1.010062  0  0  0.132057  0  1.010242  0  0.032833  0  0.090537  0.129922  0  1.009983  0
H  H50  1  0.72434250  0.03686399  0.51399701  1  0  0.11043  0  0.949652  0  0  0.127642  0  1.014734  0  0  0.129331  0  1.014435  0  0.06504  0  0.085461  0.126372  0  1.014991  0
H  H51  1  0.72434624  0.03686667  0.98600726  1  0  0.110395  0  0.949694  0  0  0.127621  0  1.014771  0  0  0.129304  0  1.014476  0  0.065071  0  0.085478  0.126352  0  1.015027  0
H  H52  1  0.27565620  0.96313401  0.48600441  1  0  0.110417  0  0.949624  0  0  0.127629  0  1.014714  0  0  0.129317  0  1.014416  0  0.065068  0  0.085475  0.126359  0  1.014971  0
H  H53  1  0.27565368  0.96313132  0.01399274  1  0  0.110384  0  0.9497  0  0  0.127603  0  1.014782  0  0  0.12929  0  1.014485  0  0.065105  0  0.085463  0.126335  0  1.015039  0
H  H54  1  0.43607032  0.19966274  0.74999929  1  0  0.124304  0  0.973831  0  0  0.125703  0  1.044136  0  0  0.130227  0  1.041037  0  0.176595  0  0.114173  0.122426  0  1.046468  0
H  H55  1  0.56392846  0.80033794  0.24999858  1  0  0.124317  0  0.973828  0  0  0.125714  0  1.044122  0  0  0.130237  0  1.041026  0  0.176606  0  0.114186  0.122436  0  1.046453  0
H  H56  1  0.61234866  0.06181636  0.75000000  1  0  0.100204  0  0.927606  0  0  0.104046  0  0.994173  0  0  0.107512  0  0.990783  0  0.138434  0  0.122153  0.101464  0  0.996695  0
H  H57  1  0.38765177  0.93818522  0.25000071  1  0  0.100222  0  0.927585  0  0  0.104069  0  0.994146  0  0  0.107537  0  0.990758  0  0.138363  0  0.122189  0.101492  0  0.996669  0
C  C58  1  0.20549805  0.54388668  0.74999929  1  0  0.126912  0  3.66447  0  0  0.096701  0  3.918562  0  0  0.103272  0  3.934799  0  0.446068  0  0.051753  0.09228  0  3.907692  0
C  C59  1  0.79450440  0.45611400  0.25000000  1  0  0.126857  0  3.664439  0  0  0.096671  0  3.918499  0  0  0.103242  0  3.934738  0  0.446405  0  0.051713  0.092249  0  3.907629  0
C  C60  1  0.02938108  0.47807862  0.74999929  1  0  -0.064992  0  3.689864  0  0  -0.089863  0  3.935817  0  0  -0.093049  0  3.954641  0  0.014406  0  -0.066479  -0.087891  0  3.923393  0
C  C61  1  0.97061900  0.52192474  0.24999929  1  0  -0.064822  0  3.689563  0  0  -0.089682  0  3.935516  0  0  -0.092862  0  3.954337  0  0.014061  0  -0.066432  -0.087709  0  3.923091  0
C  C62  1  0.90996983  0.53912883  0.74999929  1  0  -0.18775  0  3.775206  0  0  -0.15018  0  4.014008  0  0  -0.15607  0  4.035035  0  -0.560226  0  -0.004571  -0.146141  0  4.000039  0
C  C63  1  0.09002808  0.46087007  0.25000000  1  0  -0.187929  0  3.775176  0  0  -0.150312  0  4.013914  0  0  -0.156212  0  4.034959  0  -0.560191  0  -0.004625  -0.146273  0  3.999945  0
C  C64  1  0.59440959  0.38717159  0.57106563  1  0  0.179806  0  3.58729  0  0  0.124885  0  3.856824  0  0  0.133704  0  3.862124  0  0.355277  0  -0.059596  0.118961  0  3.853149  0
C  C65  1  0.59440793  0.38717069  0.92893437  1  0  0.179947  0  3.587097  0  0  0.124974  0  3.856697  0  0  0.133797  0  3.862002  0  0.355278  0  -0.059559  0.119032  0  3.853024  0
C  C66  1  0.40558797  0.61282909  0.42893366  1  0  0.179754  0  3.58731  0  0  0.124828  0  3.856844  0  0  0.13364  0  3.862162  0  0.355272  0  -0.059616  0.118884  0  3.853172  0
C  C67  1  0.40558998  0.61282820  0.07106634  1  0  0.17978  0  3.587322  0  0  0.12489  0  3.85684  0  0  0.133691  0  3.862143  0  0.355423  0  -0.059579  0.118967  0  3.853164  0
C  C68  1  0.74211264  0.46331425  0.50969747  1  0  -0.338382  0  3.715445  0  0  -0.416401  0  3.962044  0  0  -0.420211  0  3.97252  0  -0.090107  0  -0.25021  -0.413522  0  3.954781  0
C  C69  1  0.74211178  0.46331247  0.99030182  1  0  -0.338545  0  3.715372  0  0  -0.416555  0  3.962003  0  0  -0.420369  0  3.972474  0  -0.090039  0  -0.250304  -0.413673  0  3.954751  0
C  C70  1  0.25788736  0.53668643  0.49030253  1  0  -0.338398  0  3.715422  0  0  -0.416422  0  3.962012  0  0  -0.420232  0  3.972489  0  -0.090063  0  -0.250224  -0.413544  0  3.954756  0
C  C71  1  0.25788815  0.53668553  0.00969675  1  0  -0.338376  0  3.715461  0  0  -0.416401  0  3.962058  0  0  -0.420214  0  3.97254  0  -0.090077  0  -0.25023  -0.413516  0  3.954799  0
C  C72  1  0.97091242  0.66386563  0.74999929  1  0  -0.102128  0  3.702219  0  0  -0.130844  0  3.941644  0  0  -0.135294  0  3.963308  0  0.076051  0  -0.067884  -0.128047  0  3.927386  0
C  C73  1  0.02908549  0.33613326  0.25000071  1  0  -0.102138  0  3.702106  0  0  -0.130874  0  3.94155  0  0  -0.135322  0  3.963217  0  0.076046  0  -0.067923  -0.128078  0  3.927294  0
C  C74  1  0.15035911  0.72476832  0.74999858  1  0  0.170482  0  3.738079  0  0  0.166583  0  3.97757  0  0  0.172956  0  3.997816  0  0.438488  0  0.121966  0.162257  0  3.963956  0
C  C75  1  0.84964161  0.27522878  0.25000071  1  0  0.170662  0  3.737795  0  0  0.166729  0  3.977285  0  0  0.173102  0  3.997529  0  0.438417  0  0.12207  0.162402  0  3.963673  0
C  C76  1  0.22265554  0.85764855  0.74999929  1  0  0.161983  0  3.759634  0  0  0.161715  0  3.999969  0  0  0.167069  0  4.02011  0  0.502552  0  0.12218  0.15804  0  3.986402  0
C  C77  1  0.77734281  0.14235124  0.25000071  1  0  0.16182  0  3.759827  0  0  0.16166  0  4.000038  0  0  0.167014  0  4.020179  0  0.502547  0  0.122153  0.157986  0  3.986471  0
C  C78  1  0.11523930  0.92844243  0.74999929  1  0  -0.092504  0  3.671946  0  0  -0.122799  0  3.91728  0  0  -0.126028  0  3.937515  0  0.010076  0  -0.063618  -0.120759  0  3.903901  0
C  C79  1  0.88476272  0.07155736  0.25000000  1  0  -0.092417  0  3.671875  0  0  -0.122814  0  3.9171  0  0  -0.126046  0  3.937335  0  0.010129  0  -0.063652  -0.120771  0  3.903721  0
C  C80  1  0.19157870  0.05282811  0.75000000  1  0  -0.176631  0  3.74612  0  0  -0.141086  0  3.986958  0  0  -0.147386  0  4.008126  0  -0.626742  0  -0.002535  -0.136769  0  3.972806  0
C  C81  1  0.80842490  0.94716989  0.24999929  1  0  -0.176739  0  3.746251  0  0  -0.140986  0  3.986787  0  0  -0.147284  0  4.007951  0  -0.626724  0  -0.002471  -0.136674  0  3.972633  0
C  C82  1  0.97087746  0.15027831  0.56875569  1  0  0.183371  0  3.599914  0  0  0.127568  0  3.870368  0  0  0.136519  0  3.875579  0  0.370497  0  -0.061581  0.121521  0  3.866709  0
C  C83  1  0.97088113  0.15027831  0.93124929  1  0  0.183737  0  3.599561  0  0  0.127803  0  3.870172  0  0  0.136755  0  3.87538  0  0.370211  0  -0.061524  0.121761  0  3.866508  0
C  C84  1  0.02912088  0.84972147  0.43124644  1  0  0.183694  0  3.599689  0  0  0.127844  0  3.87015  0  0  0.136791  0  3.875365  0  0.370396  0  -0.061492  0.1218  0  3.866485  0
C  C85  1  0.02911757  0.84971968  0.06875142  1  0  0.183725  0  3.599464  0  0  0.127778  0  3.870112  0  0  0.13673  0  3.875319  0  0.370099  0  -0.061554  0.121734  0  3.866451  0
C  C86  1  0.80331170  0.13202199  0.51562429  1  0  -0.31872  0  3.700397  0  0  -0.393326  0  3.944368  0  0  -0.396296  0  3.953919  0  -0.079276  0  -0.249287  -0.391033  0  3.937729  0
C  C87  1  0.80331580  0.13202288  0.98437927  1  0  -0.318781  0  3.700388  0  0  -0.393407  0  3.94444  0  0  -0.396366  0  3.95399  0  -0.079817  0  -0.249348  -0.391114  0  3.937801  0
C  C88  1  0.19668499  0.86797690  0.48437714  1  0  -0.318727  0  3.700371  0  0  -0.393346  0  3.944399  0  0  -0.396312  0  3.953948  0  -0.079276  0  -0.249283  -0.391054  0  3.93776  0
C  C89  1  0.19668413  0.86797511  0.01562073  1  0  -0.318768  0  3.700359  0  0  -0.393373  0  3.944414  0  0  -0.396337  0  3.953961  0  -0.079909  0  -0.249302  -0.391082  0  3.937772  0
C  C90  1  0.37259946  0.10325225  0.74999929  1  0  -0.069737  0  3.678088  0  0  -0.090332  0  3.918751  0  0  -0.093632  0  3.938209  0  0.092915  0  -0.062745  -0.088263  0  3.905834  0
C  C91  1  0.62740299  0.89674843  0.24999929  1  0  -0.069697  0  3.678154  0  0  -0.090311  0  3.918717  0  0  -0.093612  0  3.938177  0  0.092861  0  -0.062759  -0.088238  0  3.905799  0
C  C92  1  0.47071943  0.02701035  0.74999929  1  0  0.144324  0  3.659526  0  0  0.11775  0  3.909699  0  0  0.12396  0  3.926267  0  0.465434  0  0.061455  0.113621  0  3.898478  0
C  C93  1  0.52928136  0.97298944  0.25000000  1  0  0.144362  0  3.659452  0  0  0.117768  0  3.909652  0  0  0.123974  0  3.926222  0  0.465526  0  0.061438  0.113632  0  3.898437  0
N  N94  1  0.26354849  0.66382808  0.74999929  1  0  -0.302868  0  3.238175  0  0  -0.229585  0  3.498249  0  0  -0.248242  0  3.516748  0  -1.204831  0  -0.297333  -0.216898  0  3.485454  0
N  N95  1  0.73645273  0.33617260  0.25000071  1  0  -0.30297  0  3.238034  0  0  -0.229708  0  3.498148  0  0  -0.248366  0  3.516648  0  -1.204741  0  -0.297372  -0.217021  0  3.485354  0
N  N96  1  0.39698612  0.90799760  0.74999929  1  0  -0.311594  0  3.241164  0  0  -0.246556  0  3.501973  0  0  -0.263959  0  3.520162  0  -1.206712  0  -0.298853  -0.234628  0  3.489322  0
N  N97  1  0.60301511  0.09200308  0.25000142  1  0  -0.311609  0  3.241206  0  0  -0.246623  0  3.502013  0  0  -0.264026  0  3.520201  0  -1.206732  0  -0.298873  -0.234698  0  3.489367  0
Cl  Cl98  1  0.71137936  0.79199068  0.59610051  1  0  -0.516073  0  0.919254  0  0  -0.456081  0  1.178562  0  0  -0.474267  0  1.160444  0  -0.545013  0  -0.286966  -0.443445  0  1.190772  0
Cl  Cl99  1  0.71137979  0.79199158  0.90389735  1  0  -0.516055  0  0.91927  0  0  -0.456062  0  1.178566  0  0  -0.47425  0  1.160452  0  -0.544982  0  -0.286947  -0.443426  0  1.190777  0
Cl  Cl100  1  0.28861697  0.20801000  0.40389806  1  0  -0.516063  0  0.91922  0  0  -0.456072  0  1.17854  0  0  -0.47426  0  1.160425  0  -0.544934  0  -0.286955  -0.443435  0  1.190752  0
Cl  Cl101  1  0.28862222  0.20800821  0.09610265  1  0  -0.516066  0  0.919238  0  0  -0.45608  0  1.178538  0  0  -0.474267  0  1.160422  0  -0.544964  0  -0.286954  -0.443442  0  1.190749  0
O  O102  1  0.57044080  0.53183470  0.75000000  1  0  -0.779112  0  1.955877  0  0  -0.713061  0  2.215782  0  0  -0.738984  0  2.197517  0  -1.427186  0  -0.34626  -0.694734  0  2.227792  0
O  O103  1  0.42956006  0.46816777  0.25000000  1  0  -0.779248  0  1.955941  0  0  -0.713237  0  2.215863  0  0  -0.739157  0  2.197601  0  -1.427151  0  -0.346391  -0.694911  0  2.227875  0
O  O104  1  0.65538278  0.36257861  0.66440846  1  0  -0.493956  0  2.220309  0  0  -0.410251  0  2.468946  0  0  -0.431938  0  2.460567  0  -1.290679  0  -0.209859  -0.39514  0  2.474378  0
O  O105  1  0.65538112  0.36257771  0.83559012  1  0  -0.494012  0  2.220248  0  0  -0.410266  0  2.468878  0  0  -0.431976  0  2.460518  0  -1.290783  0  -0.209861  -0.395106  0  2.474274  0
O  O106  1  0.34461888  0.63742297  0.33559012  1  0  -0.493991  0  2.220245  0  0  -0.410267  0  2.468851  0  0  -0.431968  0  2.460493  0  -1.290821  0  -0.209874  -0.3951  0  2.474242  0
O  O107  1  0.34462089  0.63742207  0.16440917  1  0  -0.493897  0  2.220193  0  0  -0.410257  0  2.468871  0  0  -0.431898  0  2.460463  0  -1.290807  0  -0.209888  -0.395147  0  2.474305  0
O  O108  1  0.17909915  0.27768996  0.75000071  1  0  -0.762464  0  1.868695  0  0  -0.701401  0  2.105249  0  0  -0.726184  0  2.089085  0  -1.44576  0  -0.350976  -0.683856  0  2.115762  0
O  O109  1  0.82089919  0.72230983  0.25000071  1  0  -0.762439  0  1.868779  0  0  -0.701384  0  2.105365  0  0  -0.726167  0  2.089206  0  -1.445786  0  -0.350937  -0.683839  0  2.115876  0
O  O110  1  0.92554168  0.10920806  0.66624288  1  0  -0.490321  0  2.264457  0  0  -0.407295  0  2.521762  0  0  -0.429299  0  2.513726  0  -1.288238  0  -0.208415  -0.39191  0  2.526895  0
O  O111  1  0.92554578  0.10920896  0.83376139  1  0  -0.490441  0  2.264542  0  0  -0.407393  0  2.521926  0  0  -0.429398  0  2.513888  0  -1.288039  0  -0.208418  -0.392009  0  2.52706  0
O  O112  1  0.07445458  0.89078993  0.33375925  1  0  -0.490455  0  2.264489  0  0  -0.407424  0  2.521863  0  0  -0.429424  0  2.513823  0  -1.288216  0  -0.208511  -0.392041  0  2.526997  0
O  O113  1  0.07445537  0.89078904  0.16623932  1  0  -0.490459  0  2.26447  0  0  -0.407392  0  2.521871  0  0  -0.429399  0  2.513836  0  -1.288186  0  -0.208471  -0.39201  0  2.527006  0
