# generated using pymatgen
data_MgH24(C6O)2
_symmetry_space_group_name_H-M   'P 1'
_cell_length_a   7.59165451
_cell_length_b   7.71779564
_cell_length_c   11.54642795
_cell_angle_alpha   85.68743643
_cell_angle_beta   81.50494860
_cell_angle_gamma   69.99722154
_symmetry_Int_Tables_number   1
_chemical_formula_structural   MgH24(C6O)2
_chemical_formula_sum   'Mg2 H48 C24 O4'
_cell_volume   628.50879253
_cell_formula_units_Z   2
loop_
 _symmetry_equiv_pos_site_id
 _symmetry_equiv_pos_as_xyz
  1  'x, y, z'
loop_
 _atom_site_type_symbol
 _atom_site_label
 _atom_site_symmetry_multiplicity
 _atom_site_fract_x
 _atom_site_fract_y
 _atom_site_fract_z
 _atom_site_occupancy
 _atom_site_hle17_bader_spin_density
 _atom_site_hle17_ddec_charge
 _atom_site_hle17_ddec_spin_density
 _atom_site_hle17_ddec_sum_bond_order
 _atom_site_hle17_magmom
 _atom_site_hse06_10hf_bader_spin_density
 _atom_site_hse06_10hf_ddec_charge
 _atom_site_hse06_10hf_ddec_spin_density
 _atom_site_hse06_10hf_ddec_sum_bond_order
 _atom_site_hse06_10hf_magmom
 _atom_site_hse06_bader_spin_density
 _atom_site_hse06_ddec_charge
 _atom_site_hse06_ddec_spin_density
 _atom_site_hse06_ddec_sum_bond_order
 _atom_site_hse06_magmom
 _atom_site_pbe_bader_spin_density
 _atom_site_pbe_cm5_charge
 _atom_site_pbe_ddec_charge
 _atom_site_pbe_ddec_spin_density
 _atom_site_pbe_ddec_sum_bond_order
 _atom_site_pbe_magmom
Mg  Mg0  1  0.27665709  0.84426208  0.26963836  1  0  1.055718  0  1.508931  0  0  0.965957  0  1.733679  0  0  0.982463  0  1.717712  0  0  0.573146  0.954326  0  1.744633  0
Mg  Mg1  1  0.72334386  0.15573840  0.73036059  1  0  1.055703  0  1.508917  0  0  0.965971  0  1.733615  0  0  0.982479  0  1.717647  0  0  0.573151  0.954353  0  1.744564  0
H  H2  1  0.09833801  0.67863342  0.44447872  1  0  0.077859  0  1.063794  0  0  0.093701  0  1.133234  0  0  0.094832  0  1.134907  0  0  0.044615  0.092902  0  1.131993  0
H  H3  1  0.90166161  0.32136707  0.55552035  1  0  0.077859  0  1.063811  0  0  0.093689  0  1.13326  0  0  0.09482  0  1.134934  0  0  0.044609  0.092894  0  1.132013  0
H  H4  1  0.31238434  0.66953984  0.48784580  1  0  0.077471  0  1.070847  0  0  0.089837  0  1.147652  0  0  0.090964  0  1.149412  0  0  0.044071  0.089049  0  1.146344  0
H  H5  1  0.68761519  0.33046479  0.51215394  1  0  0.077567  0  1.070687  0  0  0.089895  0  1.147547  0  0  0.091021  0  1.14931  0  0  0.044097  0.089108  0  1.146239  0
H  H6  1  0.02526005  0.88505099  0.61401434  1  0  0.007185  0  0.970703  0  0  0.028772  0  1.043076  0  0  0.030078  0  1.041244  0  0  0.065962  0.027776  0  1.044464  0
H  H7  1  0.97473817  0.11495364  0.38598293  1  0  0.007212  0  0.970687  0  0  0.02881  0  1.043049  0  0  0.030119  0  1.041211  0  0  0.065986  0.027821  0  1.04443  0
H  H8  1  0.17980486  0.99671591  0.54551763  1  0  0.019584  0  0.963568  0  0  0.04404  0  1.030945  0  0  0.043436  0  1.032098  0  0  0.068918  0.04441  0  1.030224  0
H  H9  1  0.82019290  0.00329009  0.45447788  1  0  0.019625  0  0.963555  0  0  0.044084  0  1.030941  0  0  0.043481  0  1.032092  0  0  0.068966  0.044451  0  1.030225  0
H  H10  1  0.32209954  0.86592379  0.03392461  1  0  0.066683  0  1.07948  0  0  0.079716  0  1.158692  0  0  0.080515  0  1.160762  0  0  0.043155  0.079153  0  1.157187  0
H  H11  1  0.67789971  0.13407394  0.96607376  1  0  0.066695  0  1.079474  0  0  0.079735  0  1.158673  0  0  0.080533  0  1.160744  0  0  0.043158  0.07917  0  1.157174  0
H  H12  1  0.19925549  0.71155150  0.07280712  1  0  0.073168  0  1.071554  0  0  0.087926  0  1.144741  0  0  0.089166  0  1.14607  0  0  0.042598  0.087063  0  1.143731  0
H  H13  1  0.80073691  0.28845451  0.92719322  1  0  0.07317  0  1.071452  0  0  0.087937  0  1.144643  0  0  0.089177  0  1.145971  0  0  0.04262  0.087073  0  1.143636  0
H  H14  1  0.89572627  0.98296461  0.12198991  1  0  0.023851  0  0.946136  0  0  0.048102  0  1.010332  0  0  0.048244  0  1.010523  0  0  0.066457  0.047935  0  1.010289  0
H  H15  1  0.10427413  0.01704139  0.87800882  1  0  0.023828  0  0.946103  0  0  0.048083  0  1.010315  0  0  0.048218  0  1.01051  0  0  0.066441  0.047915  0  1.010267  0
H  H16  1  0.02102286  0.13488187  0.08232340  1  0  0.017887  0  0.976167  0  0  0.041684  0  1.042915  0  0  0.041724  0  1.042953  0  0  0.065999  0.041596  0  1.042985  0
H  H17  1  0.97897752  0.86512413  0.91767706  1  0  0.017816  0  0.976285  0  0  0.041664  0  1.042973  0  0  0.041702  0  1.043011  0  0  0.065993  0.041571  0  1.043047  0
H  H18  1  0.23151958  0.24371827  0.11871081  1  0  0.05439  0  0.951334  0  0  0.070129  0  1.015166  0  0  0.070086  0  1.015768  0  0  0.103388  0.070004  0  1.014933  0
H  H19  1  0.76848042  0.75628497  0.88128896  1  0  0.054409  0  0.951301  0  0  0.07013  0  1.01515  0  0  0.070098  0  1.01574  0  0  0.10339  0.070007  0  1.014917  0
H  H20  1  0.47072351  0.09139536  0.10487123  1  0  0.045532  0  0.957219  0  0  0.056281  0  1.030023  0  0  0.057421  0  1.028464  0  0  0.098439  0.055299  0  1.031354  0
H  H21  1  0.52927611  0.90860512  0.89512784  1  0  0.045545  0  0.957202  0  0  0.056276  0  1.030028  0  0  0.057416  0  1.028473  0  0  0.098445  0.055298  0  1.031353  0
H  H22  1  0.31037321  0.48003512  0.19806974  1  0  0.066491  0  0.974481  0  0  0.081018  0  1.044995  0  0  0.082683  0  1.044068  0  0  0.093802  0.079696  0  1.045818  0
H  H23  1  0.68962908  0.51996536  0.80192908  1  0  0.066535  0  0.974477  0  0  0.081045  0  1.044994  0  0  0.082715  0  1.044061  0  0  0.093819  0.079722  0  1.045818  0
H  H24  1  0.54132052  0.36332618  0.12741139  1  0  0.086796  0  0.940731  0  0  0.105106  0  1.000056  0  0  0.105924  0  1.000638  0  0  0.098798  0.104415  0  0.999791  0
H  H25  1  0.45868316  0.63667016  0.87259010  1  0  0.08682  0  0.940705  0  0  0.105123  0  1.000035  0  0  0.105943  0  1.000616  0  0  0.098813  0.104435  0  0.999767  0
H  H26  1  0.48262300  0.40315704  0.36499674  1  0  0.089803  0  0.951981  0  0  0.107559  0  1.013086  0  0  0.108788  0  1.012985  0  0  0.100738  0.106577  0  1.013323  0
H  H27  1  0.51737308  0.59684207  0.63500446  1  0  0.089776  0  0.952005  0  0  0.107559  0  1.013087  0  0  0.108781  0  1.012996  0  0  0.100754  0.106577  0  1.013326  0
H  H28  1  0.63731251  0.18972183  0.30557394  1  0  0.080954  0  0.936189  0  0  0.098688  0  0.996163  0  0  0.099541  0  0.996655  0  0  0.095894  0.097994  0  0.995929  0
H  H29  1  0.36268623  0.81027728  0.69442875  1  0  0.080967  0  0.936212  0  0  0.098704  0  0.996185  0  0  0.099558  0  0.996676  0  0  0.095898  0.098011  0  0.995945  0
H  H30  1  0.40914740  0.08133488  0.43345187  1  0  0.049799  0  0.948371  0  0  0.062176  0  1.020165  0  0  0.06249  0  1.019595  0  0  0.10461  0.061815  0  1.020746  0
H  H31  1  0.59085184  0.91866285  0.56654737  1  0  0.049805  0  0.94834  0  0  0.062173  0  1.020153  0  0  0.062487  0  1.019583  0  0  0.104608  0.061815  0  1.020732  0
H  H32  1  0.21822732  0.28716585  0.40701745  1  0  0.057561  0  0.922169  0  0  0.073411  0  0.983327  0  0  0.073702  0  0.983736  0  0  0.103501  0.073055  0  0.983196  0
H  H33  1  0.78177010  0.71283326  0.59298276  1  0  0.057559  0  0.92218  0  0  0.07341  0  0.983337  0  0  0.073701  0  0.983746  0  0  0.1035  0.073054  0  0.983211  0
H  H34  1  0.70733604  0.81842826  0.10483466  1  0  0.050576  0  0.939347  0  0  0.063515  0  1.006425  0  0  0.064061  0  1.005985  0  0  0.099962  0.062981  0  1.00692  0
H  H35  1  0.29266185  0.18156947  0.89516644  1  0  0.050593  0  0.93928  0  0  0.063557  0  1.00633  0  0  0.064106  0  1.005891  0  0  0.099994  0.063024  0  1.006816  0
H  H36  1  0.61291295  0.64811663  0.06979903  1  0  0.064753  0  0.939017  0  0  0.082319  0  0.999692  0  0  0.082192  0  1.000122  0  0  0.109974  0.082304  0  0.999475  0
H  H37  1  0.38708808  0.35187972  0.93020271  1  0  0.064735  0  0.93896  0  0  0.082278  0  0.999658  0  0  0.08215  0  1.000089  0  0  0.109964  0.082263  0  0.99944  0
H  H38  1  0.88286653  0.40216257  0.12604968  1  0  0.070684  0  0.968147  0  0  0.083861  0  1.036335  0  0  0.085563  0  1.035316  0  0  0.089581  0.082531  0  1.037197  0
H  H39  1  0.11713487  0.59783653  0.87395189  1  0  0.070686  0  0.968186  0  0  0.083876  0  1.036352  0  0  0.085581  0  1.035336  0  0  0.089587  0.082549  0  1.037213  0
H  H40  1  0.99587187  0.57134228  0.10105934  1  0  0.078299  0  0.96033  0  0  0.098114  0  1.018327  0  0  0.098498  0  1.019829  0  0  0.094404  0.09772  0  1.017421  0
H  H41  1  0.00412955  0.42865683  0.89894050  1  0  0.078337  0  0.960329  0  0  0.098143  0  1.018338  0  0  0.09853  0  1.01984  0  0  0.094394  0.097749  0  1.017432  0
H  H42  1  0.00466034  0.57178110  0.30590957  1  0  0.074142  0  0.966724  0  0  0.090071  0  1.033016  0  0  0.091303  0  1.032737  0  0  0.094634  0.089098  0  1.03332  0
H  H43  1  0.99534100  0.42822214  0.69408920  1  0  0.074161  0  0.966701  0  0  0.090083  0  1.032993  0  0  0.091319  0  1.032716  0  0  0.094633  0.089106  0  1.0333  0
H  H44  1  0.88903808  0.40478931  0.32766186  1  0  0.087651  0  0.953212  0  0  0.103553  0  1.013359  0  0  0.104397  0  1.014307  0  0  0.095011  0.102854  0  1.012827  0
H  H45  1  0.11096999  0.59520978  0.67233909  1  0  0.087639  0  0.953199  0  0  0.103544  0  1.013337  0  0  0.104392  0  1.014287  0  0  0.094996  0.102843  0  1.012808  0
H  H46  1  0.62874063  0.65338395  0.41525276  1  0  0.061894  0  0.946834  0  0  0.075349  0  1.014874  0  0  0.07557  0  1.01475  0  0  0.10844  0.075074  0  1.015059  0
H  H47  1  0.37126135  0.34660964  0.58474816  1  0  0.061916  0  0.946846  0  0  0.075355  0  1.014901  0  0  0.075576  0  1.014777  0  0  0.108452  0.075076  0  1.01509  0
H  H48  1  0.71806588  0.82227318  0.33636460  1  0  0.045127  0  0.930143  0  0  0.057827  0  0.998882  0  0  0.058865  0  0.997512  0  0  0.098423  0.056909  0  1.000098  0
H  H49  1  0.28193199  0.17772455  0.66363910  1  0  0.04512  0  0.930166  0  0  0.057832  0  0.998897  0  0  0.058872  0  0.997523  0  0  0.098407  0.056914  0  1.000109  0
C  C50  1  0.19009605  0.76295843  0.44685136  1  0  -0.778256  0  3.651856  0  0  -0.777894  0  3.902974  0  0  -0.791024  0  3.915979  0  0  -0.397456  -0.768276  0  3.893383  0
C  C51  1  0.80990130  0.23704481  0.55314692  1  0  -0.778341  0  3.651712  0  0  -0.777958  0  3.902902  0  0  -0.791085  0  3.915897  0  0  -0.397485  -0.768346  0  3.893311  0
C  C52  1  0.08245041  0.92713631  0.52615811  1  0  -0.012434  0  3.8057  0  0  -0.051256  0  4.06028  0  0  -0.050413  0  4.078502  0  0  -0.186245  -0.051694  0  4.047491  0
C  C53  1  0.91754696  0.07286693  0.47383844  1  0  -0.012388  0  3.805633  0  0  -0.05124  0  4.060252  0  0  -0.050395  0  4.078472  0  0  -0.186265  -0.051684  0  4.047466  0
C  C54  1  0.20186667  0.84791522  0.09515265  1  0  -0.775827  0  3.653261  0  0  -0.779416  0  3.910048  0  0  -0.792341  0  3.922776  0  0  -0.398208  -0.769881  0  3.900563  0
C  C55  1  0.79813067  0.15208803  0.90484650  1  0  -0.775873  0  3.653111  0  0  -0.779479  0  3.909912  0  0  -0.792404  0  3.922636  0  0  -0.398243  -0.769944  0  3.900431  0
C  C56  1  0.02033494  0.99654534  0.06379759  1  0  -0.009726  0  3.788149  0  0  -0.04714  0  4.042166  0  0  -0.046434  0  4.060977  0  0  -0.189842  -0.047512  0  4.029026  0
C  C57  1  0.97966459  0.00345928  0.93620215  1  0  -0.009607  0  3.788063  0  0  -0.047055  0  4.042089  0  0  -0.046343  0  4.060903  0  0  -0.189823  -0.047413  0  4.028937  0
C  C58  1  0.36068483  0.19383869  0.16101459  1  0  0.102211  0  3.554252  0  0  0.042403  0  3.820002  0  0  0.049887  0  3.825201  0  0  -0.064952  0.037443  0  3.816473  0
C  C59  1  0.63931612  0.80616180  0.83898436  1  0  0.102213  0  3.554261  0  0  0.042426  0  3.819994  0  0  0.049898  0  3.825203  0  0  -0.064952  0.037463  0  3.816464  0
C  C60  1  0.42698771  0.34760647  0.19283082  1  0  -0.147257  0  3.667971  0  0  -0.188866  0  3.9277  0  0  -0.190601  0  3.939495  0  0  -0.165556  -0.187469  0  3.919554  0
C  C61  1  0.57301372  0.65239264  0.80716901  1  0  -0.147335  0  3.66797  0  0  -0.188904  0  3.927665  0  0  -0.190642  0  3.939459  0  0  -0.165577  -0.187509  0  3.91952  0
C  C62  1  0.49121182  0.28615588  0.31359313  1  0  -0.147002  0  3.663308  0  0  -0.188809  0  3.922015  0  0  -0.190689  0  3.934481  0  0  -0.165312  -0.187351  0  3.913377  0
C  C63  1  0.50878827  0.71384323  0.68640683  1  0  -0.147021  0  3.663327  0  0  -0.188866  0  3.92205  0  0  -0.190742  0  3.934515  0  0  -0.165346  -0.187405  0  3.913408  0
C  C64  1  0.35386578  0.18947455  0.36800433  1  0  0.109698  0  3.570997  0  0  0.049282  0  3.8416  0  0  0.056704  0  3.847233  0  0  -0.061333  0.044351  0  3.837715  0
C  C65  1  0.64613431  0.81052456  0.63199563  1  0  0.109698  0  3.570997  0  0  0.049281  0  3.841616  0  0  0.056703  0  3.847247  0  0  -0.061344  0.044348  0  3.837734  0
C  C66  1  0.68933418  0.68472034  0.13209326  1  0  0.094261  0  3.567623  0  0  0.035734  0  3.833498  0  0  0.043122  0  3.839056  0  0  -0.064601  0.030824  0  3.829702  0
C  C67  1  0.31066505  0.31527739  0.86790684  1  0  0.094295  0  3.567568  0  0  0.035754  0  3.833421  0  0  0.043142  0  3.838985  0  0  -0.064619  0.030868  0  3.829623  0
C  C68  1  0.87781094  0.53759307  0.15239919  1  0  -0.144351  0  3.635589  0  0  -0.1853  0  3.893738  0  0  -0.187334  0  3.906322  0  0  -0.167752  -0.183686  0  3.885023  0
C  C69  1  0.12219047  0.46240604  0.84760151  1  0  -0.144408  0  3.635686  0  0  -0.185387  0  3.893857  0  0  -0.187432  0  3.906461  0  0  -0.167743  -0.183779  0  3.885139  0
C  C70  1  0.88312984  0.53871338  0.28588286  1  0  -0.143095  0  3.617536  0  0  -0.181939  0  3.871086  0  0  -0.18389  0  3.883446  0  0  -0.166237  -0.18041  0  3.862492  0
C  C71  1  0.11687197  0.46128849  0.71411681  1  0  -0.143074  0  3.617427  0  0  -0.181929  0  3.870993  0  0  -0.183894  0  3.883375  0  0  -0.166216  -0.180387  0  3.86239  0
C  C72  1  0.69823198  0.68800643  0.33108021  1  0  0.100988  0  3.563714  0  0  0.041637  0  3.832744  0  0  0.049314  0  3.837294  0  0  -0.06269  0.036511  0  3.829679  0
C  C73  1  0.30177265  0.31198715  0.66892133  1  0  0.10097  0  3.563817  0  0  0.041612  0  3.832767  0  0  0.049293  0  3.837319  0  0  -0.062673  0.036507  0  3.829703  0
O  O74  1  0.31965119  0.10012730  0.27121770  1  0  -0.370038  0  2.269537  0  0  -0.281173  0  2.504298  0  0  -0.296944  0  2.503296  0  0  -0.259916  -0.270353  0  2.505005  0
O  O75  1  0.68034757  0.89987181  0.72878152  1  0  -0.370024  0  2.269547  0  0  -0.281163  0  2.504301  0  0  -0.296935  0  2.503307  0  0  -0.259904  -0.270342  0  2.505007  0
O  O76  1  0.57252565  0.70363971  0.24476968  1  0  -0.36309  0  2.309666  0  0  -0.276022  0  2.548089  0  0  -0.291912  0  2.547811  0  0  -0.254437  -0.265086  0  2.548195  0
O  O77  1  0.42747406  0.29635664  0.75523045  1  0  -0.363127  0  2.309791  0  0  -0.276001  0  2.548157  0  0  -0.291892  0  2.547876  0  0  -0.254471  -0.265127  0  2.548304  0
