# generated using pymatgen
data_TbH5(C3O2)3
_symmetry_space_group_name_H-M   'P 1'
_cell_length_a   6.61359350
_cell_length_b   10.70970585
_cell_length_c   12.93288740
_cell_angle_alpha   90.00003627
_cell_angle_beta   90.00022383
_cell_angle_gamma   95.42473575
_symmetry_Int_Tables_number   1
_chemical_formula_structural   TbH5(C3O2)3
_chemical_formula_sum   'Tb4 H20 C36 O24'
_cell_volume   911.92908858
_cell_formula_units_Z   4
loop_
 _symmetry_equiv_pos_site_id
 _symmetry_equiv_pos_as_xyz
  1  'x, y, z'
loop_
 _atom_site_type_symbol
 _atom_site_label
 _atom_site_symmetry_multiplicity
 _atom_site_fract_x
 _atom_site_fract_y
 _atom_site_fract_z
 _atom_site_occupancy
 _atom_site_hle17_bader_spin_density
 _atom_site_hle17_ddec_charge
 _atom_site_hle17_ddec_spin_density
 _atom_site_hle17_ddec_sum_bond_order
 _atom_site_hle17_magmom
 _atom_site_hse06_10hf_bader_spin_density
 _atom_site_hse06_10hf_ddec_charge
 _atom_site_hse06_10hf_ddec_spin_density
 _atom_site_hse06_10hf_ddec_sum_bond_order
 _atom_site_hse06_10hf_magmom
 _atom_site_hse06_bader_spin_density
 _atom_site_hse06_ddec_charge
 _atom_site_hse06_ddec_spin_density
 _atom_site_hse06_ddec_sum_bond_order
 _atom_site_hse06_magmom
 _atom_site_pbe_bader_spin_density
 _atom_site_pbe_cm5_charge
 _atom_site_pbe_ddec_charge
 _atom_site_pbe_ddec_spin_density
 _atom_site_pbe_ddec_sum_bond_order
 _atom_site_pbe_magmom
Tb  Tb0  1  0.10020460  0.42570503  0.87299629  1  0  2.285695  0  1.673964  0  0  2.143235  0  2.140705  0  0  2.262237  0  1.967919  0  0  1.538683  2.105653  0  2.174961  0
Tb  Tb1  1  0.39979515  0.57429500  0.37299691  1  0  2.285692  0  1.673961  0  0  2.143218  0  2.140744  0  0  2.262237  0  1.967924  0  0  1.538655  2.105638  0  2.174988  0
Tb  Tb2  1  0.89979671  0.57429523  0.12700362  1  0  2.285691  0  1.673959  0  0  2.143231  0  2.140709  0  0  2.262236  0  1.967917  0  0  1.538681  2.105647  0  2.174968  0
Tb  Tb3  1  0.60020465  0.42570526  0.62700300  1  0  2.28571  0  1.673947  0  0  2.143227  0  2.140734  0  0  2.26225  0  1.967907  0  0  1.538655  2.105648  0  2.174987  0
H  H4  1  0.75479404  0.15649911  0.49790894  1  0  0.100613  0  0.945333  0  0  0.108865  0  1.007379  0  0  0.112062  0  1.006211  0  0  0.110234  0.106446  0  1.008797  0
H  H5  1  0.74520404  0.84350088  0.99790882  1  0  0.100622  0  0.945298  0  0  0.108852  0  1.007373  0  0  0.112049  0  1.006206  0  0  0.110212  0.106427  0  1.008795  0
H  H6  1  0.24520727  0.84350114  0.50209174  1  0  0.100607  0  0.945305  0  0  0.108874  0  1.007331  0  0  0.112077  0  1.006162  0  0  0.110228  0.106453  0  1.008754  0
H  H7  1  0.25479575  0.15649937  0.00209031  1  0  0.100592  0  0.945333  0  0  0.108839  0  1.007389  0  0  0.112036  0  1.006223  0  0  0.110211  0.106414  0  1.00881  0
H  H8  1  0.65532896  0.93370579  0.44558739  1  0  0.106435  0  0.954143  0  0  0.113746  0  1.018656  0  0  0.117238  0  1.01679  0  0  0.107479  0.111401  0  1.01978  0
H  H9  1  0.84467008  0.06629321  0.94558784  1  0  0.106445  0  0.954143  0  0  0.113747  0  1.018665  0  0  0.117238  0  1.016799  0  0  0.107489  0.111403  0  1.01979  0
H  H10  1  0.34467221  0.06629353  0.55441252  1  0  0.106425  0  0.954157  0  0  0.113737  0  1.018669  0  0  0.117229  0  1.016802  0  0  0.107478  0.111392  0  1.019794  0
H  H11  1  0.15533123  0.93370705  0.05441284  1  0  0.106455  0  0.954117  0  0  0.113766  0  1.018629  0  0  0.117257  0  1.016763  0  0  0.107486  0.11142  0  1.019762  0
H  H12  1  0.90945254  0.80459864  0.72715505  1  0  0.101561  0  0.941429  0  0  0.111498  0  1.000572  0  0  0.114969  0  0.998537  0  0  0.105009  0.109238  0  1.001628  0
H  H13  1  0.59054960  0.19540196  0.22715409  1  0  0.101581  0  0.941423  0  0  0.111506  0  1.000579  0  0  0.114977  0  0.998541  0  0  0.105022  0.109229  0  1.001654  0
H  H14  1  0.09054711  0.19540067  0.27284563  1  0  0.1016  0  0.941408  0  0  0.111521  0  1.000568  0  0  0.114993  0  0.998528  0  0  0.105009  0.109246  0  1.00164  0
H  H15  1  0.40945005  0.80459735  0.77284582  1  0  0.101596  0  0.941402  0  0  0.111523  0  1.000556  0  0  0.114994  0  0.998518  0  0  0.105024  0.109246  0  1.001627  0
H  H16  1  0.01354644  0.02729760  0.77841707  1  0  0.098476  0  0.972678  0  0  0.106172  0  1.038982  0  0  0.108601  0  1.038996  0  0  0.10354  0.104511  0  1.038806  0
H  H17  1  0.48645284  0.97270419  0.27841652  1  0  0.098378  0  0.972745  0  0  0.106099  0  1.039023  0  0  0.108527  0  1.039036  0  0  0.10351  0.104436  0  1.038855  0
H  H18  1  0.98645170  0.97270171  0.22158284  1  0  0.098388  0  0.972723  0  0  0.106116  0  1.038996  0  0  0.108547  0  1.039001  0  0  0.103522  0.104459  0  1.038822  0
H  H19  1  0.51354530  0.02729513  0.72158261  1  0  0.09838  0  0.972747  0  0  0.106095  0  1.039034  0  0  0.108523  0  1.039046  0  0  0.103515  0.104434  0  1.038864  0
H  H20  1  0.56877034  0.58320316  0.86723165  1  0  0.046227  0  0.910854  0  0  0.053422  0  0.977303  0  0  0.054597  0  0.972364  0  0  0.140534  0.052049  0  0.981615  0
H  H21  1  0.93122865  0.41679949  0.36723071  1  0  0.046271  0  0.910888  0  0  0.053455  0  0.977337  0  0  0.05463  0  0.972397  0  0  0.140549  0.052079  0  0.981654  0
H  H22  1  0.43122946  0.41679709  0.13276903  1  0  0.046277  0  0.910837  0  0  0.053515  0  0.977239  0  0  0.054691  0  0.9723  0  0  0.140567  0.052132  0  0.981557  0
H  H23  1  0.06877129  0.58320170  0.63276843  1  0  0.046275  0  0.91084  0  0  0.053471  0  0.97728  0  0  0.054648  0  0.972341  0  0  0.140559  0.052098  0  0.981601  0
C  C24  1  0.89088567  0.10495221  0.64108668  1  0  -0.059291  0  3.713098  0  0  -0.036947  0  3.943428  0  0  -0.042803  0  3.962311  0  0  -0.004813  -0.032558  0  3.929964  0
C  C25  1  0.60911097  0.89504641  0.14108689  1  0  -0.059313  0  3.713031  0  0  -0.037029  0  3.943437  0  0  -0.042888  0  3.96232  0  0  -0.00487  -0.032623  0  3.929938  0
C  C26  1  0.10911384  0.89504617  0.35891400  1  0  -0.05935  0  3.713121  0  0  -0.037021  0  3.943474  0  0  -0.042879  0  3.962359  0  0  -0.004856  -0.032628  0  3.929994  0
C  C27  1  0.39088717  0.10495290  0.85891225  1  0  -0.059313  0  3.712997  0  0  -0.037062  0  3.943452  0  0  -0.04292  0  3.962334  0  0  -0.004868  -0.032657  0  3.929948  0
C  C28  1  0.78946642  0.07895546  0.54722122  1  0  -0.065761  0  3.732844  0  0  -0.090889  0  3.987119  0  0  -0.091756  0  4.006996  0  0  -0.075435  -0.090211  0  3.973595  0
C  C29  1  0.71053444  0.92104586  0.04722010  1  0  -0.065718  0  3.732773  0  0  -0.090809  0  3.987053  0  0  -0.091677  0  4.006929  0  0  -0.075379  -0.090121  0  3.973522  0
C  C30  1  0.21053488  0.92104480  0.45277946  1  0  -0.065711  0  3.732839  0  0  -0.090844  0  3.987101  0  0  -0.091716  0  4.006985  0  0  -0.075415  -0.090167  0  3.973584  0
C  C31  1  0.28946535  0.07895439  0.95277904  1  0  -0.065673  0  3.732795  0  0  -0.09077  0  3.98708  0  0  -0.091638  0  4.006959  0  0  -0.07536  -0.09008  0  3.973546  0
C  C32  1  0.73301544  0.95576612  0.51839565  1  0  -0.069039  0  3.733378  0  0  -0.089877  0  3.981265  0  0  -0.091115  0  4.002271  0  0  -0.078458  -0.088782  0  3.966098  0
C  C33  1  0.76698355  0.04423422  0.01839574  1  0  -0.069111  0  3.733426  0  0  -0.089925  0  3.981337  0  0  -0.091158  0  4.002342  0  0  -0.078474  -0.088837  0  3.966174  0
C  C34  1  0.26698573  0.04423319  0.48160425  1  0  -0.069091  0  3.733428  0  0  -0.089924  0  3.98133  0  0  -0.091164  0  4.002339  0  0  -0.078494  -0.088829  0  3.966164  0
C  C35  1  0.23301639  0.95576697  0.98160417  1  0  -0.069139  0  3.733416  0  0  -0.08995  0  3.98132  0  0  -0.091186  0  4.002325  0  0  -0.078485  -0.088864  0  3.966166  0
C  C36  1  0.77491197  0.85654449  0.58338889  1  0  -0.066242  0  3.732731  0  0  -0.044469  0  3.960855  0  0  -0.051293  0  3.98232  0  0  -0.01316  -0.038991  0  3.944748  0
C  C37  1  0.72508904  0.14345593  0.08338894  1  0  -0.066086  0  3.732687  0  0  -0.04439  0  3.960877  0  0  -0.051225  0  3.982338  0  0  -0.01311  -0.038916  0  3.944773  0
C  C38  1  0.22508769  0.14345482  0.41661102  1  0  -0.06615  0  3.732757  0  0  -0.0444  0  3.960891  0  0  -0.051226  0  3.982355  0  0  -0.013113  -0.038922  0  3.944783  0
C  C39  1  0.27491075  0.85654432  0.91661097  1  0  -0.066077  0  3.732648  0  0  -0.04438  0  3.960855  0  0  -0.051207  0  3.982316  0  0  -0.013107  -0.038904  0  3.944751  0
C  C40  1  0.87734077  0.88220730  0.67709816  1  0  -0.07478  0  3.728176  0  0  -0.096701  0  3.977482  0  0  -0.098087  0  3.997872  0  0  -0.082461  -0.095489  0  3.962761  0
C  C41  1  0.62265975  0.11779512  0.17709722  1  0  -0.074856  0  3.728128  0  0  -0.09675  0  3.977468  0  0  -0.098132  0  3.997854  0  0  -0.082534  -0.09552  0  3.962753  0
C  C42  1  0.12265903  0.11779296  0.32290252  1  0  -0.07485  0  3.728194  0  0  -0.096751  0  3.977507  0  0  -0.098139  0  3.997899  0  0  -0.082478  -0.095526  0  3.962794  0
C  C43  1  0.37733853  0.88220513  0.82290269  1  0  -0.074895  0  3.728166  0  0  -0.096789  0  3.977496  0  0  -0.098173  0  3.997882  0  0  -0.082548  -0.095563  0  3.962781  0
C  C44  1  0.93555108  0.00579294  0.70555180  1  0  -0.061717  0  3.708855  0  0  -0.084727  0  3.957225  0  0  -0.085367  0  3.977543  0  0  -0.077658  -0.084027  0  3.942662  0
C  C45  1  0.56444801  0.99420857  0.20555043  1  0  -0.061648  0  3.708726  0  0  -0.084664  0  3.957124  0  0  -0.085303  0  3.97744  0  0  -0.07762  -0.083971  0  3.942563  0
C  C46  1  0.06444857  0.99420637  0.29444965  1  0  -0.061625  0  3.708774  0  0  -0.084659  0  3.95714  0  0  -0.085298  0  3.97746  0  0  -0.077623  -0.083961  0  3.942578  0
C  C47  1  0.43555028  0.00579168  0.79444870  1  0  -0.061646  0  3.708766  0  0  -0.084638  0  3.957149  0  0  -0.085279  0  3.977467  0  0  -0.077615  -0.083946  0  3.942589  0
C  C48  1  0.94058472  0.23803708  0.67421625  1  0  0.737601  0  3.825166  0  0  0.687365  0  4.119073  0  0  0.724111  0  4.111087  0  0  0.240654  0.661921  0  4.127747  0
C  C49  1  0.55941262  0.76196439  0.17421630  1  0  0.737623  0  3.825126  0  0  0.68744  0  4.118983  0  0  0.724189  0  4.110988  0  0  0.24068  0.661983  0  4.127674  0
C  C50  1  0.05941508  0.76196317  0.32578443  1  0  0.73768  0  3.82526  0  0  0.687469  0  4.119129  0  0  0.724216  0  4.11114  0  0  0.240713  0.662029  0  4.127799  0
C  C51  1  0.44058567  0.23803586  0.82578284  1  0  0.737718  0  3.824921  0  0  0.687516  0  4.118823  0  0  0.724269  0  4.11082  0  0  0.2407  0.66207  0  4.127503  0
C  C52  1  0.70507527  0.72533132  0.55116165  1  0  0.726076  0  3.83061  0  0  0.681206  0  4.119504  0  0  0.717478  0  4.111068  0  0  0.236233  0.656507  0  4.127156  0
C  C53  1  0.79492672  0.27466719  0.05116268  1  0  0.725876  0  3.830834  0  0  0.681066  0  4.119666  0  0  0.717358  0  4.111197  0  0  0.236129  0.656359  0  4.127328  0
C  C54  1  0.29492287  0.27466799  0.44883826  1  0  0.726075  0  3.830621  0  0  0.681214  0  4.119507  0  0  0.717495  0  4.111053  0  0  0.236205  0.656509  0  4.127166  0
C  C55  1  0.20507294  0.72533213  0.94883800  1  0  0.725979  0  3.830666  0  0  0.681133  0  4.119563  0  0  0.717412  0  4.111114  0  0  0.236172  0.656431  0  4.127219  0
C  C56  1  0.71578684  0.54216423  0.86862513  1  0  0.662242  0  3.804205  0  0  0.592642  0  4.108657  0  0  0.628662  0  4.103406  0  0  0.182916  0.567795  0  4.119073  0
C  C57  1  0.78421353  0.45783748  0.36862314  1  0  0.662182  0  3.804264  0  0  0.592599  0  4.108698  0  0  0.628619  0  4.103447  0  0  0.182863  0.567754  0  4.119117  0
C  C58  1  0.28421584  0.45783509  0.13137555  1  0  0.662207  0  3.804152  0  0  0.592573  0  4.108628  0  0  0.628592  0  4.103378  0  0  0.182864  0.567733  0  4.11904  0
C  C59  1  0.21578777  0.54216277  0.63137676  1  0  0.662179  0  3.804236  0  0  0.592588  0  4.108676  0  0  0.628606  0  4.103428  0  0  0.182852  0.567739  0  4.119102  0
O  O60  1  0.03173552  0.25931562  0.75918865  1  0  -0.707703  0  2.060832  0  0  -0.657845  0  2.321584  0  0  -0.692699  0  2.309263  0  0  -0.381158  -0.640219  0  2.328562  0
O  O61  1  0.46826031  0.74068426  0.25918794  1  0  -0.707702  0  2.060788  0  0  -0.657856  0  2.32152  0  0  -0.692712  0  2.309193  0  0  -0.381168  -0.640233  0  2.328507  0
O  O62  1  0.96826400  0.74068276  0.24081204  1  0  -0.707723  0  2.060909  0  0  -0.657875  0  2.321651  0  0  -0.692729  0  2.309326  0  0  -0.381173  -0.640254  0  2.32863  0
O  O63  1  0.53174085  0.25931505  0.74081042  1  0  -0.707748  0  2.060648  0  0  -0.657875  0  2.321374  0  0  -0.692734  0  2.309044  0  0  -0.381164  -0.640254  0  2.328357  0
O  O64  1  0.88309520  0.32492735  0.61536934  1  0  -0.766761  0  2.016479  0  0  -0.716626  0  2.281626  0  0  -0.753084  0  2.266073  0  0  -0.430342  -0.69733  0  2.290545  0
O  O65  1  0.61690469  0.67507406  0.11537100  1  0  -0.766774  0  2.016512  0  0  -0.716614  0  2.281555  0  0  -0.75307  0  2.266  0  0  -0.430311  -0.697319  0  2.290489  0
O  O66  1  0.11690460  0.67507291  0.38463211  1  0  -0.766792  0  2.01651  0  0  -0.716654  0  2.281621  0  0  -0.753111  0  2.26607  0  0  -0.430344  -0.697359  0  2.290536  0
O  O67  1  0.38309510  0.32492620  0.88462890  1  0  -0.76685  0  2.016517  0  0  -0.716677  0  2.281552  0  0  -0.753132  0  2.265995  0  0  -0.430343  -0.697387  0  2.290486  0
O  O68  1  0.62151615  0.71172976  0.46272655  1  0  -0.724005  0  2.055307  0  0  -0.675946  0  2.313808  0  0  -0.710908  0  2.300215  0  0  -0.402518  -0.658543  0  2.321141  0
O  O69  1  0.87848633  0.28827113  0.96272718  1  0  -0.723935  0  2.055274  0  0  -0.675899  0  2.313746  0  0  -0.710864  0  2.30014  0  0  -0.402513  -0.658494  0  2.321085  0
O  O70  1  0.37848213  0.28827049  0.53727413  1  0  -0.724008  0  2.055257  0  0  -0.675952  0  2.313756  0  0  -0.710917  0  2.300154  0  0  -0.402519  -0.658548  0  2.321093  0
O  O71  1  0.12151361  0.71173006  0.03727350  1  0  -0.724012  0  2.055321  0  0  -0.675957  0  2.313806  0  0  -0.71092  0  2.300209  0  0  -0.402528  -0.658553  0  2.321147  0
O  O72  1  0.72984530  0.63608290  0.61433547  1  0  -0.747746  0  2.023172  0  0  -0.699765  0  2.278163  0  0  -0.734479  0  2.263353  0  0  -0.401254  -0.681149  0  2.285811  0
O  O73  1  0.77016186  0.36391664  0.11433650  1  0  -0.747644  0  2.023284  0  0  -0.699668  0  2.278226  0  0  -0.734389  0  2.263411  0  0  -0.401159  -0.681044  0  2.28587  0
O  O74  1  0.27015435  0.36391642  0.38566521  1  0  -0.747733  0  2.023162  0  0  -0.699741  0  2.278138  0  0  -0.734459  0  2.263324  0  0  -0.401204  -0.681123  0  2.285786  0
O  O75  1  0.22983794  0.63608362  0.88566418  1  0  -0.747683  0  2.023244  0  0  -0.699695  0  2.278205  0  0  -0.734409  0  2.263396  0  0  -0.401181  -0.681076  0  2.28585  0
O  O76  1  0.77987575  0.48945429  0.78806158  1  0  -0.754898  0  2.123895  0  0  -0.701642  0  2.39929  0  0  -0.743449  0  2.385817  0  0  -0.398595  -0.683781  0  2.407268  0
O  O77  1  0.72012592  0.51055014  0.28806027  1  0  -0.754865  0  2.124025  0  0  -0.701605  0  2.399399  0  0  -0.743415  0  2.385933  0  0  -0.398559  -0.683743  0  2.407372  0
O  O78  1  0.22012390  0.51054502  0.21193756  1  0  -0.754853  0  2.123878  0  0  -0.701603  0  2.399307  0  0  -0.743407  0  2.38583  0  0  -0.398578  -0.683738  0  2.407278  0
O  O79  1  0.27987402  0.48945106  0.71193964  1  0  -0.754843  0  2.124012  0  0  -0.701575  0  2.399368  0  0  -0.743384  0  2.385903  0  0  -0.398542  -0.683715  0  2.407351  0
O  O80  1  0.82172741  0.54888337  0.95038424  1  0  -0.766986  0  2.2307  0  0  -0.702747  0  2.495221  0  0  -0.744955  0  2.48182  0  0  -0.419443  -0.684465  0  2.502964  0
O  O81  1  0.67826850  0.45111469  0.45038050  1  0  -0.767008  0  2.23062  0  0  -0.702764  0  2.495141  0  0  -0.744976  0  2.481737  0  0  -0.419428  -0.684487  0  2.502886  0
O  O82  1  0.17827361  0.45111501  0.04961566  1  0  -0.767043  0  2.230632  0  0  -0.702808  0  2.495186  0  0  -0.745018  0  2.481785  0  0  -0.419435  -0.68452  0  2.502922  0
O  O83  1  0.32173267  0.54888463  0.54961787  1  0  -0.767033  0  2.230641  0  0  -0.70279  0  2.495166  0  0  -0.745002  0  2.481762  0  0  -0.419442  -0.684505  0  2.502907  0
