# generated using pymatgen
data_AlH24C45(NO4)3
_symmetry_space_group_name_H-M   'P 1'
_cell_length_a   3.97377745
_cell_length_b   23.49953328
_cell_length_c   23.53429156
_cell_angle_alpha   59.98189031
_cell_angle_beta   86.72111954
_cell_angle_gamma   86.35120216
_symmetry_Int_Tables_number   1
_chemical_formula_structural   AlH24C45(NO4)3
_chemical_formula_sum   'Al1 H24 C45 N3 O12'
_cell_volume   1898.22161527
_cell_formula_units_Z   1
loop_
 _symmetry_equiv_pos_site_id
 _symmetry_equiv_pos_as_xyz
  1  'x, y, z'
loop_
 _atom_site_type_symbol
 _atom_site_label
 _atom_site_symmetry_multiplicity
 _atom_site_fract_x
 _atom_site_fract_y
 _atom_site_fract_z
 _atom_site_occupancy
 _atom_site_pbe_bader_charge
 _atom_site_pbe_bader_spin_density
 _atom_site_pbe_cm5_charge
 _atom_site_pbe_ddec_charge
 _atom_site_pbe_ddec_spin_density
 _atom_site_pbe_ddec_sum_bond_order
 _atom_site_pbe_magmom
Al  Al0  1  0.01957354  0.49894737  0.50059639  1  2.505824  0  0.426367  1.603075  0  2.563658  0
H  H1  1  0.46283280  0.32745204  0.67927955  1  0.127006  0  0.121692  0.133638  0  0.961034  0
H  H2  1  0.44580534  0.26315289  0.80076758  1  0.0632  0  0.107856  0.10631  0  0.992651  0
H  H3  1  0.78783692  0.22726268  0.89014165  1  0.059097  0  0.100674  0.098486  0  1.005543  0
H  H4  1  0.81586429  0.16570663  0.01057267  1  0.023132  0  0.099952  0.099839  0  1.003493  0
H  H5  1  0.50330749  0.80534727  0.25055685  1  0.068964  0  0.114629  0.124668  0  1.003331  0
H  H6  1  0.23265455  0.89980775  0.22026803  1  0.075833  0  0.103009  0.104778  0  0.997181  0
H  H7  1  0.25157818  0.01982177  0.16204119  1  0.059713  0  0.100049  0.099646  0  1.00854  0
H  H8  1  0.52649518  0.10637835  0.10492049  1  0.055191  0  0.09762  0.093611  0  1.034247  0
H  H9  1  0.49040174  0.67742674  0.49405672  1  0.123428  0  0.120477  0.132066  0  0.967806  0
H  H10  1  0.47388900  0.79902429  0.43748229  1  0.067101  0  0.107726  0.10591  0  0.994667  0
H  H11  1  0.76589451  0.88914232  0.38000472  1  0.088572  0  0.100498  0.098087  0  1.0083  0
H  H12  1  0.78936154  0.00920168  0.32122255  1  0.0592  0  0.100046  0.099859  0  1.00559  0
H  H13  1  0.58848326  0.25105239  0.44096300  1  0.130943  0  0.113848  0.123498  0  1.006903  0
H  H14  1  0.26095018  0.22361342  0.38375092  1  0.056002  0  0.102924  0.10501  0  0.996744  0
H  H15  1  0.26420612  0.16438016  0.32249605  1  0.075192  0  0.100363  0.099681  0  1.005508  0
H  H16  1  0.54388395  0.10466063  0.28829240  1  0.015905  0  0.09785  0.094283  0  1.033468  0
H  H17  1  0.51364229  0.49510106  0.32734475  1  0.102331  0  0.12089  0.132948  0  0.965512  0
H  H18  1  0.48982433  0.43870298  0.26262702  1  0.100717  0  0.108197  0.107054  0  0.991936  0
H  H19  1  0.81197415  0.37861553  0.22393574  1  0.068692  0  0.100488  0.098627  0  1.004929  0
H  H20  1  0.82235967  0.31849572  0.16334359  1  0.052319  0  0.099358  0.098868  0  1.00684  0
H  H21  1  0.51461141  0.44285509  0.80661710  1  0.122747  0  0.114286  0.124288  0  1.004131  0
H  H22  1  0.19931241  0.38257965  0.90029400  1  0.058658  0  0.103455  0.105839  0  0.994502  0
H  H23  1  0.22205957  0.32039767  0.02070094  1  0.04888  0  0.099607  0.098755  0  1.00635  0
H  H24  1  0.54195069  0.28825068  0.10629214  1  0.077358  0  0.097863  0.093831  0  1.033717  0
C  C25  1  0.50418894  0.45629081  0.60072855  1  1.658879  0  0.279529  0.657018  0  4.098265  0
C  C26  1  0.55418800  0.44246890  0.45670608  1  1.634772  0  0.280377  0.65874  0  4.100322  0
C  C27  1  0.50343563  0.59928779  0.44319888  1  1.608384  0  0.280497  0.658721  0  4.092448  0
C  C28  1  0.47354414  0.35227266  0.70777584  1  0.11297  0  -0.070116  -0.076535  0  3.937565  0
C  C29  1  0.46617488  0.31638436  0.77605307  1  -0.071499  0  -0.076337  -0.113712  0  3.958774  0
C  C30  1  0.65779899  0.24744669  0.91866674  1  -0.105015  0  -0.09029  -0.126534  0  3.998987  0
C  C31  1  0.67292434  0.21259435  0.98676930  1  0.0078  0  -0.090345  -0.124129  0  3.99233  0
C  C32  1  0.49336338  0.71073849  0.33661586  1  0.088756  0  0.082593  0.056031  0  3.927173  0
C  C33  1  0.49088157  0.77901239  0.30397226  1  0.109145  0  -0.077815  -0.171932  0  3.947772  0
C  C34  1  0.36145906  0.92335802  0.24226896  1  -0.033384  0  -0.088414  -0.120964  0  3.990145  0
C  C35  1  0.37261326  0.99146799  0.20920710  1  -0.047774  0  -0.090657  -0.126375  0  3.994617  0
C  C36  1  0.49329959  0.42087411  0.67432221  1  -0.101124  0  0.008454  -0.052973  0  3.911673  0
C  C37  1  0.48187221  0.34744892  0.81368136  1  -0.045422  0  -0.00286  0.077574  0  4.006996  0
C  C38  1  0.49171610  0.30966869  0.88595641  1  -0.053457  0  -0.010521  0.056671  0  4.012952  0
C  C39  1  0.52112838  0.23827606  0.02505334  1  0.0699  0  -0.007592  0.065192  0  3.996893  0
C  C40  1  0.53431828  0.20141720  0.09740677  1  -0.105962  0  -0.007182  0.081083  0  4.025501  0
C  C41  1  0.53316584  0.13257337  0.13212520  1  0.031939  0  -0.088567  -0.176297  0  3.932269  0
C  C42  1  0.49151141  0.70622781  0.44056218  1  -0.120218  0  -0.069349  -0.072904  0  3.937338  0
C  C43  1  0.48438905  0.77457399  0.40839570  1  0.093304  0  -0.078887  -0.115929  0  3.960045  0
C  C44  1  0.64634024  0.91757757  0.33264955  1  -0.122214  0  -0.090529  -0.126863  0  3.997987  0
C  C45  1  0.65893516  0.98576093  0.29931484  1  0.01459  0  -0.089883  -0.124058  0  3.990024  0
C  C46  1  0.57422963  0.33692851  0.45024854  1  0.145194  0  0.081063  0.053087  0  3.930621  0
C  C47  1  0.56455202  0.30452063  0.41464835  1  -0.053116  0  -0.079533  -0.175814  0  3.95485  0
C  C48  1  0.38942086  0.24427276  0.33572739  1  -0.012924  0  -0.089238  -0.12359  0  3.990802  0
C  C49  1  0.39292882  0.21057277  0.30118917  1  -0.100896  0  -0.089901  -0.122852  0  3.993348  0
C  C50  1  0.49733636  0.67279560  0.40512244  1  0.101592  0  0.005884  -0.059001  0  3.916687  0
C  C51  1  0.48911887  0.81242305  0.33942970  1  -0.07756  0  -0.001222  0.07753  0  4.003629  0
C  C52  1  0.49822935  0.88479275  0.30478149  1  0.033094  0  -0.010144  0.058442  0  4.00951  0
C  C53  1  0.52283237  0.02437742  0.23672260  1  -0.082047  0  -0.0069  0.067574  0  3.990188  0
C  C54  1  0.53488234  0.09687562  0.20093089  1  0.012355  0  -0.007129  0.079019  0  4.021273  0
C  C55  1  0.54268902  0.13169545  0.23482593  1  -0.026849  0  -0.088402  -0.174819  0  3.927637  0
C  C56  1  0.53135409  0.44154132  0.35167186  1  0.027788  0  -0.06881  -0.07369  0  3.932418  0
C  C57  1  0.51917667  0.40951350  0.31559373  1  0.010031  0  -0.076301  -0.11394  0  3.954297  0
C  C58  1  0.68553279  0.33211880  0.24535884  1  -0.075809  0  -0.089473  -0.125693  0  3.997923  0
C  C59  1  0.69131481  0.29803111  0.21108872  1  -0.034491  0  -0.090699  -0.124494  0  3.991686  0
C  C60  1  0.49933775  0.45159327  0.71207942  1  0.139092  0  0.079679  0.050767  0  3.928515  0
C  C61  1  0.49513621  0.41612390  0.78031340  1  0.157662  0  -0.078382  -0.172136  0  3.94915  0
C  C62  1  0.33974258  0.33539880  0.92417504  1  0.024144  0  -0.088701  -0.1221  0  3.989523  0
C  C63  1  0.35341850  0.30033883  0.99221987  1  -0.101266  0  -0.089749  -0.123581  0  3.993046  0
C  C64  1  0.55981125  0.40559835  0.41999966  1  0.064012  0  0.007618  -0.054344  0  3.914327  0
C  C65  1  0.53791238  0.34044860  0.34623947  1  -0.042525  0  -0.001696  0.079622  0  4.002672  0
C  C66  1  0.53591090  0.30575500  0.30858488  1  -0.038724  0  -0.010567  0.058556  0  4.010672  0
C  C67  1  0.54481332  0.23652823  0.23815284  1  0.008773  0  -0.007334  0.064161  0  3.997417  0
C  C68  1  0.54552966  0.20056672  0.20157610  1  -0.012306  0  -0.00688  0.081075  0  4.022402  0
C  C69  1  0.54171284  0.23467753  0.13282123  1  -0.019538  0  -0.089258  -0.178434  0  3.935565  0
N  N70  1  0.62046642  0.29606224  0.52165081  1  0.399208  0  0.059689  0.515946  0  4.205649  0
N  N71  1  0.53082470  0.52345540  0.68035855  1  0.380088  0  0.058959  0.51321  0  4.206184  0
N  N72  1  0.51657266  0.67920959  0.29567173  1  0.403927  0  0.059663  0.518362  0  4.204029  0
O  O73  1  0.27636502  0.56950184  0.43384530  1  -1.251665  0  -0.230775  -0.588246  0  2.396951  0
O  O74  1  0.25998199  0.49557429  0.57052607  1  -1.251334  0  -0.23012  -0.588222  0  2.410563  0
O  O75  1  0.30987463  0.43324951  0.49722994  1  -1.251159  0  -0.232436  -0.595277  0  2.415967  0
O  O76  1  0.73153524  0.57253555  0.48559162  1  -1.241765  0  -0.226334  -0.580857  0  2.397324  0
O  O77  1  0.78342765  0.48343250  0.44105419  1  -1.229463  0  -0.224968  -0.574286  0  2.375583  0
O  O78  1  0.75321655  0.44006137  0.57474377  1  -1.249296  0  -0.226478  -0.576208  0  2.381353  0
O  O79  1  0.76211916  0.32105753  0.54894915  1  -0.437498  0  -0.114029  -0.303808  0  1.947079  0
O  O80  1  0.51956548  0.23923026  0.54927896  1  -0.451554  0  -0.143994  -0.340816  0  1.875036  0
O  O81  1  0.66602244  0.55165997  0.62480850  1  -0.438251  0  -0.112053  -0.301328  0  1.952738  0
O  O82  1  0.42399896  0.55060656  0.71182168  1  -0.441347  0  -0.144445  -0.34116  0  1.871341  0
O  O83  1  0.68131338  0.62640328  0.31687373  1  -0.441506  0  -0.113952  -0.304124  0  1.938922  0
O  O84  1  0.37413468  0.70857725  0.24230355  1  -0.454444  0  -0.144483  -0.34301  0  1.873788  0
