# generated using pymatgen
data_Zn4H34C59N4(ClO13)2
_symmetry_space_group_name_H-M   'P 1'
_cell_length_a   9.76665343
_cell_length_b   11.06974232
_cell_length_c   21.83451666
_cell_angle_alpha   90.26643614
_cell_angle_beta   89.02449343
_cell_angle_gamma   90.33220762
_symmetry_Int_Tables_number   1
_chemical_formula_structural   Zn4H34C59N4(ClO13)2
_chemical_formula_sum   'Zn4 H34 C59 N4 Cl2 O26'
_cell_volume   2360.21801984
_cell_formula_units_Z   1
loop_
 _symmetry_equiv_pos_site_id
 _symmetry_equiv_pos_as_xyz
  1  'x, y, z'
loop_
 _atom_site_type_symbol
 _atom_site_label
 _atom_site_symmetry_multiplicity
 _atom_site_fract_x
 _atom_site_fract_y
 _atom_site_fract_z
 _atom_site_occupancy
 _atom_site_pbe_bader_charge
 _atom_site_pbe_bader_spin_density
 _atom_site_pbe_cm5_charge
 _atom_site_pbe_ddec_charge
 _atom_site_pbe_ddec_spin_density
 _atom_site_pbe_ddec_sum_bond_order
 _atom_site_pbe_magmom
Zn  Zn0  1  0.65616089  0.47420202  0.48854491  1  1.293037  0  0.676574  0.833774  0  2.32424  0
Zn  Zn1  1  0.37257828  0.47242059  0.50004278  1  1.292435  0  0.673684  0.813207  0  2.460322  0
Zn  Zn2  1  0.33721984  0.52506279  0.99631209  1  1.287363  0  0.673703  0.822726  0  2.408062  0
Zn  Zn3  1  0.62294779  0.52546242  0.99813345  1  1.28957  0  0.675097  0.816799  0  2.43794  0
H  H4  1  0.16991100  0.36920135  0.42195983  1  0.145023  0  0.136336  0.118216  0  1.002192  0
H  H5  1  0.10762971  0.56143033  0.63700504  1  0.120627  0  0.114025  0.136474  0  0.971414  0
H  H6  1  0.11709446  0.69453444  0.59077178  1  0.095223  0  0.115111  0.135484  0  0.972331  0
H  H7  1  0.85721925  0.68661151  0.57902922  1  0.12119  0  0.113586  0.143036  0  0.975162  0
H  H8  1  0.85016491  0.55458819  0.62563783  1  0.10391  0  0.112631  0.142386  0  0.982346  0
H  H9  1  0.73214241  0.87306682  0.52505477  1  0.069193  0  0.103179  0.109645  0  1.008312  0
H  H10  1  0.23496861  0.83352609  0.43016681  1  0.086409  0  0.101908  0.12991  0  0.987785  0
H  H11  1  0.18590644  0.84912335  0.50876550  1  0.044587  0  0.091861  0.097764  0  0.997534  0
H  H12  1  0.17605502  0.07492795  0.49766078  1  0.065682  0  0.093702  0.107609  0  0.994313  0
H  H13  1  0.22860584  0.05998342  0.41885992  1  0.055988  0  0.092319  0.097679  0  0.989824  0
H  H14  1  0.70126645  0.34669744  0.87174772  1  0.075683  0  0.105009  0.128308  0  1.025319  0
H  H15  1  0.75252749  0.32331976  0.64502115  1  0.146437  0  0.109492  0.147135  0  1.031343  0
H  H16  1  0.33592993  0.54494317  0.68287478  1  0.08726  0  0.102395  0.103264  0  1.022915  0
H  H17  1  0.31789687  0.56551585  0.79678144  1  0.041073  0  0.103176  0.101556  0  1.011571  0
H  H18  1  0.25900541  0.56883723  0.19231708  1  0.066477  0  0.101871  0.106112  0  1.037112  0
H  H19  1  0.80102214  0.49447591  0.19023041  1  0.07282  0  0.093531  0.10987  0  1.012277  0
H  H20  1  0.79789738  0.65504694  0.18980025  1  0.06149  0  0.094015  0.102591  0  0.983454  0
H  H21  1  0.79220022  0.65339626  0.30590231  1  0.059619  0  0.099633  0.113639  0  0.971803  0
H  H22  1  0.79807704  0.49301746  0.30407071  1  0.137552  0  0.097313  0.123713  0  1.02119  0
H  H23  1  0.83931737  0.45832533  0.09076420  1  0.181178  0  0.137903  0.12318  0  1.001596  0
H  H24  1  0.86281718  0.52191849  0.85441408  1  0.11986  0  0.108031  0.137851  0  1.009229  0
H  H25  1  0.87623820  0.67422865  0.88068591  1  0.081766  0  0.115855  0.139439  0  0.953692  0
H  H26  1  0.13607075  0.65397859  0.88251256  1  0.100643  0  0.113029  0.139367  0  0.963974  0
H  H27  1  0.11997149  0.49983434  0.85770724  1  0.111564  0  0.114993  0.145325  0  0.975316  0
H  H28  1  0.24835672  0.91408916  0.97290231  1  0.093181  0  0.10576  0.113724  0  1.003333  0
H  H29  1  0.76141007  0.89842511  0.05196662  1  0.079715  0  0.099034  0.110463  0  0.980078  0
H  H30  1  0.79600240  0.90393072  0.97151540  1  0.043104  0  0.096639  0.10621  0  0.98431  0
H  H31  1  0.80190525  0.13147452  0.97605000  1  0.084353  0  0.094209  0.110252  0  1.004935  0
H  H32  1  0.76877463  0.12622875  0.05651368  1  0.068673  0  0.097898  0.110395  0  0.976422  0
H  H33  1  0.05288117  0.21779019  0.40559331  1  0.61109  0  0.333263  0.364677  0  0.903706  0
H  H34  1  0.82112896  0.07529762  0.44165679  1  0.631578  0  0.339648  0.380067  0  0.862087  0
H  H35  1  0.13327444  0.46373769  0.25437412  1  0.626798  0  0.320354  0.367573  0  0.912463  0
H  H36  1  0.25755990  0.33368122  0.06838900  1  0.665183  0  0.306972  0.366948  0  0.982349  0
H  H37  1  0.14729969  0.09588652  0.04750893  1  0.612254  0  0.339587  0.376041  0  0.865692  0
C  C38  1  0.52633040  0.70830559  0.50796377  1  1.569234  0  0.21315  0.595807  0  4.183559  0
C  C39  1  0.52464547  0.44903543  0.61432962  1  1.539748  0  0.218398  0.596853  0  4.15159  0
C  C40  1  0.50162835  0.23747928  0.48811776  1  1.595488  0  0.215868  0.601632  0  4.178077  0
C  C41  1  0.48483075  0.52313351  0.38053162  1  1.588594  0  0.219721  0.601396  0  4.168782  0
C  C42  1  0.45963109  0.75767186  0.98764270  1  1.59751  0  0.216053  0.600958  0  4.175134  0
C  C43  1  0.49389242  0.49299388  0.87992543  1  1.54554  0  0.2202  0.596414  0  4.157975  0
C  C44  1  0.47797043  0.28543602  0.00073242  1  1.571504  0  0.228156  0.618635  0  4.141924  0
C  C45  1  0.47832477  0.55061228  0.11478162  1  1.556027  0  0.218077  0.607673  0  4.155914  0
C  C46  1  0.07564837  0.52712821  0.53912180  1  0.559902  0  0.161551  0.217575  0  3.842132  0
C  C47  1  0.95838141  0.40176358  0.44992082  1  0.501806  0  0.131341  0.054992  0  3.911094  0
C  C48  1  0.93327793  0.52218160  0.53285321  1  0.590512  0  0.15609  0.213789  0  3.824283  0
C  C49  1  0.10044789  0.41040630  0.45545376  1  0.488573  0  0.071577  0.033587  0  3.849213  0
C  C50  1  0.06893469  0.60520646  0.59579911  1  -0.058936  0  -0.13484  -0.231862  0  3.821047  0
C  C51  1  0.90717307  0.60053020  0.58874724  1  -0.052466  0  -0.136551  -0.22669  0  3.794702  0
C  C52  1  0.52031420  0.84297727  0.50403165  1  0.020029  0  -0.011559  -0.062748  0  3.967355  0
C  C53  1  0.50892242  0.10324859  0.49350481  1  0.019268  0  -0.007285  -0.085164  0  3.943754  0
C  C54  1  0.40062054  0.90326412  0.48921036  1  -0.028628  0  0.000897  0.071285  0  3.874131  0
C  C55  1  0.63130156  0.04286646  0.50882953  1  -0.022028  0  -0.016601  -0.085811  0  4.003884  0
C  C56  1  0.39581250  0.02895104  0.48392825  1  -0.027648  0  -0.003303  0.064576  0  3.884986  0
C  C57  1  0.63619041  0.91667431  0.51340273  1  -0.052504  0  -0.085065  -0.132774  0  3.971429  0
C  C58  1  0.25202236  0.88619989  0.47214419  1  -0.004244  0  -0.150791  -0.196845  0  3.857694  0
C  C59  1  0.24645029  0.02846575  0.46578403  1  -0.052912  0  -0.153794  -0.199674  0  3.88209  0
C  C60  1  0.50232949  0.46830544  0.81261567  1  0.05558  0  -0.00831  -0.060454  0  3.928755  0
C  C61  1  0.61429752  0.40333532  0.78564387  1  -0.055084  0  -0.000867  0.06874  0  3.954749  0
C  C62  1  0.40290773  0.51636091  0.77570241  1  -0.058547  0  -0.086055  -0.097727  0  4.013366  0
C  C63  1  0.71289864  0.34562869  0.82213844  1  0.068079  0  -0.10213  -0.202474  0  3.993348  0
C  C64  1  0.82532654  0.28931886  0.79618185  1  0.033901  0  0.000117  0.073983  0  4.091454  0
C  C65  1  0.52356035  0.44841838  0.68331713  1  -0.05032  0  -0.006124  -0.063137  0  3.896527  0
C  C66  1  0.41354813  0.50576806  0.71182219  1  0.064124  0  -0.085576  -0.09281  0  4.008424  0
C  C67  1  0.62736900  0.39497256  0.71988949  1  0.092583  0  0.001077  0.069842  0  3.944122  0
C  C68  1  0.74206073  0.33295090  0.69443602  1  0.026736  0  -0.093599  -0.189488  0  3.931009  0
C  C69  1  0.84087458  0.28420531  0.73133370  1  0.014312  0  0.0051  0.093375  0  4.063407  0
C  C70  1  0.47803684  0.56441006  0.18245496  1  0.002692  0  -0.016731  -0.073574  0  3.986997  0
C  C71  1  0.47652158  0.55646771  0.31445658  1  0.016961  0  0.001596  -0.0675  0  3.897017  0
C  C72  1  0.59812809  0.57084511  0.21562045  1  -0.062722  0  -0.000133  0.06768  0  3.87623  0
C  C73  1  0.35206218  0.56221038  0.28130644  1  -0.04214  0  -0.013734  -0.078143  0  3.974304  0
C  C74  1  0.59637254  0.56822747  0.27973769  1  -0.012692  0  0.004939  0.077213  0  3.86326  0
C  C75  1  0.35479133  0.56549206  0.21719125  1  -0.003379  0  -0.086604  -0.133048  0  3.966895  0
C  C76  1  0.75306635  0.57409678  0.21131857  1  -0.072961  0  -0.155314  -0.201939  0  3.8829  0
C  C77  1  0.75107081  0.57225575  0.28353944  1  0.004279  0  -0.15255  -0.195889  0  3.850204  0
C  C78  1  0.91499330  0.53867952  0.95187087  1  0.581909  0  0.151089  0.204611  0  3.850796  0
C  C79  1  0.04457064  0.46568879  0.05165754  1  0.507726  0  0.131952  0.06572  0  3.872233  0
C  C80  1  0.05724205  0.52849142  0.95340373  1  0.540507  0  0.150715  0.211929  0  3.853774  0
C  C81  1  0.90162446  0.47808923  0.05020828  1  0.492502  0  0.076926  0.047606  0  3.807516  0
C  C82  1  0.91516664  0.58226092  0.88652543  1  -0.032071  0  -0.138146  -0.227024  0  3.810178  0
C  C83  1  0.07711717  0.56992088  0.88799081  1  -0.032819  0  -0.138318  -0.237091  0  3.809266  0
C  C84  1  0.46346445  0.89222196  0.98855314  1  0.034307  0  -0.008008  -0.056335  0  3.967859  0
C  C85  1  0.47104745  0.15209924  0.99434111  1  -0.015611  0  -0.007378  -0.09165  0  3.954255  0
C  C86  1  0.58437744  0.95615583  0.99777164  1  -0.098724  0  0.002635  0.071909  0  3.871794  0
C  C87  1  0.34713754  0.08809644  0.98378666  1  0.000765  0  -0.015055  -0.083471  0  4.008343  0
C  C88  1  0.58770213  0.08215714  0.00041633  1  0.06487  0  0.001551  0.074101  0  3.881287  0
C  C89  1  0.34437468  0.96166851  0.98142411  1  -0.118981  0  -0.083369  -0.133934  0  3.970544  0
C  C90  1  0.73627637  0.94470851  0.00925141  1  0.000892  0  -0.150161  -0.195584  0  3.879521  0
C  C91  1  0.74017619  0.08750790  0.01209363  1  -0.069216  0  -0.151835  -0.202645  0  3.870931  0
C  C92  1  0.90007755  0.32789638  0.39842808  1  1.574046  0  0.240769  0.545103  0  4.129077  0
C  C93  1  0.76007927  0.11108476  0.52406747  1  1.513851  0  0.23142  0.596599  0  4.108601  0
C  C94  1  0.21573892  0.57562582  0.31363991  1  1.530063  0  0.225004  0.580327  0  4.121974  0
C  C95  1  0.10306089  0.41888023  0.11094919  1  1.570775  0  0.240543  0.56089  0  4.145889  0
C  C96  1  0.21638454  0.15238908  0.96946456  1  1.536626  0  0.227714  0.577722  0  4.123402  0
N  N97  1  0.16208577  0.47386111  0.50060884  1  -1.210328  0  -0.282662  -0.158909  0  3.455761  0
N  N98  1  0.87044389  0.46215710  0.48862568  1  -1.16951  0  -0.264806  -0.181629  0  3.385295  0
N  N99  1  0.83402427  0.51578768  0.99997796  1  -1.22794  0  -0.28589  -0.17931  0  3.451677  0
N  N100  1  0.12603249  0.49410080  0.00218816  1  -1.212174  0  -0.282313  -0.21088  0  3.426326  0
Cl  Cl101  1  0.94783518  0.23064699  0.84348831  1  -0.186212  0  -0.00668  -0.066419  0  1.605486  0
Cl  Cl102  1  0.98375226  0.21778341  0.69861457  1  -0.185419  0  -0.01754  -0.073418  0  1.49225  0
O  O103  1  0.64230501  0.65859498  0.51451763  1  -1.165938  0  -0.317445  -0.551944  0  2.296788  0
O  O104  1  0.41117180  0.65412635  0.50334951  1  -1.153901  0  -0.312102  -0.540402  0  2.32459  0
O  O105  1  0.40664481  0.45783194  0.59055395  1  -1.159944  0  -0.321174  -0.548315  0  2.350189  0
O  O106  1  0.63775057  0.44424812  0.58483797  1  -1.157479  0  -0.301535  -0.536209  0  2.33097  0
O  O107  1  0.38367243  0.28455475  0.49329571  1  -1.168699  0  -0.313525  -0.534985  0  2.29202  0
O  O108  1  0.61454443  0.29370003  0.47921109  1  -1.157448  0  -0.308  -0.546684  0  2.385793  0
O  O109  1  0.59952212  0.54195570  0.40584244  1  -1.147669  0  -0.30147  -0.523708  0  2.348047  0
O  O110  1  0.38105852  0.47295454  0.40582324  1  -1.170326  0  -0.31461  -0.548461  0  2.361833  0
O  O111  1  0.34497799  0.70573409  0.97775053  1  -1.166086  0  -0.323814  -0.548004  0  2.288412  0
O  O112  1  0.57300961  0.70601877  0.99788108  1  -1.165918  0  -0.311471  -0.543306  0  2.325006  0
O  O113  1  0.60508104  0.52344812  0.90583309  1  -1.163701  0  -0.31225  -0.542174  0  2.370578  0
O  O114  1  0.37686514  0.48459464  0.90631316  1  -1.150376  0  -0.306322  -0.530765  0  2.329869  0
O  O115  1  0.59240148  0.33636006  0.99152356  1  -1.154808  0  -0.295312  -0.515558  0  2.286151  0
O  O116  1  0.36673992  0.34126566  0.01538491  1  -1.190116  0  -0.311752  -0.579253  0  2.454757  0
O  O117  1  0.36619082  0.56511821  0.08666201  1  -1.17382  0  -0.320614  -0.554523  0  2.342377  0
O  O118  1  0.59277047  0.52205654  0.08947628  1  -1.163937  0  -0.315342  -0.54362  0  2.335103  0
O  O119  1  0.98075581  0.23669206  0.37666493  1  -1.101915  0  -0.338261  -0.474605  0  2.235007  0
O  O120  1  0.79053501  0.34831991  0.37561322  1  -1.089613  0  -0.23875  -0.394701  0  2.17325  0
O  O121  1  0.86004444  0.10893375  0.47906882  1  -1.127146  0  -0.345437  -0.506207  0  2.255872  0
O  O122  1  0.78422779  0.15757374  0.57316030  1  -1.123684  0  -0.275448  -0.450099  0  2.125636  0
O  O123  1  0.10922078  0.50872828  0.29187838  1  -1.123324  0  -0.340796  -0.480428  0  2.240857  0
O  O124  1  0.19487082  0.64549134  0.35607742  1  -1.128452  0  -0.290556  -0.471588  0  2.09238  0
O  O125  1  0.20495473  0.34056070  0.10881240  1  -1.145286  0  -0.331403  -0.470123  0  2.305633  0
O  O126  1  0.04843991  0.44865450  0.15975612  1  -1.123244  0  -0.267252  -0.466147  0  2.124067  0
O  O127  1  0.11229889  0.13863634  0.01201240  1  -1.097647  0  -0.341954  -0.488036  0  2.21426  0
O  O128  1  0.19650765  0.20812178  0.92278961  1  -1.114718  0  -0.27128  -0.42904  0  2.123483  0
