# generated using pymatgen
data_ZnH9C11NO5
_symmetry_space_group_name_H-M   'P 1'
_cell_length_a   8.96406052
_cell_length_b   8.94668729
_cell_length_c   53.48987237
_cell_angle_alpha   89.99994367
_cell_angle_beta   90.00003529
_cell_angle_gamma   90.46239360
_symmetry_Int_Tables_number   1
_chemical_formula_structural   ZnH9C11NO5
_chemical_formula_sum   'Zn8 H72 C88 N8 O40'
_cell_volume   4289.67565675
_cell_formula_units_Z   8
loop_
 _symmetry_equiv_pos_site_id
 _symmetry_equiv_pos_as_xyz
  1  'x, y, z'
loop_
 _atom_site_type_symbol
 _atom_site_label
 _atom_site_symmetry_multiplicity
 _atom_site_fract_x
 _atom_site_fract_y
 _atom_site_fract_z
 _atom_site_occupancy
 _atom_site_pbe_bader_charge
 _atom_site_pbe_bader_spin_density
 _atom_site_pbe_cm5_charge
 _atom_site_pbe_ddec_charge
 _atom_site_pbe_ddec_spin_density
 _atom_site_pbe_ddec_sum_bond_order
 _atom_site_pbe_magmom
Zn  Zn0  1  0.26835261  0.82592505  0.25239707  1  1.292545  0  0.669287  0.834563  0  2.372743  0
Zn  Zn1  1  0.73164513  0.17407674  0.75239722  1  1.292446  0  0.669317  0.834652  0  2.372687  0
Zn  Zn2  1  0.23263559  0.79113542  0.19907464  1  1.290118  0  0.670468  0.837392  0  2.367076  0
Zn  Zn3  1  0.76736195  0.20886444  0.69907479  1  1.290123  0  0.670439  0.837383  0  2.367074  0
Zn  Zn4  1  0.57252068  0.66134335  0.45275353  1  1.285786  0  0.662488  0.816584  0  2.437775  0
Zn  Zn5  1  0.42748224  0.33865731  0.95275325  1  1.285782  0  0.662479  0.816551  0  2.437894  0
Zn  Zn6  1  0.39553168  0.36752194  0.00485250  1  1.280112  0  0.662409  0.81894  0  2.437657  0
Zn  Zn7  1  0.60447297  0.63247908  0.50485274  1  1.280104  0  0.662448  0.818926  0  2.437621  0
H  H8  1  0.11957736  0.06160691  0.29240863  1  0.081232  0  0.110115  0.126752  0  0.951308  0
H  H9  1  0.88041382  0.93839238  0.79240754  1  0.081265  0  0.11014  0.126769  0  0.9513  0
H  H10  1  0.28342341  0.10780282  0.27651721  1  0.124435  0  0.109733  0.133122  0  1.01612  0
H  H11  1  0.71656772  0.89219655  0.77651724  1  0.124394  0  0.109706  0.133047  0  1.016222  0
H  H12  1  0.36955606  0.27354114  0.31021891  1  0.065722  0  0.097764  0.100911  0  0.974927  0
H  H13  1  0.63044299  0.72645696  0.81021896  1  0.065702  0  0.09776  0.100869  0  0.97492  0
H  H14  1  0.17873066  0.31548448  0.30532171  1  0.038996  0  0.104001  0.112361  0  0.960443  0
H  H15  1  0.82126615  0.68451700  0.80532141  1  0.03901  0  0.103987  0.112298  0  0.960457  0
H  H16  1  0.11163461  0.13852429  0.34045510  1  0.071282  0  0.107203  0.049797  0  0.947576  0
H  H17  1  0.88836456  0.86147699  0.84045459  1  0.071328  0  0.107227  0.049833  0  0.947573  0
H  H18  1  0.30673656  0.03661448  0.36698930  1  0.043324  0  0.096508  0.032889  0  0.982869  0
H  H19  1  0.69326270  0.96338553  0.86698894  1  0.043366  0  0.096527  0.032894  0  0.982844  0
H  H20  1  0.46804900  0.57837682  0.32945580  1  0.080886  0  0.112341  0.121966  0  0.993432  0
H  H21  1  0.53195014  0.42162565  0.82945608  1  0.080856  0  0.112391  0.122037  0  0.993461  0
H  H22  1  0.38906428  0.61503066  0.28494438  1  0.156585  0  0.126647  0.106893  0  0.992862  0
H  H23  1  0.61093022  0.38497092  0.78494410  1  0.156767  0  0.126659  0.106814  0  0.992946  0
H  H24  1  0.39062484  0.52235085  0.41317857  1  0.143143  0  0.126622  0.103345  0  0.978131  0
H  H25  1  0.60937571  0.47765113  0.91317847  1  0.143401  0  0.12662  0.103325  0  0.978174  0
H  H26  1  0.31649945  0.57535584  0.36862938  1  0.081991  0  0.106749  0.11963  0  1.02892  0
H  H27  1  0.68350317  0.42464641  0.86862911  1  0.082101  0  0.10676  0.119644  0  1.028916  0
H  H28  1  0.59959711  0.96828705  0.37169031  1  0.131922  0  0.111801  0.131135  0  1.01643  0
H  H29  1  0.40040551  0.03171184  0.87169008  1  0.13191  0  0.111805  0.131141  0  1.01642  0
H  H30  1  0.66152025  0.89741422  0.41608041  1  0.13956  0  0.129528  0.106837  0  0.972714  0
H  H31  1  0.33848030  0.10258663  0.91608034  1  0.139582  0  0.129536  0.106839  0  0.97272  0
H  H32  1  0.18060829  0.30454994  0.36931214  1  0.616979  0  0.330072  0.356457  0  0.890074  0
H  H33  1  0.81938987  0.69545229  0.86931202  1  0.616992  0  0.330095  0.356491  0  0.890059  0
H  H34  1  0.46137990  0.24852024  0.35711265  1  0.599259  0  0.308793  0.339045  0  0.935507  0
H  H35  1  0.53861932  0.75147983  0.85711269  1  0.599262  0  0.308763  0.338983  0  0.935598  0
H  H36  1  0.99010558  0.91512844  0.15514729  1  0.037457  0  0.109848  0.123648  0  0.947334  0
H  H37  1  0.00989514  0.08487056  0.65514813  1  0.037455  0  0.109843  0.123636  0  0.947339  0
H  H38  1  0.95232881  0.76392264  0.17485365  1  0.128473  0  0.109363  0.133171  0  1.017943  0
H  H39  1  0.04767200  0.23607961  0.67485334  1  0.128493  0  0.109333  0.133124  0  1.018075  0
H  H40  1  0.79030652  0.64261511  0.14392723  1  0.051691  0  0.098505  0.10185  0  0.972169  0
H  H41  1  0.20969527  0.35738174  0.64392674  1  0.051693  0  0.098509  0.101869  0  0.972133  0
H  H42  1  0.74010028  0.83406993  0.14408444  1  0.037608  0  0.103339  0.110073  0  0.961754  0
H  H43  1  0.25989927  0.16592467  0.64408379  1  0.03767  0  0.103332  0.110062  0  0.961689  0
H  H44  1  0.91087519  0.87699661  0.10724009  1  0.049623  0  0.106069  0.048332  0  0.948321  0
H  H45  1  0.08912537  0.12300156  0.60723962  1  0.04959  0  0.106056  0.048336  0  0.948391  0
H  H46  1  0.02184147  0.66629973  0.08567729  1  0.056425  0  0.096255  0.032432  0  0.981619  0
H  H47  1  0.97815900  0.33369968  0.58567706  1  0.056413  0  0.096317  0.032589  0  0.981576  0
H  H48  1  0.49066175  0.57155856  0.12475257  1  0.100165  0  0.111672  0.123279  0  0.998269  0
H  H49  1  0.50933662  0.42843726  0.62475246  1  0.100166  0  0.111679  0.123274  0  0.99824  0
H  H50  1  0.45106956  0.67931104  0.16753467  1  0.157714  0  0.124841  0.104967  0  1.005877  0
H  H51  1  0.54893121  0.32068677  0.66753459  1  0.158004  0  0.124846  0.104935  0  1.005938  0
H  H52  1  0.51447917  0.59595657  0.03825862  1  0.095752  0  0.12723  0.103601  0  0.976294  0
H  H53  1  0.48551892  0.40404981  0.53825852  1  0.09574  0  0.127242  0.103595  0  0.976369  0
H  H54  1  0.46266314  0.70137990  0.08110504  1  0.089321  0  0.110066  0.123059  0  1.008314  0
H  H55  1  0.53733287  0.29862064  0.58110459  1  0.089289  0  0.110093  0.123104  0  1.008271  0
H  H56  1  0.11934974  0.36380566  0.08943915  1  0.126545  0  0.113487  0.132449  0  1.004966  0
H  H57  1  0.88065074  0.63618925  0.58943924  1  0.126567  0  0.113475  0.132457  0  1.005008  0
H  H58  1  0.18895559  0.27029606  0.04658806  1  0.120956  0  0.130658  0.10452  0  0.962683  0
H  H59  1  0.81104808  0.72970024  0.54658812  1  0.120973  0  0.130662  0.104518  0  0.962746  0
H  H60  1  0.75049620  0.76626998  0.08058102  1  0.583314  0  0.328638  0.353981  0  0.89271  0
H  H61  1  0.24950315  0.23373057  0.58058055  1  0.583281  0  0.328569  0.353828  0  0.892838  0
H  H62  1  0.82027186  0.50918576  0.10002847  1  0.603686  0  0.309764  0.339779  0  0.931656  0
H  H63  1  0.17972644  0.49081355  0.60002851  1  0.603599  0  0.309784  0.339811  0  0.931634  0
H  H64  1  0.74728034  0.78709037  0.19944801  1  0.097769  0  0.106328  0.122918  0  1.005111  0
H  H65  1  0.25271721  0.21291283  0.69944792  1  0.097767  0  0.10631  0.122878  0  1.005097  0
H  H66  1  0.75873061  0.82858325  0.25663322  1  0.085388  0  0.109208  0.128951  0  0.98522  0
H  H67  1  0.24126712  0.17140957  0.75663314  1  0.085332  0  0.109185  0.128926  0  0.985216  0
H  H68  1  0.23999982  0.30219800  0.19499914  1  0.14336  0  0.109729  0.130677  0  0.984393  0
H  H69  1  0.75999882  0.69780300  0.69499884  1  0.143444  0  0.109705  0.130668  0  0.984374  0
H  H70  1  0.26147787  0.31047728  0.25251844  1  0.083241  0  0.105913  0.122527  0  1.007978  0
H  H71  1  0.73852098  0.68952451  0.75251851  1  0.083189  0  0.105999  0.122701  0  1.008017  0
H  H72  1  0.08390961  0.65426105  0.45067910  1  0.077778  0  0.10547  0.124662  0  0.992639  0
H  H73  1  0.91609892  0.34575082  0.95067924  1  0.07807  0  0.10549  0.124722  0  0.992603  0
H  H74  1  0.09213417  0.63653791  0.50821934  1  0.108697  0  0.10415  0.121762  0  0.997634  0
H  H75  1  0.90786825  0.36345860  0.00821933  1  0.108667  0  0.104143  0.121731  0  0.997743  0
H  H76  1  0.62280482  0.14693307  0.50572099  1  0.107376  0  0.105049  0.122883  0  0.996056  0
H  H77  1  0.37720206  0.85306572  0.00571972  1  0.107625  0  0.105065  0.122938  0  0.996037  0
H  H78  1  0.55044407  0.14776536  0.44937032  1  0.103244  0  0.104658  0.121505  0  0.997182  0
H  H79  1  0.44954992  0.85223638  0.94936845  1  0.10314  0  0.104623  0.121459  0  0.997186  0
C  C80  1  0.31025599  0.95124105  0.30605974  1  0.539097  0  0.13877  0.243957  0  3.87871  0
C  C81  1  0.68973970  0.04875929  0.80605954  1  0.538663  0  0.138773  0.243944  0  3.878833  0
C  C82  1  0.23868353  0.08862614  0.29539536  1  -0.053409  0  -0.155308  -0.241736  0  3.941811  0
C  C83  1  0.76130990  0.91137425  0.79539502  1  -0.053027  0  -0.155353  -0.241765  0  3.941856  0
C  C84  1  0.25538824  0.22819005  0.31164366  1  -0.030338  0  -0.164393  -0.193805  0  3.937849  0
C  C85  1  0.74461083  0.77181140  0.81164353  1  -0.030332  0  -0.164343  -0.193566  0  3.937836  0
C  C86  1  0.22430976  0.18823826  0.33871215  1  0.395955  0  -0.007281  0.148899  0  3.906504  0
C  C87  1  0.77568829  0.81176191  0.83871201  1  0.395933  0  -0.007308  0.148705  0  3.906744  0
C  C88  1  0.34065620  0.07612222  0.34818368  1  0.44804  0  -0.006791  0.117815  0  3.930399  0
C  C89  1  0.65934188  0.92387678  0.84818351  1  0.448038  0  -0.006756  0.117952  0  3.930357  0
C  C90  1  0.35624577  0.94211494  0.33118450  1  -0.018619  0  -0.003092  -0.067881  0  3.838498  0
C  C91  1  0.64375336  0.05788528  0.83118410  1  -0.018526  0  -0.003115  -0.068499  0  3.838012  0
C  C92  1  0.41174651  0.80493713  0.34012116  1  -0.007862  0  0.018598  0.076411  0  3.949346  0
C  C93  1  0.58825377  0.19506304  0.84012073  1  -0.007747  0  0.01862  0.078373  0  3.946462  0
C  C94  1  0.42405928  0.68545912  0.32333762  1  -0.00111  0  -0.082938  -0.183336  0  3.974612  0
C  C95  1  0.57593983  0.31454226  0.82333773  1  -0.001304  0  -0.083001  -0.184136  0  3.974052  0
C  C96  1  0.38075835  0.70452087  0.29870492  1  0.442122  0  0.06053  0.119445  0  3.933732  0
C  C97  1  0.61923732  0.29547840  0.79870466  1  0.441929  0  0.060522  0.119571  0  3.933826  0
C  C98  1  0.43377976  0.61923137  0.40301813  1  0.47609  0  0.05641  0.102234  0  3.926529  0
C  C99  1  0.56622076  0.38077179  0.90301786  1  0.475801  0  0.05646  0.102323  0  3.92644  0
C  C100  1  0.39367707  0.64955024  0.37846806  1  0.046071  0  -0.083274  -0.187091  0  3.949743  0
C  C101  1  0.60632558  0.35044972  0.87846798  1  0.045914  0  -0.083318  -0.187267  0  3.949865  0
C  C102  1  0.45258717  0.77699380  0.36655645  1  -0.103203  0  0.014381  0.108639  0  3.980358  0
C  C103  1  0.54741655  0.22300624  0.86655639  1  -0.103184  0  0.014364  0.108195  0  3.979769  0
C  C104  1  0.55133445  0.86828703  0.38013640  1  -0.020702  0  -0.078982  -0.173758  0  3.926882  0
C  C105  1  0.44866598  0.13171403  0.88013634  1  -0.020546  0  -0.07902  -0.173879  0  3.926936  0
C  C106  1  0.58632337  0.82960421  0.40463563  1  0.475443  0  0.061636  0.105264  0  3.911873  0
C  C107  1  0.41367937  0.17039448  0.90463556  1  0.475246  0  0.061671  0.105309  0  3.911819  0
C  C108  1  0.10963612  0.72043911  0.14594159  1  0.538821  0  0.138895  0.244351  0  3.879047  0
C  C109  1  0.89036457  0.27955660  0.64594118  1  0.538709  0  0.138933  0.244328  0  3.879264  0
C  C110  1  0.96919033  0.79329864  0.15508691  1  -0.044609  0  -0.153586  -0.238928  0  3.938374  0
C  C111  1  0.03081263  0.20670149  0.65508680  1  -0.044511  0  -0.153596  -0.238878  0  3.938541  0
C  C112  1  0.83036359  0.75629420  0.13960155  1  0.010961  0  -0.16303  -0.190782  0  3.931541  0
C  C113  1  0.16963707  0.24370266  0.63960069  1  0.010903  0  -0.163024  -0.190738  0  3.931458  0
C  C114  1  0.86739170  0.76461926  0.11195557  1  0.414646  0  -0.008039  0.148733  0  3.910713  0
C  C115  1  0.13260776  0.23537887  0.61195508  1  0.414631  0  -0.008017  0.148624  0  3.910922  0
C  C116  1  0.98510873  0.64726124  0.10521262  1  0.429185  0  -0.008016  0.117368  0  3.938099  0
C  C117  1  0.01489070  0.35273693  0.60521248  1  0.429237  0  -0.008036  0.117263  0  3.938283  0
C  C118  1  0.12011056  0.65494645  0.12207914  1  -0.013463  0  -0.003722  -0.068852  0  3.846018  0
C  C119  1  0.87988780  0.34504939  0.62207890  1  -0.013434  0  -0.003768  -0.068871  0  3.846169  0
C  C120  1  0.25946063  0.60126707  0.11403351  1  -0.077912  0  0.018863  0.077883  0  3.952646  0
C  C121  1  0.74053770  0.39872769  0.61403307  1  -0.077895  0  0.018878  0.077845  0  3.952659  0
C  C122  1  0.38110961  0.61128593  0.13036820  1  0.008806  0  -0.083036  -0.183834  0  3.970836  0
C  C123  1  0.61888990  0.38871098  0.63036793  1  0.008777  0  -0.083098  -0.183847  0  3.970725  0
C  C124  1  0.36060359  0.67158225  0.15395023  1  0.478992  0  0.058763  0.118314  0  3.932511  0
C  C125  1  0.63939602  0.32841564  0.65395015  1  0.478667  0  0.058779  0.1184  0  3.932523  0
C  C126  1  0.42976019  0.54760775  0.05054039  1  0.55701  0  0.057511  0.105053  0  3.926351  0
C  C127  1  0.57023682  0.45239296  0.55054028  1  0.556874  0  0.057437  0.104911  0  3.926427  0
C  C128  1  0.39973428  0.60550798  0.07407493  1  -0.040878  0  -0.081616  -0.184381  0  3.948755  0
C  C129  1  0.60026281  0.39449148  0.57407465  1  -0.04086  0  -0.081594  -0.184328  0  3.948818  0
C  C130  1  0.28654322  0.54031296  0.08867769  1  -0.041641  0  0.015168  0.109669  0  3.981153  0
C  C131  1  0.71345727  0.45968531  0.58867742  1  -0.041634  0  0.015167  0.109656  0  3.981295  0
C  C132  1  0.20859245  0.41726957  0.07881695  1  0.049327  0  -0.07748  -0.173302  0  3.927755  0
C  C133  1  0.79140912  0.58272877  0.57881667  1  0.048986  0  -0.077445  -0.173307  0  3.927889  0
C  C134  1  0.24649022  0.36530933  0.05513472  1  0.439888  0  0.061424  0.104771  0  3.919434  0
C  C135  1  0.75351014  0.63469025  0.55513423  1  0.440205  0  0.061367  0.10468  0  3.919535  0
C  C136  1  0.54067731  0.80242057  0.22156377  1  1.55292  0  0.209613  0.632887  0  4.175764  0
C  C137  1  0.45931919  0.19757580  0.72156352  1  1.552932  0  0.209761  0.633152  0  4.175342  0
C  C138  1  0.70562068  0.79891952  0.21849124  1  -0.027714  0  -0.081969  -0.169805  0  3.887636  0
C  C139  1  0.29437470  0.20107909  0.71849190  1  -0.027759  0  -0.082005  -0.169818  0  3.887819  0
C  C140  1  0.80076681  0.81330330  0.23768179  1  -0.045674  0  -0.080976  -0.168409  0  3.886356  0
C  C141  1  0.19923085  0.18669187  0.73768113  1  -0.04563  0  -0.080965  -0.168437  0  3.886576  0
C  C142  1  0.96562932  0.81326683  0.23448531  1  1.575183  0  0.211871  0.634937  0  4.165312  0
C  C143  1  0.03436725  0.18673617  0.73448557  1  1.575441  0  0.211981  0.635128  0  4.165225  0
C  C144  1  0.25073838  0.09337571  0.21686181  1  1.584292  0  0.211786  0.63448  0  4.164594  0
C  C145  1  0.74926258  0.90662742  0.71686221  1  1.584474  0  0.211692  0.634301  0  4.164881  0
C  C146  1  0.24961255  0.25875050  0.21397807  1  -0.168666  0  -0.080176  -0.167326  0  3.885299  0
C  C147  1  0.75038840  0.74125488  0.71397682  1  -0.168728  0  -0.080149  -0.167266  0  3.884814  0
C  C148  1  0.25545541  0.35294128  0.23344548  1  0.053015  0  -0.082739  -0.171024  0  3.888306  0
C  C149  1  0.74454002  0.64705948  0.73344668  1  0.05307  0  -0.082796  -0.17124  0  3.887858  0
C  C150  1  0.25182289  0.51831916  0.23052492  1  1.553884  0  0.208242  0.630735  0  4.18023  0
C  C151  1  0.74817143  0.48168385  0.73052483  1  1.55385  0  0.208271  0.630841  0  4.180046  0
C  C152  1  0.87691569  0.64133258  0.47301290  1  1.570072  0  0.207471  0.63254  0  4.172697  0
C  C153  1  0.12308843  0.35867132  0.97301370  1  1.569569  0  0.207529  0.632718  0  4.172235  0
C  C154  1  0.04164753  0.64750703  0.46976588  1  -0.052657  0  -0.083878  -0.171327  0  3.891677  0
C  C155  1  0.95835770  0.35250025  0.96976565  1  -0.053022  0  -0.083855  -0.171419  0  3.891648  0
C  C156  1  0.13569139  0.64510133  0.48923406  1  -0.035178  0  -0.084675  -0.171274  0  3.898012  0
C  C157  1  0.86431278  0.35490023  0.98923438  1  -0.035075  0  -0.084707  -0.171283  0  3.898081  0
C  C158  1  0.30058889  0.64993725  0.48644270  1  1.571392  0  0.206872  0.632855  0  4.176374  0
C  C159  1  0.69941303  0.35006320  0.98644319  1  1.571423  0  0.206993  0.63304  0  4.176319  0
C  C160  1  0.60354262  0.93605530  0.48451429  1  1.581715  0  0.207532  0.630949  0  4.176431  0
C  C161  1  0.39645818  0.06394515  0.98451255  1  1.581497  0  0.207547  0.630885  0  4.176566  0
C  C162  1  0.60218328  0.10137584  0.48711336  1  -0.06143  0  -0.083504  -0.168605  0  3.895743  0
C  C163  1  0.39781753  0.89862460  0.98711242  1  -0.061751  0  -0.083488  -0.168566  0  3.895509  0
C  C164  1  0.57280356  0.19291550  0.46794729  1  -0.069396  0  -0.085508  -0.174101  0  3.900582  0
C  C165  1  0.42719829  0.80708282  0.96794506  1  -0.069214  0  -0.085471  -0.174107  0  3.900234  0
C  C166  1  0.57064879  0.35816552  0.47068349  1  1.572156  0  0.206425  0.630881  0  4.178148  0
C  C167  1  0.42934973  0.64183500  0.97068129  1  1.572586  0  0.206528  0.631157  0  4.178023  0
N  N168  1  0.32308045  0.83346345  0.29036875  1  -1.228494  0  -0.313429  -0.250342  0  3.466841  0
N  N169  1  0.67691519  0.16653699  0.79036852  1  -1.228463  0  -0.313424  -0.250403  0  3.46686  0
N  N170  1  0.52876753  0.70760971  0.41582392  1  -1.245976  0  -0.316024  -0.191423  0  3.514519  0
N  N171  1  0.47123415  0.29239227  0.91582383  1  -1.245874  0  -0.316018  -0.191368  0  3.514387  0
N  N172  1  0.22871136  0.72641675  0.16146304  1  -1.241773  0  -0.313783  -0.25331  0  3.464579  0
N  N173  1  0.77128939  0.27358111  0.66146299  1  -1.241694  0  -0.313809  -0.253392  0  3.464686  0
N  N174  1  0.35479066  0.42906925  0.04130275  1  -1.247334  0  -0.316125  -0.193553  0  3.513546  0
N  N175  1  0.64521079  0.57093266  0.54130208  1  -1.247231  0  -0.316087  -0.193351  0  3.513366  0
O  O176  1  0.23449970  0.32240884  0.35377499  1  -1.128963  0  -0.398433  -0.515846  0  2.218445  0
O  O177  1  0.76549952  0.67759236  0.85377488  1  -1.128962  0  -0.398443  -0.515847  0  2.218528  0
O  O178  1  0.48346694  0.15039303  0.34991579  1  -1.09808  0  -0.402861  -0.497481  0  2.188458  0
O  O179  1  0.51653003  0.84960707  0.84991561  1  -1.098128  0  -0.40286  -0.497482  0  2.188523  0
O  O180  1  0.73330871  0.73391134  0.09774241  1  -1.098457  0  -0.39862  -0.517753  0  2.227242  0
O  O181  1  0.26668846  0.26608687  0.59774193  1  -1.09842  0  -0.398538  -0.517517  0  2.227422  0
O  O182  1  0.92030593  0.50007912  0.10723788  1  -1.10081  0  -0.403782  -0.497761  0  2.183914  0
O  O183  1  0.07969239  0.49991792  0.60723790  1  -1.100741  0  -0.403773  -0.497765  0  2.18405  0
O  O184  1  0.48801489  0.78844412  0.24353578  1  -1.158182  0  -0.32059  -0.555434  0  2.317593  0
O  O185  1  0.51198168  0.21154988  0.74353609  1  -1.158031  0  -0.32063  -0.555513  0  2.317302  0
O  O186  1  0.46500203  0.81922091  0.20153250  1  -1.160034  0  -0.319848  -0.562898  0  2.293739  0
O  O187  1  0.53499664  0.18077893  0.70153263  1  -1.160041  0  -0.319874  -0.562993  0  2.293674  0
O  O188  1  0.04207363  0.85423532  0.25347988  1  -1.159714  0  -0.323858  -0.550947  0  2.264642  0
O  O189  1  0.95792523  0.14576870  0.75348043  1  -1.160021  0  -0.32392  -0.551035  0  2.264666  0
O  O190  1  0.01825409  0.77237255  0.21344651  1  -1.18071  0  -0.314914  -0.559405  0  2.341893  0
O  O191  1  0.98174351  0.22762946  0.71344668  1  -1.18069  0  -0.314967  -0.559522  0  2.341887  0
O  O192  1  0.29173451  0.03969168  0.23781699  1  -1.180762  0  -0.315327  -0.559391  0  2.342293  0
O  O193  1  0.70826987  0.96031023  0.73781757  1  -1.180817  0  -0.315334  -0.559393  0  2.34235  0
O  O194  1  0.21028807  0.01779167  0.19772211  1  -1.149627  0  -0.324512  -0.548223  0  2.257616  0
O  O195  1  0.78970947  0.98220932  0.69772213  1  -1.149797  0  -0.324442  -0.548085  0  2.257793  0
O  O196  1  0.23565689  0.59406202  0.25058665  1  -1.165312  0  -0.320995  -0.563402  0  2.28551  0
O  O197  1  0.76433749  0.40593864  0.75058677  1  -1.165252  0  -0.321066  -0.563456  0  2.285365  0
O  O198  1  0.26592303  0.57128012  0.20857104  1  -1.167025  0  -0.320303  -0.55529  0  2.326182  0
O  O199  1  0.73407343  0.42872191  0.70857152  1  -1.167034  0  -0.320295  -0.555338  0  2.326134  0
O  O200  1  0.79994256  0.63321093  0.45295957  1  -1.165924  0  -0.327885  -0.55477  0  2.264331  0
O  O201  1  0.20006598  0.36680316  0.95296075  1  -1.16588  0  -0.327893  -0.554809  0  2.264268  0
O  O202  1  0.82577377  0.64556387  0.49522065  1  -1.165551  0  -0.322682  -0.559354  0  2.322776  0
O  O203  1  0.17422930  0.35443542  0.99522146  1  -1.165112  0  -0.322774  -0.559488  0  2.322606  0
O  O204  1  0.35447414  0.67817657  0.46491937  1  -1.171066  0  -0.323113  -0.560496  0  2.31145  0
O  O205  1  0.64552769  0.32181842  0.96492005  1  -1.171019  0  -0.323165  -0.560549  0  2.311523  0
O  O206  1  0.37523095  0.62469058  0.50634610  1  -1.155382  0  -0.32928  -0.559392  0  2.27099  0
O  O207  1  0.62477262  0.37531713  0.00634606  1  -1.155402  0  -0.329325  -0.559473  0  2.271029  0
O  O208  1  0.60780282  0.88170551  0.46252079  1  -1.165196  0  -0.319424  -0.559446  0  2.328055  0
O  O209  1  0.39219233  0.11829617  0.96251923  1  -1.165169  0  -0.31943  -0.559472  0  2.328119  0
O  O210  1  0.59936358  0.86204455  0.50492040  1  -1.152462  0  -0.326993  -0.551595  0  2.261192  0
O  O211  1  0.40064441  0.13795424  0.00491870  1  -1.152269  0  -0.326983  -0.551528  0  2.261255  0
O  O212  1  0.54244691  0.43250800  0.45085338  1  -1.163438  0  -0.326746  -0.557092  0  2.268996  0
O  O213  1  0.45756605  0.56749383  0.95085156  1  -1.163424  0  -0.326881  -0.557256  0  2.268928  0
O  O214  1  0.59851159  0.41283954  0.49216475  1  -1.169801  0  -0.320012  -0.56457  0  2.32967  0
O  O215  1  0.40148922  0.58715752  0.99216218  1  -1.170274  0  -0.320012  -0.564689  0  2.329727  0
