# generated using pymatgen
data_ZnH12C10S(NCl)2
_symmetry_space_group_name_H-M   'P 1'
_cell_length_a   10.13658332
_cell_length_b   10.31428253
_cell_length_c   12.09290000
_cell_angle_alpha   90.00000000
_cell_angle_beta   90.00000000
_cell_angle_gamma   90.00000000
_symmetry_Int_Tables_number   1
_chemical_formula_structural   ZnH12C10S(NCl)2
_chemical_formula_sum   'Zn4 H48 C40 S4 N8 Cl8'
_cell_volume   1264.33185320
_cell_formula_units_Z   4
loop_
 _symmetry_equiv_pos_site_id
 _symmetry_equiv_pos_as_xyz
  1  'x, y, z'
loop_
 _atom_site_type_symbol
 _atom_site_label
 _atom_site_symmetry_multiplicity
 _atom_site_fract_x
 _atom_site_fract_y
 _atom_site_fract_z
 _atom_site_occupancy
 _atom_site_hle17_bader_spin_density
 _atom_site_hle17_ddec_charge
 _atom_site_hle17_ddec_spin_density
 _atom_site_hle17_ddec_sum_bond_order
 _atom_site_hle17_magmom
 _atom_site_hse06_10hf_bader_spin_density
 _atom_site_hse06_10hf_ddec_charge
 _atom_site_hse06_10hf_ddec_spin_density
 _atom_site_hse06_10hf_ddec_sum_bond_order
 _atom_site_hse06_10hf_magmom
 _atom_site_hse06_bader_spin_density
 _atom_site_hse06_ddec_charge
 _atom_site_hse06_ddec_spin_density
 _atom_site_hse06_ddec_sum_bond_order
 _atom_site_hse06_magmom
 _atom_site_pbe_bader_charge
 _atom_site_pbe_bader_spin_density
 _atom_site_pbe_cm5_charge
 _atom_site_pbe_ddec_charge
 _atom_site_pbe_ddec_spin_density
 _atom_site_pbe_ddec_sum_bond_order
 _atom_site_pbe_magmom
Zn  Zn0  1  0.18120405  0.00339626  0.27294115  1  0  0.758074  0  2.227673  0  0  0.600251  0  2.716759  0  0  0.63715  0  2.67508  0  1.051534  0  0.481752  0.574997  0  2.744804  0
Zn  Zn1  1  0.31879578  0.99660446  0.77294115  1  0  0.758085  0  2.227663  0  0  0.600269  0  2.716752  0  0  0.637155  0  2.675068  0  1.051538  0  0.481753  0.575011  0  2.744795  0
Zn  Zn2  1  0.68120389  0.49660459  0.72705803  1  0  0.758097  0  2.227636  0  0  0.600275  0  2.716749  0  0  0.637151  0  2.675061  0  1.051532  0  0.481756  0.575013  0  2.744789  0
Zn  Zn3  1  0.81879660  0.50339517  0.22705885  1  0  0.758134  0  2.227647  0  0  0.600317  0  2.716757  0  0  0.637203  0  2.67507  0  1.051524  0  0.481767  0.57506  0  2.744802  0
H  H4  1  0.88482477  0.06408686  0.28787553  1  0  0.073278  0  0.977631  0  0  0.075978  0  1.057728  0  0  0.078203  0  1.056239  0  0.08407  0  0.103331  0.07437  0  1.059009  0
H  H5  1  0.61517573  0.93591289  0.78787553  1  0  0.073276  0  0.977638  0  0  0.075978  0  1.057731  0  0  0.078205  0  1.056237  0  0.084067  0  0.103332  0.07437  0  1.059012  0
H  H6  1  0.38482395  0.43591302  0.71212447  1  0  0.07326  0  0.977646  0  0  0.075961  0  1.057743  0  0  0.078188  0  1.056252  0  0.084064  0  0.103328  0.074353  0  1.059024  0
H  H7  1  0.11517589  0.56408771  0.21212612  1  0  0.073264  0  0.977629  0  0  0.075971  0  1.057727  0  0  0.078198  0  1.056238  0  0.084056  0  0.103348  0.074363  0  1.059008  0
H  H8  1  0.77786664  0.00327895  0.62926511  1  0  0.096483  0  0.937219  0  0  0.109811  0  0.997632  0  0  0.11201  0  0.996027  0  0.076676  0  0.107836  0.108241  0  0.998757  0
H  H9  1  0.72213386  0.99672081  0.12926511  1  0  0.096497  0  0.937168  0  0  0.109842  0  0.997567  0  0  0.112042  0  0.99596  0  0.076671  0  0.107851  0.108261  0  0.998705  0
H  H10  1  0.27786286  0.49671899  0.37073572  1  0  0.096484  0  0.937127  0  0  0.109835  0  0.997519  0  0  0.112036  0  0.995909  0  0.0764  0  0.107825  0.108245  0  0.998668  0
H  H11  1  0.22213402  0.50327980  0.87073489  1  0  0.096451  0  0.937218  0  0  0.109834  0  0.997576  0  0  0.112035  0  0.995968  0  0.076462  0  0.107847  0.108253  0  0.998715  0
H  H12  1  0.01671273  0.95704088  0.66863449  1  0  0.109561  0  0.973224  0  0  0.115641  0  1.037775  0  0  0.119178  0  1.036447  0  0.136858  0  0.099231  0.113119  0  1.038856  0
H  H13  1  0.48328809  0.04295985  0.16863449  1  0  0.109552  0  0.973203  0  0  0.115629  0  1.037766  0  0  0.119166  0  1.036437  0  0.136868  0  0.099226  0.113107  0  1.038847  0
H  H14  1  0.51670862  0.54295779  0.33136469  1  0  0.109562  0  0.973209  0  0  0.115624  0  1.037782  0  0  0.119159  0  1.036459  0  0.136884  0  0.099221  0.113105  0  1.038863  0
H  H15  1  0.98328793  0.45704100  0.83136551  1  0  0.109573  0  0.973203  0  0  0.115659  0  1.037755  0  0  0.119195  0  1.036429  0  0.136867  0  0.099242  0.113137  0  1.038836  0
H  H16  1  0.17720172  0.96445196  0.51227084  1  0  0.067564  0  0.979332  0  0  0.070896  0  1.057351  0  0  0.073225  0  1.055526  0  0.113808  0  0.103927  0.069279  0  1.058312  0
H  H17  1  0.32279910  0.03554779  0.01227084  1  0  0.067573  0  0.979329  0  0  0.070907  0  1.057344  0  0  0.073238  0  1.055518  0  0.113821  0  0.103934  0.069291  0  1.058305  0
H  H18  1  0.67719860  0.53554864  0.48772751  1  0  0.067604  0  0.979297  0  0  0.070936  0  1.057307  0  0  0.073267  0  1.055477  0  0.113851  0  0.103954  0.069318  0  1.058272  0
H  H19  1  0.82279894  0.46445208  0.98772916  1  0  0.067568  0  0.979329  0  0  0.070904  0  1.057336  0  0  0.073233  0  1.055511  0  0.113817  0  0.103931  0.069285  0  1.058305  0
H  H20  1  0.65898536  0.07976706  0.33764110  1  0  0.069993  0  0.921424  0  0  0.080056  0  0.982799  0  0  0.081143  0  0.982026  0  0.064512  0  0.108915  0.079018  0  0.983497  0
H  H21  1  0.84101612  0.92023269  0.83764110  1  0  0.069992  0  0.921423  0  0  0.080059  0  0.982793  0  0  0.081146  0  0.982018  0  0.064511  0  0.108911  0.079019  0  0.983494  0
H  H22  1  0.15898256  0.42023282  0.66235973  1  0  0.069976  0  0.921442  0  0  0.080037  0  0.982819  0  0  0.081121  0  0.982049  0  0.064552  0  0.108905  0.078998  0  0.983516  0
H  H23  1  0.34101629  0.57976791  0.16235890  1  0  0.070018  0  0.921448  0  0  0.080073  0  0.982827  0  0  0.08116  0  0.982052  0  0.064512  0  0.108904  0.079034  0  0.983524  0
H  H24  1  0.57694292  0.14803259  0.66279056  1  0  0.098253  0  0.923956  0  0  0.114037  0  0.987848  0  0  0.116191  0  0.986956  0  0.04865  0  0.097495  0.112188  0  0.988807  0
H  H25  1  0.92305757  0.85196716  0.16279056  1  0  0.098251  0  0.923973  0  0  0.114034  0  0.987857  0  0  0.116188  0  0.986963  0  0.048656  0  0.097495  0.112187  0  0.988815  0
H  H26  1  0.07694309  0.35196631  0.33720861  1  0  0.098243  0  0.923953  0  0  0.114023  0  0.987848  0  0  0.116178  0  0.986952  0  0.04864  0  0.097484  0.112175  0  0.988805  0
H  H27  1  0.42305675  0.64803441  0.83720944  1  0  0.09826  0  0.923965  0  0  0.114037  0  0.987851  0  0  0.116191  0  0.986955  0  0.04865  0  0.097488  0.112189  0  0.98881  0
H  H28  1  0.43451623  0.19104770  0.58850152  1  0  0.10666  0  0.945231  0  0  0.121335  0  1.009044  0  0  0.123073  0  1.009592  0  0.07315  0  0.096626  0.119796  0  1.008886  0
H  H29  1  0.06548360  0.80895205  0.08850152  1  0  0.106683  0  0.945201  0  0  0.121326  0  1.009045  0  0  0.123063  0  1.009592  0  0.073146  0  0.096629  0.119787  0  1.008887  0
H  H30  1  0.93451607  0.30895120  0.41149848  1  0  0.106648  0  0.945225  0  0  0.121318  0  1.009043  0  0  0.123054  0  1.009591  0  0.073147  0  0.096622  0.119779  0  1.008885  0
H  H31  1  0.56548443  0.69104855  0.91149848  1  0  0.10668  0  0.945204  0  0  0.121317  0  1.009048  0  0  0.123054  0  1.009595  0  0.073138  0  0.096619  0.119779  0  1.00889  0
H  H32  1  0.69696561  0.25362501  0.51792870  1  0  0.088818  0  0.977032  0  0  0.101337  0  1.045725  0  0  0.102721  0  1.045974  0  0.09867  0  0.082236  0.100324  0  1.045396  0
H  H33  1  0.80303488  0.74637475  0.01792788  1  0  0.088835  0  0.97706  0  0  0.101351  0  1.045745  0  0  0.102753  0  1.045977  0  0.098676  0  0.082241  0.100339  0  1.045416  0
H  H34  1  0.19696479  0.24637584  0.48207212  1  0  0.088824  0  0.977095  0  0  0.101316  0  1.045789  0  0  0.102732  0  1.046007  0  0.098657  0  0.082225  0.100302  0  1.045459  0
H  H35  1  0.30303505  0.75362489  0.98207212  1  0  0.088847  0  0.977067  0  0  0.10135  0  1.045745  0  0  0.102766  0  1.045963  0  0.098672  0  0.082241  0.100338  0  1.045417  0
H  H36  1  0.55813580  0.24818595  0.42769063  1  0  0.092715  0  0.959372  0  0  0.104908  0  1.026226  0  0  0.105896  0  1.027567  0  0.08634  0  0.085808  0.10398  0  1.025588  0
H  H37  1  0.94186470  0.75181381  0.92768980  1  0  0.09274  0  0.959346  0  0  0.104946  0  1.026181  0  0  0.105933  0  1.027524  0  0.086326  0  0.085823  0.104017  0  1.025542  0
H  H38  1  0.05813497  0.25181296  0.57230937  1  0  0.092729  0  0.959373  0  0  0.104909  0  1.026222  0  0  0.105897  0  1.027566  0  0.086318  0  0.085813  0.103979  0  1.025581  0
H  H39  1  0.44186486  0.74818680  0.07231020  1  0  0.092744  0  0.95932  0  0  0.104926  0  1.026168  0  0  0.105914  0  1.027513  0  0.08632  0  0.085815  0.103997  0  1.025531  0
H  H40  1  0.48545154  0.80849346  0.39517155  1  0  0.113037  0  0.961337  0  0  0.129727  0  1.031457  0  0  0.1306  0  1.031631  0  0.138622  0  0.095974  0.12902  0  1.031033  0
H  H41  1  0.01454928  0.19150629  0.89517155  1  0  0.113038  0  0.961339  0  0  0.129728  0  1.031462  0  0  0.130602  0  1.031635  0  0.138616  0  0.095969  0.129022  0  1.031038  0
H  H42  1  0.98545039  0.69150617  0.60482845  1  0  0.11304  0  0.961387  0  0  0.129729  0  1.0315  0  0  0.130603  0  1.031676  0  0.138611  0  0.095973  0.129022  0  1.031079  0
H  H43  1  0.51455010  0.30849359  0.10482845  1  0  0.113027  0  0.961343  0  0  0.129715  0  1.031472  0  0  0.130588  0  1.031647  0  0.138611  0  0.095964  0.129008  0  1.031049  0
H  H44  1  0.62420835  0.76905786  0.48114183  1  0  0.101705  0  0.958402  0  0  0.11835  0  1.03075  0  0  0.118679  0  1.031451  0  0.075564  0  0.097536  0.118136  0  1.029836  0
H  H45  1  0.87579313  0.23094287  0.98114265  1  0  0.101718  0  0.958436  0  0  0.118367  0  1.030774  0  0  0.118696  0  1.031475  0  0.075557  0  0.09756  0.118153  0  1.02986  0
H  H46  1  0.12420655  0.73094178  0.51885735  1  0  0.101691  0  0.958429  0  0  0.118334  0  1.030774  0  0  0.118665  0  1.031474  0  0.075612  0  0.09755  0.11812  0  1.02986  0
H  H47  1  0.37579329  0.26905798  0.01885735  1  0  0.101722  0  0.958437  0  0  0.118369  0  1.030774  0  0  0.118699  0  1.031474  0  0.075603  0  0.097565  0.118155  0  1.02986  0
H  H48  1  0.64907275  0.83766272  0.34680598  1  0  0.107333  0  0.951499  0  0  0.125423  0  1.017336  0  0  0.126522  0  1.016944  0  0.101111  0  0.09896  0.124376  0  1.017833  0
H  H49  1  0.85092775  0.16233703  0.84680680  1  0  0.107366  0  0.951488  0  0  0.125456  0  1.017325  0  0  0.126556  0  1.016933  0  0.101128  0  0.098972  0.124409  0  1.017823  0
H  H50  1  0.14907291  0.66233691  0.65319320  1  0  0.107344  0  0.951503  0  0  0.125416  0  1.017356  0  0  0.126514  0  1.016966  0  0.10112  0  0.098954  0.124381  0  1.017842  0
H  H51  1  0.35092791  0.33766382  0.15319320  1  0  0.107366  0  0.951485  0  0  0.125458  0  1.01732  0  0  0.126559  0  1.016926  0  0.101129  0  0.098975  0.124412  0  1.017816  0
C  C52  1  0.90854381  0.03771857  0.37301888  1  0  0.07764  0  3.679036  0  0  0.040458  0  3.924665  0  0  0.046409  0  3.943335  0  0.468429  0  0.045602  0.03614  0  3.912652  0
C  C53  1  0.59145767  0.96228215  0.87301888  1  0  0.077609  0  3.679022  0  0  0.040452  0  3.92466  0  0  0.046404  0  3.943329  0  0.468412  0  0.045594  0.036136  0  3.912648  0
C  C54  1  0.40854200  0.46228131  0.62698112  1  0  0.077663  0  3.679007  0  0  0.0405  0  3.924638  0  0  0.046448  0  3.943312  0  0.468404  0  0.045595  0.036183  0  3.912626  0
C  C55  1  0.09145685  0.53771748  0.12698112  1  0  0.077681  0  3.679039  0  0  0.040528  0  3.924646  0  0  0.046467  0  3.94333  0  0.468388  0  0.045575  0.036211  0  3.912633  0
C  C56  1  0.81178241  0.03720860  0.45498350  1  0  0.00545  0  3.699845  0  0  0.025303  0  3.938016  0  0  0.019826  0  3.962631  0  0.037501  0  -4.9e-05  0.02852  0  3.921802  0
C  C57  1  0.68821908  0.96279116  0.95498350  1  0  0.005596  0  3.699694  0  0  0.025373  0  3.937971  0  0  0.019892  0  3.962588  0  0.037499  0  -1.8e-05  0.02859  0  3.921751  0
C  C58  1  0.31178060  0.46279031  0.54501732  1  0  0.005516  0  3.699875  0  0  0.025313  0  3.938113  0  0  0.019835  0  3.962729  0  0.037477  0  -4.9e-05  0.028531  0  3.921892  0
C  C59  1  0.18821529  0.53720945  0.04501898  1  0  0.005557  0  3.699802  0  0  0.025334  0  3.938076  0  0  0.01986  0  3.962689  0  0.037504  0  -5.1e-05  0.028553  0  3.921858  0
C  C60  1  0.85070085  0.00689141  0.56304195  1  0  -0.017723  0  3.65582  0  0  -0.049062  0  3.905714  0  0  -0.044861  0  3.923249  0  -0.092116  0  -0.056599  -0.051373  0  3.893257  0
C  C61  1  0.64929965  0.99310931  0.06304195  1  0  -0.017799  0  3.655739  0  0  -0.049124  0  3.905658  0  0  -0.04492  0  3.923191  0  -0.092117  0  -0.056624  -0.051425  0  3.893203  0
C  C62  1  0.35069805  0.49310652  0.43695888  1  0  -0.017737  0  3.655729  0  0  -0.049055  0  3.905619  0  0  -0.044851  0  3.923152  0  -0.091866  0  -0.056595  -0.051351  0  3.893168  0
C  C63  1  0.14929981  0.50689129  0.93695888  1  0  -0.017719  0  3.655702  0  0  -0.04907  0  3.905618  0  0  -0.044868  0  3.92315  0  -0.091965  0  -0.056597  -0.051373  0  3.893164  0
C  C64  1  0.98253718  0.98077205  0.58554689  1  0  -0.100871  0  3.712898  0  0  -0.107595  0  3.95683  0  0  -0.114767  0  3.977637  0  0.011479  0  -0.07462  -0.102784  0  3.941434  0
C  C65  1  0.51746331  0.01922771  0.08554606  1  0  -0.100838  0  3.712953  0  0  -0.107565  0  3.956892  0  0  -0.114738  0  3.9777  0  0.011482  0  -0.0746  -0.102755  0  3.941494  0
C  C66  1  0.48253340  0.51922661  0.41445311  1  0  -0.100901  0  3.712942  0  0  -0.107636  0  3.956903  0  0  -0.114809  0  3.977712  0  0.011501  0  -0.074601  -0.102828  0  3.941504  0
C  C67  1  0.01746249  0.48077217  0.91445394  1  0  -0.100839  0  3.712978  0  0  -0.107601  0  3.956965  0  0  -0.114773  0  3.977772  0  0.011582  0  -0.074606  -0.102788  0  3.941565  0
C  C68  1  0.07257376  0.98373493  0.49876870  1  0  0.132202  0  3.681947  0  0  0.101002  0  3.926417  0  0  0.108139  0  3.944383  0  0.490495  0  0.05233  0.097356  0  3.912371  0
C  C69  1  0.42742706  0.01626482  0.99876870  1  0  0.132238  0  3.682002  0  0  0.101038  0  3.926474  0  0  0.108175  0  3.944438  0  0.490495  0  0.052334  0.097391  0  3.912429  0
C  C70  1  0.57257064  0.51626470  0.50122965  1  0  0.132217  0  3.681936  0  0  0.101034  0  3.926388  0  0  0.108173  0  3.944348  0  0.490468  0  0.052315  0.097387  0  3.912344  0
C  C71  1  0.92742690  0.48373505  0.00123047  1  0  0.132248  0  3.682041  0  0  0.101059  0  3.926507  0  0  0.108199  0  3.944467  0  0.490484  0  0.052343  0.097412  0  3.912459  0
C  C72  1  0.67006108  0.07058174  0.42762778  1  0  0.08776  0  3.59224  0  0  0.063395  0  3.824302  0  0  0.067541  0  3.83924  0  0.339767  0  0.023161  0.06062  0  3.814347  0
C  C73  1  0.82993941  0.92941802  0.92762778  1  0  0.087713  0  3.592216  0  0  0.063363  0  3.824301  0  0  0.067511  0  3.839242  0  0.339769  0  0.023141  0.060589  0  3.814344  0
C  C74  1  0.17006026  0.42941717  0.57237305  1  0  0.087746  0  3.592391  0  0  0.063381  0  3.824438  0  0  0.067529  0  3.839383  0  0.339759  0  0.02316  0.060606  0  3.814483  0
C  C75  1  0.32993958  0.57058259  0.07237222  1  0  0.08757  0  3.592368  0  0  0.063223  0  3.824416  0  0  0.067368  0  3.839363  0  0.339796  0  0.023132  0.060448  0  3.814462  0
C  C76  1  0.50700614  0.00100540  0.55232823  1  0  0.280273  0  3.672697  0  0  0.252508  0  3.963212  0  0  0.274299  0  3.971273  0  0.410756  0  0.151233  0.237642  0  3.957865  0
C  C77  1  0.99299435  0.99899435  0.05232823  1  0  0.280302  0  3.67267  0  0  0.252533  0  3.96319  0  0  0.274323  0  3.971247  0  0.410758  0  0.151237  0.237668  0  3.957842  0
C  C78  1  0.00700631  0.49899448  0.44767177  1  0  0.280295  0  3.672662  0  0  0.252524  0  3.963188  0  0  0.274314  0  3.971244  0  0.41077  0  0.151245  0.237659  0  3.957839  0
C  C79  1  0.49299452  0.50100625  0.94767177  1  0  0.280306  0  3.672791  0  0  0.252528  0  3.963317  0  0  0.274317  0  3.971375  0  0.41076  0  0.151255  0.237662  0  3.957968  0
C  C80  1  0.52952359  0.14076500  0.58096321  1  0  -0.19714  0  3.692103  0  0  -0.239266  0  3.948673  0  0  -0.243625  0  3.958709  0  0.02397  0  -0.158772  -0.235961  0  3.941691  0
C  C81  1  0.97047690  0.85923475  0.08096321  1  0  -0.197128  0  3.692091  0  0  -0.239217  0  3.948636  0  0  -0.24357  0  3.958667  0  0.023966  0  -0.158761  -0.235912  0  3.941654  0
C  C82  1  0.02952375  0.35923488  0.41903679  1  0  -0.197049  0  3.692073  0  0  -0.239185  0  3.948629  0  0  -0.243542  0  3.958667  0  0.023979  0  -0.158738  -0.235883  0  3.941644  0
C  C83  1  0.47047707  0.64076585  0.91903679  1  0  -0.197148  0  3.692169  0  0  -0.23923  0  3.948675  0  0  -0.243584  0  3.958708  0  0.023961  0  -0.158764  -0.235926  0  3.941692  0
C  C84  1  0.61690511  0.19244189  0.48675587  1  0  -0.156035  0  3.619079  0  0  -0.201646  0  3.869913  0  0  -0.203767  0  3.882574  0  -0.074711  0  -0.168519  -0.199805  0  3.860846  0
C  C85  1  0.88309539  0.80755787  0.98675587  1  0  -0.156111  0  3.619133  0  0  -0.201726  0  3.869961  0  0  -0.203863  0  3.882613  0  -0.074709  0  -0.168546  -0.199889  0  3.860905  0
C  C86  1  0.11690626  0.30755605  0.51324248  1  0  -0.15609  0  3.619221  0  0  -0.201626  0  3.869965  0  0  -0.203772  0  3.882613  0  -0.074757  0  -0.168499  -0.199776  0  3.860886  0
C  C87  1  0.38309555  0.69244273  0.01324331  1  0  -0.156096  0  3.619206  0  0  -0.20166  0  3.869963  0  0  -0.203807  0  3.882611  0  -0.074716  0  -0.168515  -0.199811  0  3.860879  0
C  C88  1  0.58541225  0.83780524  0.41985463  1  0  -0.181198  0  3.651605  0  0  -0.284601  0  3.89924  0  0  -0.281606  0  3.90871  0  0.191548  0  -0.140593  -0.285838  0  3.892146  0
C  C89  1  0.91458825  0.16219451  0.91985545  1  0  -0.181247  0  3.651679  0  0  -0.284663  0  3.899317  0  0  -0.28167  0  3.908792  0  0.191549  0  -0.140624  -0.2859  0  3.892222  0
C  C90  1  0.08541142  0.66219439  0.58014537  1  0  -0.18122  0  3.651721  0  0  -0.284606  0  3.899367  0  0  -0.281608  0  3.908831  0  0.191512  0  -0.140621  -0.285853  0  3.892264  0
C  C91  1  0.41458841  0.33780537  0.08014455  1  0  -0.181227  0  3.651636  0  0  -0.284639  0  3.899276  0  0  -0.281647  0  3.908749  0  0.191516  0  -0.140614  -0.285877  0  3.892183  0
S  S92  1  0.40514835  0.89466814  0.61580101  1  0  -0.331524  0  2.152953  0  0  -0.301949  0  2.515157  0  0  -0.319934  0  2.506047  0  -0.16842  0  -0.134529  -0.290254  0  2.521966  0
S  S93  1  0.09485149  0.10533258  0.11580101  1  0  -0.331558  0  2.152942  0  0  -0.301984  0  2.515156  0  0  -0.319975  0  2.50605  0  -0.16843  0  -0.134542  -0.29029  0  2.521967  0
S  S94  1  0.90514819  0.60533246  0.38419817  1  0  -0.331576  0  2.152939  0  0  -0.302  0  2.515152  0  0  -0.319987  0  2.506041  0  -0.168434  0  -0.13455  -0.290305  0  2.521962  0
S  S95  1  0.59485132  0.39466827  0.88419734  1  0  -0.331548  0  2.152955  0  0  -0.301974  0  2.51517  0  0  -0.319957  0  2.50606  0  -0.16842  0  -0.134542  -0.290277  0  2.521981  0
N  N96  1  0.03602792  0.01111662  0.39437604  1  0  -0.299244  0  3.336138  0  0  -0.210895  0  3.596894  0  0  -0.229845  0  3.615266  0  -1.267582  0  -0.330044  -0.198108  0  3.583957  0
N  N97  1  0.46397290  0.98888410  0.89437521  1  0  -0.299322  0  3.336161  0  0  -0.210983  0  3.596946  0  0  -0.229928  0  3.615312  0  -1.267564  0  -0.330073  -0.198195  0  3.584008  0
N  N98  1  0.53602677  0.48888422  0.60562396  1  0  -0.299308  0  3.336124  0  0  -0.210978  0  3.596907  0  0  -0.229921  0  3.615269  0  -1.267536  0  -0.330059  -0.198189  0  3.583967  0
N  N99  1  0.96397077  0.51111650  0.10562562  1  0  -0.299405  0  3.336156  0  0  -0.211076  0  3.596957  0  0  -0.230018  0  3.615314  0  -1.267573  0  -0.330098  -0.198286  0  3.58402  0
N  N100  1  0.58148390  0.96702315  0.46728411  1  0  -0.079703  0  3.437201  0  0  0.016796  0  3.655522  0  0  -0.000222  0  3.678774  0  -1.18412  0  -0.243785  0.027369  0  3.640018  0
N  N101  1  0.91851660  0.03297757  0.96728411  1  0  -0.079689  0  3.43717  0  0  0.016825  0  3.65547  0  0  -0.000193  0  3.678721  0  -1.184126  0  -0.243763  0.0274  0  3.639964  0
N  N102  1  0.08148308  0.53297648  0.53271589  1  0  -0.079679  0  3.437266  0  0  0.016819  0  3.655575  0  0  -0.000199  0  3.678828  0  -1.184118  0  -0.243772  0.027393  0  3.640074  0
N  N103  1  0.41851676  0.46702327  0.03271506  1  0  -0.079641  0  3.437221  0  0  0.016861  0  3.655536  0  0  -0.000157  0  3.67879  0  -1.184109  0  -0.243776  0.027435  0  3.640031  0
Cl  Cl104  1  0.33738686  0.14882276  0.32359401  1  0  -0.544741  0  0.946618  0  0  -0.473203  0  1.207617  0  0  -0.488251  0  1.188145  0  -0.668355  0  -0.303735  -0.462524  0  1.220987  0
Cl  Cl105  1  0.16261396  0.85117796  0.82359484  1  0  -0.544734  0  0.946617  0  0  -0.473202  0  1.207622  0  0  -0.48825  0  1.18815  0  -0.668356  0  -0.303731  -0.46252  0  1.220993  0
Cl  Cl106  1  0.83738669  0.35117809  0.67640516  1  0  -0.544734  0  0.946609  0  0  -0.473196  0  1.207612  0  0  -0.488237  0  1.188133  0  -0.66835  0  -0.303731  -0.462512  0  1.220981  0
Cl  Cl107  1  0.66261380  0.64882167  0.17640599  1  0  -0.544748  0  0.946581  0  0  -0.473213  0  1.207578  0  0  -0.488253  0  1.1881  0  -0.668362  0  -0.30374  -0.462532  0  1.220947  0
Cl  Cl108  1  0.24974194  0.79677961  0.27633157  1  0  -0.558627  0  0.930971  0  0  -0.498994  0  1.20607  0  0  -0.513933  0  1.185885  0  -0.6682  0  -0.32071  -0.487846  0  1.219517  0
Cl  Cl109  1  0.25025888  0.20322112  0.77633157  1  0  -0.558641  0  0.930973  0  0  -0.499008  0  1.206064  0  0  -0.513942  0  1.185874  0  -0.668206  0  -0.320715  -0.487864  0  1.219522  0
Cl  Cl110  1  0.74974178  0.70322099  0.72366843  1  0  -0.558636  0  0.930978  0  0  -0.499  0  1.206076  0  0  -0.513933  0  1.185884  0  -0.668211  0  -0.320711  -0.48785  0  1.219527  0
Cl  Cl111  1  0.75025872  0.29677973  0.22366843  1  0  -0.558647  0  0.930983  0  0  -0.499003  0  1.206067  0  0  -0.513938  0  1.185879  0  -0.668208  0  -0.32071  -0.487856  0  1.219524  0
