# generated using pymatgen
data_AgH5C7N4
_symmetry_space_group_name_H-M   'P 1'
_cell_length_a   6.27127787
_cell_length_b   6.30066632
_cell_length_c   19.25450909
_cell_angle_alpha   89.99663967
_cell_angle_beta   89.99739605
_cell_angle_gamma   103.67808250
_symmetry_Int_Tables_number   1
_chemical_formula_structural   AgH5C7N4
_chemical_formula_sum   'Ag4 H20 C28 N16'
_cell_volume   739.23105070
_cell_formula_units_Z   4
loop_
 _symmetry_equiv_pos_site_id
 _symmetry_equiv_pos_as_xyz
  1  'x, y, z'
loop_
 _atom_site_type_symbol
 _atom_site_label
 _atom_site_symmetry_multiplicity
 _atom_site_fract_x
 _atom_site_fract_y
 _atom_site_fract_z
 _atom_site_occupancy
 _atom_site_hle17_bader_spin_density
 _atom_site_hle17_ddec_charge
 _atom_site_hle17_ddec_spin_density
 _atom_site_hle17_ddec_sum_bond_order
 _atom_site_hle17_magmom
 _atom_site_hse06_10hf_bader_spin_density
 _atom_site_hse06_10hf_ddec_charge
 _atom_site_hse06_10hf_ddec_spin_density
 _atom_site_hse06_10hf_ddec_sum_bond_order
 _atom_site_hse06_10hf_magmom
 _atom_site_hse06_bader_spin_density
 _atom_site_hse06_ddec_charge
 _atom_site_hse06_ddec_spin_density
 _atom_site_hse06_ddec_sum_bond_order
 _atom_site_hse06_magmom
 _atom_site_pbe_bader_spin_density
 _atom_site_pbe_cm5_charge
 _atom_site_pbe_ddec_charge
 _atom_site_pbe_ddec_spin_density
 _atom_site_pbe_ddec_sum_bond_order
 _atom_site_pbe_magmom
Ag  Ag0  1  0.16103870  0.27319966  0.97112076  1  0  0.466132  0  1.483478  0  0  0.307629  0  1.937988  0  0  0.332677  0  1.898305  0  0  0.491925  0.289949  0  1.965836  0
Ag  Ag1  1  0.33896089  0.22678794  0.47112221  1  0  0.466092  0  1.483089  0  0  0.307533  0  1.937698  0  0  0.332599  0  1.898015  0  0  0.491694  0.289844  0  1.965522  0
Ag  Ag2  1  0.83895216  0.72682033  0.02887724  1  0  0.466124  0  1.483196  0  0  0.3076  0  1.937733  0  0  0.332668  0  1.898046  0  0  0.491697  0.289901  0  1.965585  0
Ag  Ag3  1  0.66102262  0.77319934  0.52887527  1  0  0.466182  0  1.483345  0  0  0.307688  0  1.937837  0  0  0.332736  0  1.898159  0  0  0.491895  0.289999  0  1.965677  0
H  H4  1  0.84548781  0.87597513  0.87360973  1  0  0.094247  0  0.97536  0  0  0.099533  0  1.048091  0  0  0.102984  0  1.045279  0  0  0.099565  0.096941  0  1.050421  0
H  H5  1  0.65452176  0.62405816  0.37360518  1  0  0.094175  0  0.975121  0  0  0.099439  0  1.047952  0  0  0.102897  0  1.045123  0  0  0.099511  0.096842  0  1.050296  0
H  H6  1  0.15449306  0.12406668  0.12640281  1  0  0.094195  0  0.975265  0  0  0.099434  0  1.04809  0  0  0.102893  0  1.04526  0  0  0.099488  0.096823  0  1.05045  0
H  H7  1  0.34547891  0.37592187  0.62640320  1  0  0.094228  0  0.975182  0  0  0.099502  0  1.047961  0  0  0.102954  0  1.045148  0  0  0.099544  0.09689  0  1.05031  0
H  H8  1  0.13556025  0.12985197  0.80713417  1  0  0.087769  0  0.970305  0  0  0.099582  0  1.02816  0  0  0.101506  0  1.028501  0  0  0.098013  0.098203  0  1.028059  0
H  H9  1  0.36452284  0.37017231  0.30711912  1  0  0.087675  0  0.970243  0  0  0.099534  0  1.028052  0  0  0.101459  0  1.02839  0  0  0.097974  0.098157  0  1.027942  0
H  H10  1  0.86445986  0.87011742  0.19287161  1  0  0.087546  0  0.970221  0  0  0.099444  0  1.028013  0  0  0.101371  0  1.028349  0  0  0.097944  0.098055  0  1.027906  0
H  H11  1  0.63546331  0.62983631  0.69288926  1  0  0.087736  0  0.970212  0  0  0.099618  0  1.027986  0  0  0.101541  0  1.028325  0  0  0.098021  0.098242  0  1.027877  0
H  H12  1  0.08304417  0.49535161  0.77078374  1  0  0.091894  0  0.965202  0  0  0.103139  0  1.024489  0  0  0.104784  0  1.026154  0  0  0.096745  0.101996  0  1.023324  0
H  H13  1  0.41710226  0.00473318  0.27078737  1  0  0.092115  0  0.965198  0  0  0.103323  0  1.024453  0  0  0.10497  0  1.026111  0  0  0.096843  0.102218  0  1.023239  0
H  H14  1  0.91701690  0.50465086  0.22919972  1  0  0.09196  0  0.965264  0  0  0.103184  0  1.024543  0  0  0.104829  0  1.026205  0  0  0.096782  0.102077  0  1.023332  0
H  H15  1  0.58285255  0.99527168  0.72921427  1  0  0.092202  0  0.965073  0  0  0.103472  0  1.024273  0  0  0.105121  0  1.02593  0  0  0.096862  0.102364  0  1.02306  0
H  H16  1  0.73478094  0.60006335  0.80304991  1  0  0.087856  0  0.969614  0  0  0.10071  0  1.027584  0  0  0.102882  0  1.027294  0  0  0.099291  0.099025  0  1.028124  0
H  H17  1  0.76531766  0.90000176  0.30305727  1  0  0.088017  0  0.969609  0  0  0.100752  0  1.027688  0  0  0.102916  0  1.027412  0  0  0.099218  0.099121  0  1.028166  0
H  H18  1  0.26526245  0.39996783  0.19694289  1  0  0.087819  0  0.969616  0  0  0.100677  0  1.027567  0  0  0.102841  0  1.027285  0  0  0.099215  0.099019  0  1.028076  0
H  H19  1  0.23464872  0.09998122  0.69693398  1  0  0.088021  0  0.969623  0  0  0.100732  0  1.027735  0  0  0.102895  0  1.027459  0  0  0.099231  0.099116  0  1.028182  0
H  H20  1  0.44695032  0.34692716  0.86773415  1  0  0.08256  0  1.003851  0  0  0.08623  0  1.0856  0  0  0.090556  0  1.080783  0  0  0.090836  0.082949  0  1.089488  0
H  H21  1  0.05311957  0.15310656  0.36774842  1  0  0.082348  0  1.003831  0  0  0.086163  0  1.085462  0  0  0.090485  0  1.080643  0  0  0.09075  0.082882  0  1.08935  0
H  H22  1  0.55308404  0.65310602  0.13225866  1  0  0.082504  0  1.00385  0  0  0.086269  0  1.085496  0  0  0.090593  0  1.080679  0  0  0.090802  0.082993  0  1.089374  0
H  H23  1  0.94687362  0.84688695  0.63224387  1  0  0.082392  0  1.003752  0  0  0.086173  0  1.085408  0  0  0.090496  0  1.080593  0  0  0.090694  0.082898  0  1.089286  0
C  C24  1  0.45372845  0.93453706  0.91113191  1  0  0.268162  0  3.786799  0  0  0.245637  0  4.050083  0  0  0.254466  0  4.069123  0  0  0.213557  0.239835  0  4.037042  0
C  C25  1  0.04628610  0.56553195  0.41113388  1  0  0.267917  0  3.78628  0  0  0.245688  0  4.049265  0  0  0.254446  0  4.068402  0  0  0.213491  0.239913  0  4.036193  0
C  C26  1  0.54628439  0.06552827  0.08887388  1  0  0.268249  0  3.786049  0  0  0.245929  0  4.049112  0  0  0.254731  0  4.068185  0  0  0.213559  0.240122  0  4.036074  0
C  C27  1  0.95368268  0.43447733  0.58886256  1  0  0.268465  0  3.786514  0  0  0.245994  0  4.049713  0  0  0.254817  0  4.068758  0  0  0.213751  0.24019  0  4.036677  0
C  C28  1  0.62446253  0.09156639  0.87405121  1  0  -0.000453  0  3.811922  0  0  0.016944  0  4.044494  0  0  0.015185  0  4.067916  0  0  -0.011144  0.018018  0  4.028663  0
C  C29  1  0.87559713  0.40846153  0.37405500  1  0  -0.000266  0  3.811501  0  0  0.016996  0  4.044089  0  0  0.015263  0  4.067522  0  0  -0.01121  0.018065  0  4.02825  0
C  C30  1  0.37555497  0.90844598  0.12595614  1  0  -0.000564  0  3.811238  0  0  0.016757  0  4.0438  0  0  0.015011  0  4.067219  0  0  -0.011205  0.017829  0  4.027971  0
C  C31  1  0.12440718  0.59150846  0.62594403  1  0  -0.0004  0  3.811289  0  0  0.016978  0  4.043863  0  0  0.015225  0  4.06728  0  0  -0.011272  0.018053  0  4.02803  0
C  C32  1  0.82145333  0.03391087  0.85704936  1  0  -0.109722  0  3.754154  0  0  -0.130514  0  4.004049  0  0  -0.131609  0  4.021664  0  0  -0.094221  -0.129572  0  3.992222  0
C  C33  1  0.67857720  0.46610102  0.35704300  1  0  -0.109538  0  3.753486  0  0  -0.130293  0  4.003331  0  0  -0.131395  0  4.020962  0  0  -0.093967  -0.129356  0  3.991503  0
C  C34  1  0.17853595  0.96610918  0.14296110  1  0  -0.109568  0  3.753338  0  0  -0.130292  0  4.003182  0  0  -0.131398  0  4.020815  0  0  -0.093992  -0.129346  0  3.991362  0
C  C35  1  0.32141832  0.53386601  0.64295967  1  0  -0.109586  0  3.753635  0  0  -0.130355  0  4.00351  0  0  -0.131452  0  4.021122  0  0  -0.093999  -0.129402  0  3.991695  0
C  C36  1  0.98467473  0.17815847  0.81997670  1  0  -0.087555  0  3.803732  0  0  -0.093285  0  4.047502  0  0  -0.095511  0  4.067637  0  0  -0.100503  -0.091721  0  4.033784  0
C  C37  1  0.51538655  0.32185247  0.31996939  1  0  -0.087158  0  3.803481  0  0  -0.092882  0  4.04717  0  0  -0.095109  0  4.067306  0  0  -0.10024  -0.091317  0  4.033458  0
C  C38  1  0.01534356  0.82181594  0.18002493  1  0  -0.087068  0  3.803736  0  0  -0.092873  0  4.047443  0  0  -0.095102  0  4.067587  0  0  -0.100339  -0.091291  0  4.033708  0
C  C39  1  0.48458573  0.67811709  0.68003432  1  0  -0.087161  0  3.803438  0  0  -0.092922  0  4.047186  0  0  -0.095144  0  4.067317  0  0  -0.100287  -0.09136  0  4.033472  0
C  C40  1  0.95490295  0.38244949  0.79958226  1  0  -0.063969  0  3.747794  0  0  -0.079803  0  3.993555  0  0  -0.081106  0  4.014892  0  0  -0.0941  -0.078719  0  3.978869  0
C  C41  1  0.54519230  0.11759235  0.29958117  1  0  -0.064492  0  3.748398  0  0  -0.08032  0  3.994242  0  0  -0.081627  0  4.015569  0  0  -0.094448  -0.07927  0  3.979563  0
C  C42  1  0.04512725  0.61753931  0.20041106  1  0  -0.064208  0  3.748362  0  0  -0.080048  0  3.994177  0  0  -0.081356  0  4.015511  0  0  -0.094303  -0.078991  0  3.979478  0
C  C43  1  0.45476440  0.88238440  0.70042098  1  0  -0.064497  0  3.748271  0  0  -0.080368  0  3.994096  0  0  -0.081675  0  4.015422  0  0  -0.094414  -0.079323  0  3.979424  0
C  C44  1  0.76051539  0.44083727  0.81725717  1  0  -0.067755  0  3.769169  0  0  -0.079901  0  4.017345  0  0  -0.082178  0  4.039056  0  0  -0.092471  -0.078329  0  4.002713  0
C  C45  1  0.73954436  0.05920661  0.31726369  1  0  -0.067974  0  3.769289  0  0  -0.079998  0  4.017409  0  0  -0.08227  0  4.039124  0  0  -0.092375  -0.078468  0  4.002773  0
C  C46  1  0.23949329  0.55918369  0.18273667  1  0  -0.067684  0  3.769501  0  0  -0.079794  0  4.017581  0  0  -0.082063  0  4.039294  0  0  -0.092325  -0.078251  0  4.002956  0
C  C47  1  0.26042229  0.94075987  0.68273586  1  0  -0.067925  0  3.769546  0  0  -0.079933  0  4.017679  0  0  -0.082204  0  4.039392  0  0  -0.092364  -0.078407  0  4.003047  0
C  C48  1  0.59623196  0.29691869  0.85400886  1  0  -0.090396  0  3.731057  0  0  -0.114237  0  3.983083  0  0  -0.116126  0  4.002724  0  0  -0.088676  -0.112926  0  3.970085  0
C  C49  1  0.90382897  0.20310841  0.35401842  1  0  -0.090251  0  3.730451  0  0  -0.114172  0  3.982428  0  0  -0.116054  0  4.002046  0  0  -0.088674  -0.112866  0  3.969454  0
C  C50  1  0.40379725  0.70310148  0.14598913  1  0  -0.090421  0  3.731149  0  0  -0.114339  0  3.983152  0  0  -0.116222  0  4.002768  0  0  -0.088731  -0.113026  0  3.970159  0
C  C51  1  0.09614853  0.79685106  0.64597906  1  0  -0.090511  0  3.730501  0  0  -0.114405  0  3.982465  0  0  -0.116292  0  4.002094  0  0  -0.088674  -0.113103  0  3.969492  0
N  N52  1  0.27552979  0.97497142  0.94332278  1  0  -0.287902  0  3.189813  0  0  -0.219983  0  3.479988  0  0  -0.236022  0  3.495286  0  0  -0.243822  -0.208625  0  3.469298  0
N  N53  1  0.22459489  0.52511938  0.44333104  1  0  -0.288017  0  3.189898  0  0  -0.220261  0  3.48015  0  0  -0.236281  0  3.495448  0  0  -0.243799  -0.208912  0  3.469459  0
N  N54  1  0.72455831  0.02512404  0.05667262  1  0  -0.288168  0  3.189898  0  0  -0.22036  0  3.480128  0  0  -0.236394  0  3.495418  0  0  -0.243796  -0.208993  0  3.469436  0
N  N55  1  0.77544695  0.47490031  0.55667267  1  0  -0.288242  0  3.190027  0  0  -0.220362  0  3.480242  0  0  -0.2364  0  3.495535  0  0  -0.243842  -0.209004  0  3.469548  0
N  N56  1  0.16331855  0.78118812  0.96814017  1  0  -0.097142  0  3.180603  0  0  -0.052343  0  3.483011  0  0  -0.056874  0  3.49587  0  0  -0.12701  -0.04918  0  3.474039  0
N  N57  1  0.33673715  0.71878256  0.46814514  1  0  -0.096404  0  3.182185  0  0  -0.051574  0  3.484572  0  0  -0.056058  0  3.497422  0  0  -0.126935  -0.048434  0  3.475588  0
N  N58  1  0.83672147  0.21883660  0.03185263  1  0  -0.096724  0  3.181258  0  0  -0.051905  0  3.483644  0  0  -0.056404  0  3.496498  0  0  -0.127142  -0.048765  0  3.474671  0
N  N59  1  0.66327849  0.28117050  0.53185909  1  0  -0.096753  0  3.180983  0  0  -0.051911  0  3.483336  0  0  -0.056427  0  3.496194  0  0  -0.126992  -0.048753  0  3.474346  0
N  N60  1  0.27164171  0.63101318  0.95208708  1  0  -0.073306  0  3.255944  0  0  -0.018083  0  3.567723  0  0  -0.02359  0  3.579687  0  0  -0.123743  -0.01395  0  3.559515  0
N  N61  1  0.22835383  0.86891629  0.45208835  1  0  -0.074111  0  3.254706  0  0  -0.018958  0  3.566603  0  0  -0.024513  0  3.578568  0  0  -0.12401  -0.014791  0  3.558386  0
N  N62  1  0.72835578  0.36897852  0.04791247  1  0  -0.073873  0  3.254649  0  0  -0.0187  0  3.566535  0  0  -0.024238  0  3.578501  0  0  -0.123912  -0.014541  0  3.558317  0
N  N63  1  0.77163030  0.13101489  0.54791276  1  0  -0.073555  0  3.255316  0  0  -0.018386  0  3.567167  0  0  -0.023913  0  3.579135  0  0  -0.123762  -0.014237  0  3.55895  0
N  N64  1  0.45340056  0.72122262  0.91668440  1  0  -0.300425  0  2.958316  0  0  -0.271254  0  3.234672  0  0  -0.282036  0  3.249017  0  0  -0.214124  -0.263885  0  3.2251  0
N  N65  1  0.04651663  0.77878103  0.41666451  1  0  -0.300148  0  2.957108  0  0  -0.271041  0  3.233392  0  0  -0.281786  0  3.247752  0  0  -0.213914  -0.263698  0  3.223827  0
N  N66  1  0.54654944  0.27880551  0.08333489  1  0  -0.300135  0  2.957129  0  0  -0.271022  0  3.233443  0  0  -0.281786  0  3.247792  0  0  -0.213876  -0.263661  0  3.223873  0
N  N67  1  0.95340824  0.22120188  0.58331947  1  0  -0.300555  0  2.957855  0  0  -0.271408  0  3.234258  0  0  -0.282181  0  3.2486  0  0  -0.214279  -0.264056  0  3.2247  0
