# generated using pymatgen
data_Ca2H17C21NO9
_symmetry_space_group_name_H-M   'P 1'
_cell_length_a   10.00279141
_cell_length_b   10.93573865
_cell_length_c   22.63665507
_cell_angle_alpha   95.31606223
_cell_angle_beta   89.99997413
_cell_angle_gamma   90.00002016
_symmetry_Int_Tables_number   1
_chemical_formula_structural   Ca2H17C21NO9
_chemical_formula_sum   'Ca8 H68 C84 N4 O36'
_cell_volume   2465.52582678
_cell_formula_units_Z   4
loop_
 _symmetry_equiv_pos_site_id
 _symmetry_equiv_pos_as_xyz
  1  'x, y, z'
loop_
 _atom_site_type_symbol
 _atom_site_label
 _atom_site_symmetry_multiplicity
 _atom_site_fract_x
 _atom_site_fract_y
 _atom_site_fract_z
 _atom_site_occupancy
 _atom_site_pbe_bader_charge
 _atom_site_pbe_bader_spin_density
 _atom_site_pbe_cm5_charge
 _atom_site_pbe_ddec_charge
 _atom_site_pbe_ddec_spin_density
 _atom_site_pbe_ddec_sum_bond_order
 _atom_site_pbe_magmom
Ca  Ca0  1  0.98118578  0.05075327  0.66217979  1  1.625747  0  0.937929  1.362009  0  1.510196  0
Ca  Ca1  1  0.98118477  0.44924864  0.83782078  1  1.625755  0  0.937944  1.362012  0  1.510209  0
Ca  Ca2  1  0.01881376  0.94924751  0.33782055  1  1.625735  0  0.93792  1.361997  0  1.510222  0
Ca  Ca3  1  0.01881777  0.55075398  0.16217964  1  1.625748  0  0.937938  1.362028  0  1.510163  0
Ca  Ca4  1  0.99999860  0.99999942  0.49999979  1  1.648269  0  0.941334  1.430068  0  1.567013  0
Ca  Ca5  1  0.00000258  0.49999959  0.99999943  1  1.648303  0  0.94133  1.430053  0  1.567012  0
Ca  Ca6  1  0.19538812  0.24999900  0.75000006  1  1.634218  0  0.926822  1.36566  0  1.597617  0
Ca  Ca7  1  0.80460842  0.74999994  0.25000020  1  1.634244  0  0.926806  1.365686  0  1.597592  0
H  H8  1  0.26531872  0.16557333  0.49868648  1  0.129539  0  0.113667  0.10729  0  1.041529  0
H  H9  1  0.26532200  0.33442430  0.00131247  1  0.129594  0  0.113627  0.107256  0  1.041545  0
H  H10  1  0.73467683  0.83442470  0.50131375  1  0.129545  0  0.113668  0.107303  0  1.041535  0
H  H11  1  0.73468454  0.66557370  0.99868554  1  0.129461  0  0.113641  0.107246  0  1.041531  0
H  H12  1  0.47631985  0.19875220  0.44415909  1  0.07113  0  0.10423  0.101899  0  0.989251  0
H  H13  1  0.47632307  0.30124733  0.05584034  1  0.071142  0  0.104232  0.101898  0  0.989289  0
H  H14  1  0.52367569  0.80124766  0.55584077  1  0.071127  0  0.104238  0.10191  0  0.989254  0
H  H15  1  0.52368147  0.69874884  0.94415804  1  0.071111  0  0.104204  0.101857  0  0.989236  0
H  H16  1  0.69673729  0.16353673  0.49204418  1  0.058408  0  0.114319  0.108181  0  1.001049  0
H  H17  1  0.69674057  0.33646378  0.00795480  1  0.058394  0  0.114318  0.108163  0  1.001034  0
H  H18  1  0.30325825  0.83646221  0.50795520  1  0.058353  0  0.114315  0.108153  0  1.001037  0
H  H19  1  0.30326597  0.66353515  0.99204369  1  0.058081  0  0.114321  0.108178  0  1.001076  0
H  H20  1  0.49415175  0.08671447  0.65206623  1  0.100588  0  0.116491  0.120547  0  1.002347  0
H  H21  1  0.49415371  0.41328545  0.84793303  1  0.100571  0  0.11647  0.120565  0  1.002304  0
H  H22  1  0.50584580  0.91328355  0.34793355  1  0.100585  0  0.116462  0.120509  0  1.002328  0
H  H23  1  0.50585283  0.58671348  0.15206546  1  0.100635  0  0.116467  0.120458  0  1.002412  0
H  H24  1  0.98856982  0.62911037  0.68193134  1  0.12744  0  0.115957  0.121894  0  1.000685  0
H  H25  1  0.98857180  0.87089179  0.81806939  1  0.127511  0  0.115969  0.121893  0  1.000639  0
H  H26  1  0.01142972  0.37089133  0.31806948  1  0.127496  0  0.115974  0.121912  0  1.000642  0
H  H27  1  0.01143074  0.12911083  0.18193192  1  0.127441  0  0.115968  0.121893  0  1.00058  0
H  H28  1  0.85005958  0.62917857  0.50238961  1  0.071779  0  0.102574  0.096973  0  1.032188  0
H  H29  1  0.85005937  0.87082354  0.99761114  1  0.071775  0  0.102591  0.096991  0  1.032189  0
H  H30  1  0.14994296  0.37082313  0.49761121  1  0.07177  0  0.102575  0.096945  0  1.032174  0
H  H31  1  0.14994217  0.12917632  0.00238960  1  0.07182  0  0.102567  0.096954  0  1.032186  0
H  H32  1  0.82738087  0.40013435  0.49514597  1  0.054542  0  0.102928  0.101154  0  0.999007  0
H  H33  1  0.82738006  0.09986621  0.00485431  1  0.054501  0  0.102968  0.101222  0  0.999064  0
H  H34  1  0.17262067  0.59986643  0.50485437  1  0.054492  0  0.102988  0.10126  0  0.999035  0
H  H35  1  0.17261848  0.90013182  0.99514635  1  0.054538  0  0.102951  0.101217  0  0.998972  0
H  H36  1  0.89959165  0.28642179  0.57958578  1  0.134389  0  0.114039  0.109912  0  1.052875  0
H  H37  1  0.89959046  0.21358009  0.92041480  1  0.134353  0  0.114013  0.109873  0  1.052892  0
H  H38  1  0.10040789  0.71357991  0.42041504  1  0.134471  0  0.114027  0.109914  0  1.052874  0
H  H39  1  0.10040508  0.78642162  0.07958646  1  0.134483  0  0.114017  0.109929  0  1.052885  0
H  H40  1  0.24442954  0.39197749  0.59257153  1  0.058802  0  0.107443  0.122357  0  0.98928  0
H  H41  1  0.24442933  0.10802419  0.90742785  1  0.058787  0  0.10744  0.122359  0  0.98928  0
H  H42  1  0.75557000  0.60802143  0.40742696  1  0.058808  0  0.107449  0.122364  0  0.989299  0
H  H43  1  0.75557021  0.89197658  0.09257116  1  0.058788  0  0.107452  0.122348  0  0.989266  0
H  H44  1  0.24135341  0.54105924  0.62929932  1  0.078404  0  0.109293  0.130405  0  0.969396  0
H  H45  1  0.24135337  0.95894177  0.87069930  1  0.078398  0  0.109297  0.130402  0  0.96938  0
H  H46  1  0.75864513  0.45893877  0.37069958  1  0.078373  0  0.109308  0.130424  0  0.969466  0
H  H47  1  0.75864417  0.04105992  0.12929931  1  0.07841  0  0.109313  0.130408  0  0.969376  0
H  H48  1  0.40330125  0.60372011  0.56050086  1  0.029334  0  0.092371  0.085704  0  1.007971  0
H  H49  1  0.40329912  0.89628004  0.93949901  1  0.029149  0  0.092377  0.085726  0  1.00798  0
H  H50  1  0.59670029  0.39627976  0.43949988  1  0.029324  0  0.092381  0.085696  0  1.008009  0
H  H51  1  0.59669843  0.10371889  0.06049948  1  0.029263  0  0.092377  0.08569  0  1.008006  0
H  H52  1  0.40808690  0.45255364  0.52584256  1  0.024038  0  0.092679  0.090465  0  1.01582  0
H  H53  1  0.40808560  0.04744626  0.97415715  1  0.024049  0  0.092689  0.090519  0  1.015819  0
H  H54  1  0.59191664  0.54744805  0.47415738  1  0.024139  0  0.0927  0.090543  0  1.015778  0
H  H55  1  0.59191394  0.95255175  0.02584130  1  0.023986  0  0.092706  0.09053  0  1.01587  0
H  H56  1  0.61309565  0.41808095  0.57169117  1  0.056986  0  0.097036  0.069378  0  1.029964  0
H  H57  1  0.61309540  0.08191809  0.92830935  1  0.057017  0  0.097023  0.069374  0  1.029939  0
H  H58  1  0.38690589  0.58191891  0.42831002  1  0.056978  0  0.097002  0.069363  0  1.029919  0
H  H59  1  0.38690414  0.91807900  0.07168906  1  0.056936  0  0.097042  0.069421  0  1.029933  0
H  H60  1  0.61158308  0.56975199  0.60653191  1  0.048002  0  0.101875  0.07883  0  0.980436  0
H  H61  1  0.61158201  0.93024822  0.89346881  1  0.047775  0  0.101869  0.078826  0  0.980468  0
H  H62  1  0.38841746  0.43024789  0.39347060  1  0.047922  0  0.101853  0.078807  0  0.980469  0
H  H63  1  0.38841654  0.06975070  0.10652969  1  0.047954  0  0.101863  0.078826  0  0.980493  0
H  H64  1  0.57094632  0.37981358  0.73627228  1  0.100303  0  0.118836  0.136241  0  1.000214  0
H  H65  1  0.57094826  0.12018636  0.76372785  1  0.100411  0  0.118845  0.13626  0  1.000198  0
H  H66  1  0.42905022  0.62018353  0.26372834  1  0.100443  0  0.118874  0.136282  0  1.000185  0
H  H67  1  0.42905028  0.87981349  0.23627113  1  0.100298  0  0.118848  0.136272  0  1.000133  0
H  H68  1  0.68780374  0.48163454  0.70649972  1  0.069303  0  0.110981  0.12386  0  0.980325  0
H  H69  1  0.68780360  0.01836452  0.79350034  1  0.069283  0  0.110973  0.123862  0  0.980326  0
H  H70  1  0.31219380  0.51836349  0.29350182  1  0.069257  0  0.11098  0.123864  0  0.980301  0
H  H71  1  0.31219494  0.98163441  0.20649815  1  0.069298  0  0.110954  0.123833  0  0.980367  0
H  H72  1  0.67785550  0.32478398  0.67645219  1  0.07667  0  0.106247  0.1209  0  1.009709  0
H  H73  1  0.67785740  0.17521599  0.82354791  1  0.07666  0  0.10625  0.120911  0  1.009685  0
H  H74  1  0.32214304  0.67521588  0.32354899  1  0.076655  0  0.106235  0.120918  0  1.009676  0
H  H75  1  0.32214215  0.82478385  0.17645062  1  0.07664  0  0.106232  0.120889  0  1.009711  0
C  C76  1  0.24085947  0.09412640  0.61030120  1  1.534204  0  0.235704  0.62259  0  4.179866  0
C  C77  1  0.24086139  0.40587529  0.88969907  1  1.534226  0  0.235667  0.622619  0  4.179847  0
C  C78  1  0.75913807  0.90587346  0.38969910  1  1.534379  0  0.235671  0.62266  0  4.179856  0
C  C79  1  0.75914315  0.59412640  0.11029998  1  1.534001  0  0.235653  0.62259  0  4.179814  0
C  C80  1  0.74008212  0.09708212  0.60330623  1  1.522856  0  0.214188  0.588305  0  4.221568  0
C  C81  1  0.74008403  0.40291787  0.89669387  1  1.522796  0  0.214282  0.588416  0  4.221429  0
C  C82  1  0.25991542  0.90291590  0.39669355  1  1.522871  0  0.214295  0.58839  0  4.221415  0
C  C83  1  0.25991851  0.59708290  0.10330559  1  1.522939  0  0.214185  0.588253  0  4.221521  0
C  C84  1  0.36660939  0.12378434  0.57882562  1  -0.073311  0  -0.012367  -0.049053  0  3.975875  0
C  C85  1  0.36661227  0.37621554  0.92117411  1  -0.073304  0  -0.012383  -0.049183  0  3.976054  0
C  C86  1  0.63338715  0.87621460  0.42117509  1  -0.07334  0  -0.012401  -0.049161  0  3.976118  0
C  C87  1  0.63339327  0.62378247  0.07882435  1  -0.073342  0  -0.01241  -0.049069  0  3.97592  0
C  C88  1  0.36187375  0.15615582  0.52027184  1  -0.06748  0  -0.070542  -0.082481  0  3.93827  0
C  C89  1  0.36187655  0.34384406  0.97972833  1  -0.067348  0  -0.070468  -0.082401  0  3.93832  0
C  C90  1  0.63812179  0.84384404  0.47972891  1  -0.06742  0  -0.070496  -0.082462  0  3.938449  0
C  C91  1  0.63812899  0.65615487  0.02027105  1  -0.067505  0  -0.070474  -0.082381  0  3.938264  0
C  C92  1  0.48044267  0.17441957  0.48979764  1  -0.113997  0  -0.08891  -0.088113  0  4.017194  0
C  C93  1  0.48044495  0.32557996  0.01020179  1  -0.114117  0  -0.088972  -0.088143  0  4.017231  0
C  C94  1  0.51955287  0.82558029  0.51020266  1  -0.114352  0  -0.088986  -0.088157  0  4.017267  0
C  C95  1  0.51955959  0.67441805  0.98979667  1  -0.113999  0  -0.088891  -0.088087  0  4.01714  0
C  C96  1  0.60363927  0.15574789  0.51647811  1  0.022521  0  -0.072557  -0.086994  0  3.963564  0
C  C97  1  0.60364106  0.34425298  0.98352161  1  0.022506  0  -0.072491  -0.086891  0  3.963396  0
C  C98  1  0.39635728  0.84425197  0.48352263  1  0.022817  0  -0.07246  -0.086892  0  3.963384  0
C  C99  1  0.39636348  0.65574595  0.01647689  1  0.022878  0  -0.072581  -0.087048  0  3.963585  0
C  C100  1  0.60903672  0.12377213  0.57503605  1  -0.000243  0  -0.015206  -0.043979  0  3.97616  0
C  C101  1  0.60903859  0.37622782  0.92496319  1  -0.000275  0  -0.015225  -0.044063  0  3.976142  0
C  C102  1  0.39096082  0.87622773  0.42496381  1  -0.0002  0  -0.015221  -0.043996  0  3.976154  0
C  C103  1  0.39096595  0.62377111  0.07503575  1  -0.000175  0  -0.015223  -0.043958  0  3.976253  0
C  C104  1  0.49017288  0.11128206  0.60653450  1  0.015953  0  -0.066433  -0.097312  0  3.914174  0
C  C105  1  0.49017379  0.38871878  0.89346524  1  0.015965  0  -0.066441  -0.097318  0  3.914222  0
C  C106  1  0.50982466  0.88871688  0.39346576  1  0.015971  0  -0.06645  -0.097297  0  3.914264  0
C  C107  1  0.50982975  0.61128015  0.10653325  1  0.015929  0  -0.066341  -0.097166  0  3.91436  0
C  C108  1  0.99294355  0.38140584  0.68652582  1  1.546055  0  0.236114  0.621218  0  4.190746  0
C  C109  1  0.99294544  0.11859516  0.81347560  1  1.54604  0  0.236154  0.62121  0  4.190746  0
C  C110  1  0.00705499  0.61859495  0.31347541  1  1.546012  0  0.236144  0.621189  0  4.190711  0
C  C111  1  0.00705311  0.88140471  0.18652514  1  1.545982  0  0.236125  0.621115  0  4.190828  0
C  C112  1  0.94675857  0.77849532  0.59298566  1  1.591669  0  0.225526  0.613969  0  4.224763  0
C  C113  1  0.94676040  0.72150591  0.90701548  1  1.591814  0  0.225413  0.613777  0  4.224953  0
C  C114  1  0.05324197  0.22150638  0.40701516  1  1.591824  0  0.225429  0.613871  0  4.224929  0
C  C115  1  0.05324414  0.27849395  0.09298571  1  1.591583  0  0.225437  0.613835  0  4.224726  0
C  C116  1  0.94578276  0.45048871  0.63650745  1  -0.050744  0  -0.017028  -0.058973  0  3.99793  0
C  C117  1  0.94578356  0.04951319  0.86349357  1  -0.050748  0  -0.017023  -0.058935  0  3.997895  0
C  C118  1  0.05421679  0.54951300  0.36349381  1  -0.050721  0  -0.016996  -0.058858  0  3.997861  0
C  C119  1  0.05421498  0.95048851  0.13650725  1  -0.050775  0  -0.017032  -0.058878  0  3.998003  0
C  C120  1  0.95319571  0.57897733  0.64104945  1  -0.048289  0  -0.071931  -0.109835  0  3.940264  0
C  C121  1  0.95319766  0.92102574  0.85895132  1  -0.048269  0  -0.07191  -0.109799  0  3.940115  0
C  C122  1  0.04680383  0.42102529  0.35895141  1  -0.048263  0  -0.071927  -0.10985  0  3.940193  0
C  C123  1  0.04680388  0.07897596  0.14104950  1  -0.04829  0  -0.071962  -0.109883  0  3.940172  0
C  C124  1  0.92095674  0.64273815  0.59215993  1  -0.052102  0  -0.020026  -0.053512  0  3.984597  0
C  C125  1  0.92095762  0.85726491  0.90784129  1  -0.052124  0  -0.020085  -0.053471  0  3.984452  0
C  C126  1  0.07904480  0.35726447  0.40784093  1  -0.052137  0  -0.02014  -0.053613  0  3.984648  0
C  C127  1  0.07904492  0.14273680  0.09216041  1  -0.052019  0  -0.020054  -0.053529  0  3.984661  0
C  C128  1  0.87302314  0.57784992  0.54012016  1  -0.019471  0  -0.078197  -0.08703  0  3.976408  0
C  C129  1  0.87302399  0.92215220  0.95988059  1  -0.019393  0  -0.078186  -0.087093  0  3.976445  0
C  C130  1  0.12697840  0.42215177  0.45988022  1  -0.019417  0  -0.078165  -0.086933  0  3.976365  0
C  C131  1  0.12697655  0.07784767  0.04012059  1  -0.019505  0  -0.078148  -0.086939  0  3.976311  0
C  C132  1  0.86182824  0.45039612  0.53616680  1  -0.029691  0  -0.089738  -0.087394  0  4.02869  0
C  C133  1  0.86182695  0.04960483  0.96383420  1  -0.029694  0  -0.089784  -0.087457  0  4.028802  0
C  C134  1  0.13817330  0.54960466  0.46383399  1  -0.029714  0  -0.089812  -0.087575  0  4.028836  0
C  C135  1  0.13817160  0.95039412  0.03616739  1  -0.029672  0  -0.089759  -0.087481  0  4.028683  0
C  C136  1  0.90150113  0.38633049  0.58357747  1  -0.055728  0  -0.075019  -0.088816  0  3.942026  0
C  C137  1  0.90149991  0.11367139  0.91642356  1  -0.055802  0  -0.074989  -0.088802  0  3.942031  0
C  C138  1  0.09849941  0.61367121  0.41642335  1  -0.055837  0  -0.075023  -0.088854  0  3.942085  0
C  C139  1  0.09849663  0.88632848  0.08357807  1  -0.055876  0  -0.075005  -0.08886  0  3.942031  0
C  C140  1  0.38632590  0.42168532  0.66285638  1  1.399608  0  0.255931  0.489449  0  4.088073  0
C  C141  1  0.38632975  0.07831367  0.83714463  1  1.399574  0  0.255916  0.489491  0  4.088031  0
C  C142  1  0.61367164  0.57831178  0.33714336  1  1.39969  0  0.255934  0.489443  0  4.08811  0
C  C143  1  0.61366879  0.92168710  0.16285439  1  1.399564  0  0.255924  0.489496  0  4.087897  0
C  C144  1  0.30859564  0.46680495  0.61191849  1  -0.060448  0  -0.152393  -0.284834  0  3.914014  0
C  C145  1  0.30859541  0.03319676  0.88808133  1  -0.06043  0  -0.152395  -0.284798  0  3.914034  0
C  C146  1  0.69140491  0.53319399  0.38808089  1  -0.060426  0  -0.152436  -0.284867  0  3.914131  0
C  C147  1  0.69140413  0.96680401  0.11191725  1  -0.060425  0  -0.152384  -0.284755  0  3.913883  0
C  C148  1  0.41502096  0.50714114  0.56877578  1  0.001279  0  -0.159023  -0.157404  0  3.907008  0
C  C149  1  0.41501987  0.99285993  0.93122414  1  0.001446  0  -0.159062  -0.157556  0  3.907108  0
C  C150  1  0.58498058  0.49285964  0.43122457  1  0.001177  0  -0.159087  -0.157542  0  3.907048  0
C  C151  1  0.58497967  0.00713992  0.06877440  1  0.001354  0  -0.159071  -0.157487  0  3.907042  0
C  C152  1  0.55139787  0.48554517  0.59837679  1  0.287227  0  -0.057334  -0.058469  0  3.869694  0
C  C153  1  0.55139662  0.01445386  0.90162418  1  0.287421  0  -0.057306  -0.058398  0  3.869703  0
C  C154  1  0.44860267  0.51445470  0.40162439  1  0.287296  0  -0.057266  -0.058378  0  3.869626  0
C  C155  1  0.44860092  0.98554415  0.09837516  1  0.287288  0  -0.057287  -0.058468  0  3.869662  0
C  C156  1  0.61963776  0.40403343  0.69565131  1  0.249377  0  -0.124027  -0.2592  0  3.894166  0
C  C157  1  0.61963964  0.09596561  0.80434877  1  0.249391  0  -0.124028  -0.259206  0  3.894103  0
C  C158  1  0.38035979  0.59596460  0.30434935  1  0.24938  0  -0.124053  -0.259253  0  3.894093  0
C  C159  1  0.38035890  0.90403423  0.19564977  1  0.249431  0  -0.124032  -0.259197  0  3.894086  0
N  N160  1  0.51781321  0.43771252  0.65452558  1  -1.178322  0  -0.271735  -0.049085  0  3.642869  0
N  N161  1  0.51781404  0.06228833  0.84547504  1  -1.178329  0  -0.271691  -0.049116  0  3.642976  0
N  N162  1  0.48218533  0.56228551  0.34547509  1  -1.178315  0  -0.271757  -0.049133  0  3.642873  0
N  N163  1  0.48218450  0.93771152  0.15452438  1  -1.178319  0  -0.271716  -0.049126  0  3.642999  0
O  O164  1  0.14019758  0.05572129  0.57893520  1  -1.246051  0  -0.404067  -0.677162  0  2.277941  0
O  O165  1  0.14019948  0.44427853  0.92106457  1  -1.246018  0  -0.404038  -0.677127  0  2.277931  0
O  O166  1  0.85979996  0.94427948  0.42106470  1  -1.246002  0  -0.404039  -0.677161  0  2.277884  0
O  O167  1  0.85980506  0.55572041  0.07893525  1  -1.245949  0  -0.404012  -0.67718  0  2.277946  0
O  O168  1  0.23606178  0.10418234  0.66661661  1  -1.180228  0  -0.363205  -0.635252  0  2.230394  0
O  O169  1  0.23606176  0.39581751  0.83338314  1  -1.180233  0  -0.363198  -0.635257  0  2.230376  0
O  O170  1  0.76393576  0.89581477  0.33338357  1  -1.180372  0  -0.363178  -0.635273  0  2.230408  0
O  O171  1  0.76394078  0.60418142  0.16661536  1  -1.180154  0  -0.36321  -0.635293  0  2.23042  0
O  O172  1  0.84494187  0.08585496  0.57020258  1  -1.240021  0  -0.396418  -0.686805  0  2.274218  0
O  O173  1  0.84494375  0.41414598  0.92979754  1  -1.24005  0  -0.396437  -0.686813  0  2.274219  0
O  O174  1  0.15505567  0.91414765  0.42979784  1  -1.240066  0  -0.396465  -0.686807  0  2.274195  0
O  O175  1  0.15505979  0.58585572  0.07020284  1  -1.240087  0  -0.396414  -0.686759  0  2.274188  0
O  O176  1  0.74462982  0.08671589  0.65860261  1  -1.172692  0  -0.357015  -0.592899  0  2.105475  0
O  O177  1  0.74463079  0.41328502  0.84139620  1  -1.172647  0  -0.357065  -0.592955  0  2.105407  0
O  O178  1  0.25536772  0.91328488  0.34139684  1  -1.172703  0  -0.357064  -0.592949  0  2.10543  0
O  O179  1  0.25537175  0.58671667  0.15860286  1  -1.172692  0  -0.357024  -0.592885  0  2.105427  0
O  O180  1  0.01226628  0.26568562  0.67666535  1  -1.245262  0  -0.39125  -0.681332  0  2.302439  0
O  O181  1  0.01226620  0.23431600  0.82333496  1  -1.245291  0  -0.391245  -0.681309  0  2.302536  0
O  O182  1  0.98773126  0.73431608  0.32333547  1  -1.245296  0  -0.391249  -0.681326  0  2.302503  0
O  O183  1  0.98773334  0.76568478  0.17666582  1  -1.245282  0  -0.391263  -0.681291  0  2.302507  0
O  O184  1  0.01922234  0.43964359  0.73653018  1  -1.233084  0  -0.372519  -0.64183  0  2.203846  0
O  O185  1  0.01922525  0.06035712  0.76347053  1  -1.233021  0  -0.37256  -0.641867  0  2.203765  0
O  O186  1  0.98077820  0.56035811  0.26347064  1  -1.233008  0  -0.37254  -0.64183  0  2.203754  0
O  O187  1  0.98077229  0.93964367  0.23653070  1  -1.232976  0  -0.372508  -0.641808  0  2.203756  0
O  O188  1  0.95038059  0.82190275  0.54261179  1  -1.227555  0  -0.382892  -0.655376  0  2.221053  0
O  O189  1  0.95038435  0.67809940  0.95738939  1  -1.227509  0  -0.382849  -0.655304  0  2.221169  0
O  O190  1  0.04961795  0.17809895  0.45738859  1  -1.227568  0  -0.382817  -0.655302  0  2.221172  0
O  O191  1  0.04962119  0.32190138  0.04261139  1  -1.227567  0  -0.38283  -0.655285  0  2.220939  0
O  O192  1  0.96582423  0.84000375  0.64270037  1  -1.21437  0  -0.382267  -0.629707  0  2.142605  0
O  O193  1  0.96582609  0.65999840  0.85730036  1  -1.214537  0  -0.382215  -0.629646  0  2.142644  0
O  O194  1  0.03417531  0.15999795  0.35730001  1  -1.214503  0  -0.382216  -0.629682  0  2.142617  0
O  O195  1  0.03417945  0.34000330  0.14270046  1  -1.214293  0  -0.382244  -0.629695  0  2.14262  0
O  O196  1  0.33693466  0.37635214  0.70656714  1  -1.218383  0  -0.36834  -0.578534  0  2.280017  0
O  O197  1  0.33693457  0.12365048  0.79343139  1  -1.218332  0  -0.368342  -0.578574  0  2.27985  0
O  O198  1  0.66306188  0.62364403  0.29343124  1  -1.218444  0  -0.368276  -0.578459  0  2.280029  0
O  O199  1  0.66306498  0.87635029  0.20656807  1  -1.218281  0  -0.368362  -0.578619  0  2.279769  0
