# generated using pymatgen
data_CuH10C10I(N3O)2
_symmetry_space_group_name_H-M   'P 1'
_cell_length_a   4.15923629
_cell_length_b   5.93024888
_cell_length_c   26.26308183
_cell_angle_alpha   90.00067166
_cell_angle_beta   89.99973194
_cell_angle_gamma   99.26289995
_symmetry_Int_Tables_number   1
_chemical_formula_structural   CuH10C10I(N3O)2
_chemical_formula_sum   'Cu2 H20 C20 I2 N12 O4'
_cell_volume   639.33991457
_cell_formula_units_Z   2
loop_
 _symmetry_equiv_pos_site_id
 _symmetry_equiv_pos_as_xyz
  1  'x, y, z'
loop_
 _atom_site_type_symbol
 _atom_site_label
 _atom_site_symmetry_multiplicity
 _atom_site_fract_x
 _atom_site_fract_y
 _atom_site_fract_z
 _atom_site_occupancy
 _atom_site_hle17_bader_spin_density
 _atom_site_hle17_ddec_charge
 _atom_site_hle17_ddec_spin_density
 _atom_site_hle17_ddec_sum_bond_order
 _atom_site_hle17_magmom
 _atom_site_hse06_10hf_bader_spin_density
 _atom_site_hse06_10hf_ddec_charge
 _atom_site_hse06_10hf_ddec_spin_density
 _atom_site_hse06_10hf_ddec_sum_bond_order
 _atom_site_hse06_10hf_magmom
 _atom_site_hse06_bader_spin_density
 _atom_site_hse06_ddec_charge
 _atom_site_hse06_ddec_spin_density
 _atom_site_hse06_ddec_sum_bond_order
 _atom_site_hse06_magmom
 _atom_site_pbe_bader_spin_density
 _atom_site_pbe_cm5_charge
 _atom_site_pbe_ddec_charge
 _atom_site_pbe_ddec_spin_density
 _atom_site_pbe_ddec_sum_bond_order
 _atom_site_pbe_magmom
Cu  Cu0  1  0.47097115  0.23350522  0.74999935  1  0  0.383231  0  1.984836  0  0  0.271454  0  2.463513  0  0  0.268123  0  2.422901  0  0  0.407055  0.277116  0  2.488082  0
Cu  Cu1  1  0.52902232  0.76650263  0.24999989  1  0  0.383288  0  1.984805  0  0  0.271421  0  2.46353  0  0  0.268162  0  2.422834  0  0  0.40704  0.277132  0  2.488115  0
H  H2  1  0.75828002  0.09396672  0.65435733  1  0  0.092064  0  0.984226  0  0  0.093677  0  1.059414  0  0  0.098113  0  1.05575  0  0  0.103204  0.09029  0  1.06247  0
H  H3  1  0.75831200  0.09395771  0.84563533  1  0  0.091894  0  0.984271  0  0  0.09358  0  1.059385  0  0  0.098016  0  1.055707  0  0  0.103182  0.090193  0  1.062445  0
H  H4  1  0.24169658  0.90604094  0.34564268  1  0  0.092013  0  0.984264  0  0  0.093648  0  1.059407  0  0  0.098082  0  1.055739  0  0  0.103187  0.090265  0  1.062461  0
H  H5  1  0.24167748  0.90601941  0.15436011  1  0  0.092052  0  0.984302  0  0  0.093663  0  1.059467  0  0  0.098106  0  1.055797  0  0  0.103165  0.090273  0  1.062521  0
H  H6  1  0.26907590  0.75044263  0.60383995  1  0  0.101346  0  0.934924  0  0  0.109598  0  0.995483  0  0  0.112757  0  0.993912  0  0  0.121391  0.107266  0  0.996986  0
H  H7  1  0.26909639  0.75042473  0.89616817  1  0  0.101217  0  0.935117  0  0  0.109516  0  0.9956  0  0  0.112664  0  0.994049  0  0  0.121403  0.107186  0  0.997109  0
H  H8  1  0.73093969  0.24957908  0.39616348  1  0  0.10135  0  0.934967  0  0  0.109568  0  0.995566  0  0  0.112719  0  0.994011  0  0  0.121386  0.10724  0  0.997066  0
H  H9  1  0.73090996  0.24955257  0.10383602  1  0  0.10128  0  0.93495  0  0  0.109514  0  0.995534  0  0  0.112665  0  0.993978  0  0  0.121378  0.107183  0  0.997033  0
H  H10  1  0.27974337  0.63434501  0.69489313  1  0  0.084954  0  0.984725  0  0  0.088985  0  1.058768  0  0  0.093541  0  1.054611  0  0  0.09637  0.085383  0  1.062292  0
H  H11  1  0.27976723  0.63434531  0.80511401  1  0  0.084919  0  0.984756  0  0  0.088956  0  1.058767  0  0  0.093509  0  1.054607  0  0  0.096354  0.085345  0  1.062321  0
H  H12  1  0.72023619  0.36564223  0.30510878  1  0  0.084956  0  0.984688  0  0  0.088984  0  1.05873  0  0  0.093539  0  1.054574  0  0  0.096389  0.085379  0  1.062282  0
H  H13  1  0.72022510  0.36564548  0.19488943  1  0  0.084866  0  0.984873  0  0  0.088938  0  1.058839  0  0  0.093482  0  1.054694  0  0  0.09636  0.085337  0  1.062396  0
H  H14  1  0.66123839  0.36365647  0.49431278  1  0  0.319992  0  0.927674  0  0  0.288444  0  1.019513  0  0  0.29776  0  1.010563  0  0  0.297144  0.28183  0  1.025808  0
H  H15  1  0.66123318  0.36363261  0.00569039  1  0  0.31999  0  0.927544  0  0  0.288499  0  1.019347  0  0  0.297814  0  1.010393  0  0  0.297134  0.28189  0  1.025648  0
H  H16  1  0.33878487  0.63637896  0.50568380  1  0  0.320089  0  0.927443  0  0  0.288579  0  1.019259  0  0  0.297894  0  1.010304  0  0  0.29718  0.281967  0  1.025562  0
H  H17  1  0.33880110  0.63635181  0.99431305  1  0  0.320043  0  0.92757  0  0  0.288523  0  1.019361  0  0  0.29784  0  1.010407  0  0  0.297129  0.281915  0  1.025666  0
H  H18  1  0.88957908  0.14637530  0.47758565  1  0  0.34043  0  0.925126  0  0  0.321082  0  0.986298  0  0  0.330836  0  0.97813  0  0  0.295877  0.314196  0  0.992021  0
H  H19  1  0.88955811  0.14634890  0.02241096  1  0  0.340467  0  0.925107  0  0  0.321068  0  0.986342  0  0  0.330826  0  0.978166  0  0  0.295922  0.314183  0  0.992076  0
H  H20  1  0.11044453  0.85366184  0.52241208  1  0  0.340419  0  0.925128  0  0  0.321038  0  0.986317  0  0  0.330788  0  0.978155  0  0  0.295904  0.314157  0  0.992034  0
H  H21  1  0.11045725  0.85363702  0.97758753  1  0  0.340449  0  0.925029  0  0  0.321061  0  0.986256  0  0  0.330817  0  0.978084  0  0  0.295887  0.314179  0  0.991986  0
C  C22  1  0.64704840  0.24075222  0.64319085  1  0  0.071164  0  3.63873  0  0  0.032178  0  3.885294  0  0  0.037384  0  3.897752  0  0  0.047059  0.028638  0  3.877831  0
C  C23  1  0.64709355  0.24076280  0.85680783  1  0  0.071514  0  3.638952  0  0  0.032536  0  3.885439  0  0  0.03775  0  3.897899  0  0  0.047126  0.029  0  3.877968  0
C  C24  1  0.35291706  0.75923657  0.35680839  1  0  0.071375  0  3.638999  0  0  0.03241  0  3.885469  0  0  0.037612  0  3.897933  0  0  0.047151  0.028874  0  3.878002  0
C  C25  1  0.35290360  0.75922804  0.14319218  1  0  0.071198  0  3.639026  0  0  0.032307  0  3.885513  0  0  0.037497  0  3.897987  0  0  0.047117  0.028774  0  3.878043  0
C  C26  1  0.64199551  0.30807732  0.59241737  1  0  0.051455  0  3.755656  0  0  0.062696  0  3.998695  0  0  0.05883  0  4.017924  0  0  0.117125  0.064855  0  3.986018  0
C  C27  1  0.64202247  0.30805849  0.90757878  1  0  0.051247  0  3.75641  0  0  0.062414  0  3.999571  0  0  0.058521  0  4.018828  0  0  0.116974  0.064572  0  3.986887  0
C  C28  1  0.35798563  0.69194062  0.40758226  1  0  0.051231  0  3.756095  0  0  0.062461  0  3.999094  0  0  0.058599  0  4.018316  0  0  0.116926  0.064616  0  3.986415  0
C  C29  1  0.35798700  0.69192225  0.09242047  1  0  0.051501  0  3.755691  0  0  0.062614  0  3.998857  0  0  0.058755  0  4.018075  0  0  0.11701  0.064772  0  3.98616  0
C  C30  1  0.38079269  0.60272998  0.61452247  1  0  0.082073  0  3.666846  0  0  0.058426  0  3.926215  0  0  0.058702  0  3.941357  0  0  0.051914  0.057882  0  3.916525  0
C  C31  1  0.38082130  0.60273706  0.88548306  1  0  0.082439  0  3.666633  0  0  0.058745  0  3.926035  0  0  0.059017  0  3.94118  0  0  0.052004  0.058195  0  3.916363  0
C  C32  1  0.61919453  0.39727098  0.38548020  1  0  0.082187  0  3.66663  0  0  0.058539  0  3.926055  0  0  0.058812  0  3.941203  0  0  0.051958  0.05799  0  3.916376  0
C  C33  1  0.61918031  0.39725212  0.11451847  1  0  0.082244  0  3.666783  0  0  0.058617  0  3.926153  0  0  0.058894  0  3.941288  0  0  0.051962  0.058073  0  3.916464  0
C  C34  1  0.38587480  0.53870004  0.66558573  1  0  0.07927  0  3.638873  0  0  0.048189  0  3.891585  0  0  0.054473  0  3.902568  0  0  0.040542  0.043335  0  3.885914  0
C  C35  1  0.38588273  0.53868836  0.83441664  1  0  0.079376  0  3.638775  0  0  0.04829  0  3.891517  0  0  0.054586  0  3.902487  0  0  0.040564  0.043429  0  3.885857  0
C  C36  1  0.61411867  0.46130780  0.33441390  1  0  0.079367  0  3.638729  0  0  0.04828  0  3.891444  0  0  0.054556  0  3.902448  0  0  0.04055  0.043405  0  3.885801  0
C  C37  1  0.61412299  0.46129746  0.16558528  1  0  0.079453  0  3.63875  0  0  0.048311  0  3.891559  0  0  0.05462  0  3.902511  0  0  0.040507  0.043432  0  3.885906  0
C  C38  1  0.79960886  0.17428652  0.55377705  1  0  0.583246  0  3.862867  0  0  0.533197  0  4.15025  0  0  0.562548  0  4.150111  0  0  0.239376  0.513502  0  4.149712  0
C  C39  1  0.79960213  0.17427657  0.94622071  1  0  0.58321  0  3.862635  0  0  0.533175  0  4.150057  0  0  0.562539  0  4.149919  0  0  0.239382  0.513489  0  4.149504  0
C  C40  1  0.20039228  0.82573505  0.44622258  1  0  0.58312  0  3.862916  0  0  0.533191  0  4.150108  0  0  0.562544  0  4.149974  0  0  0.239372  0.513502  0  4.149547  0
C  C41  1  0.20040698  0.82570247  0.05377778  1  0  0.583306  0  3.862517  0  0  0.533361  0  4.149805  0  0  0.562713  0  4.149666  0  0  0.239455  0.513671  0  4.149247  0
I  I42  1  0.92968002  0.93359533  0.74999312  1  0  -0.499318  0  1.405219  0  0  -0.442747  0  1.828038  0  0  -0.465892  0  1.796406  0  0  -0.205647  -0.424918  0  1.849089  0
I  I43  1  0.07031827  0.06641256  0.24999851  1  0  -0.499368  0  1.405308  0  0  -0.442751  0  1.828059  0  0  -0.465919  0  1.796411  0  0  -0.205657  -0.424928  0  1.849133  0
N  N44  1  0.51665605  0.35444216  0.68031838  1  0  -0.235839  0  3.378814  0  0  -0.161686  0  3.67355  0  0  -0.166021  0  3.676233  0  0  -0.35298  -0.159802  0  3.67177  0
N  N45  1  0.51668690  0.35443322  0.81968055  1  0  -0.236173  0  3.378843  0  0  -0.162006  0  3.673605  0  0  -0.16634  0  3.676282  0  0  -0.353029  -0.160123  0  3.671836  0
N  N46  1  0.48331742  0.64556206  0.31968239  1  0  -0.23603  0  3.37898  0  0  -0.161834  0  3.673691  0  0  -0.166178  0  3.676386  0  0  -0.352954  -0.159956  0  3.671944  0
N  N47  1  0.48331194  0.64555423  0.18031946  1  0  -0.23605  0  3.378692  0  0  -0.161883  0  3.673426  0  0  -0.166231  0  3.676127  0  0  -0.35293  -0.160011  0  3.671669  0
N  N48  1  0.50622977  0.48819909  0.57739875  1  0  -0.270775  0  3.063499  0  0  -0.23595  0  3.321536  0  0  -0.239512  0  3.335312  0  0  -0.291201  -0.233014  0  3.312061  0
N  N49  1  0.50626031  0.48817784  0.92260500  1  0  -0.270802  0  3.063662  0  0  -0.235966  0  3.321722  0  0  -0.239523  0  3.335507  0  0  -0.291148  -0.23303  0  3.312251  0
N  N50  1  0.49376101  0.51181895  0.42260240  1  0  -0.270784  0  3.063497  0  0  -0.235952  0  3.321517  0  0  -0.239526  0  3.335302  0  0  -0.291167  -0.233014  0  3.312039  0
N  N51  1  0.49376362  0.51180306  0.07739615  1  0  -0.270822  0  3.063367  0  0  -0.235966  0  3.321431  0  0  -0.239537  0  3.335207  0  0  -0.291151  -0.233036  0  3.311955  0
N  N52  1  0.78427496  0.23620823  0.50525158  1  0  -0.653156  0  3.139405  0  0  -0.613488  0  3.384258  0  0  -0.637869  0  3.378595  0  0  -0.559923  -0.596582  0  3.387705  0
N  N53  1  0.78427092  0.23618771  0.99474897  1  0  -0.653089  0  3.139271  0  0  -0.613452  0  3.384104  0  0  -0.637834  0  3.378423  0  0  -0.559936  -0.596553  0  3.387567  0
N  N54  1  0.21574687  0.76382037  0.49474463  1  0  -0.653055  0  3.139489  0  0  -0.613463  0  3.384316  0  0  -0.637836  0  3.378652  0  0  -0.559855  -0.596566  0  3.387762  0
N  N55  1  0.21575756  0.76380347  0.00525523  1  0  -0.653208  0  3.139793  0  0  -0.613566  0  3.384672  0  0  -0.637948  0  3.379004  0  0  -0.559834  -0.59667  0  3.388134  0
O  O56  1  0.94021998  0.01391441  0.56884784  1  0  -0.58812  0  1.945058  0  0  -0.539634  0  2.16785  0  0  -0.562603  0  2.162979  0  0  -0.306585  -0.523805  0  2.170955  0
O  O57  1  0.94024887  0.01389878  0.93115148  1  0  -0.588195  0  1.944731  0  0  -0.539724  0  2.167508  0  0  -0.562657  0  2.162537  0  0  -0.306635  -0.523896  0  2.17061  0
O  O58  1  0.05976188  0.98610695  0.43114760  1  0  -0.5882  0  1.944718  0  0  -0.539808  0  2.167462  0  0  -0.562743  0  2.162503  0  0  -0.306714  -0.523981  0  2.170558  0
O  O59  1  0.05972303  0.98607474  0.06885348  1  0  -0.588305  0  1.944186  0  0  -0.53986  0  2.166938  0  0  -0.562834  0  2.162064  0  0  -0.306769  -0.524029  0  2.170034  0
