# generated using pymatgen
data_InH11C12O5
_symmetry_space_group_name_H-M   'P 1'
_cell_length_a   14.71202409
_cell_length_b   18.66803267
_cell_length_c   24.30165094
_cell_angle_alpha   89.99994470
_cell_angle_beta   89.99998801
_cell_angle_gamma   104.85238438
_symmetry_Int_Tables_number   1
_chemical_formula_structural   InH11C12O5
_chemical_formula_sum   'In12 H132 C144 O60'
_cell_volume   6451.32323402
_cell_formula_units_Z   12
loop_
 _symmetry_equiv_pos_site_id
 _symmetry_equiv_pos_as_xyz
  1  'x, y, z'
loop_
 _atom_site_type_symbol
 _atom_site_label
 _atom_site_symmetry_multiplicity
 _atom_site_fract_x
 _atom_site_fract_y
 _atom_site_fract_z
 _atom_site_occupancy
 _atom_site_pbe_bader_charge
 _atom_site_pbe_bader_spin_density
 _atom_site_pbe_cm5_charge
 _atom_site_pbe_ddec_charge
 _atom_site_pbe_ddec_spin_density
 _atom_site_pbe_ddec_sum_bond_order
 _atom_site_pbe_magmom
In  In0  1  0.00000007  0.49999963  0.49999959  1  1.934994  0  0.756729  1.516854  0  2.755696  0
In  In1  1  0.99999800  0.99999975  0.99999912  1  1.934984  0  0.756728  1.516893  0  2.755662  0
In  In2  1  0.88072235  0.31111622  0.53076212  1  1.955936  0  0.764342  1.534711  0  2.826687  0
In  In3  1  0.11928014  0.18888331  0.03075874  1  1.955984  0  0.764276  1.534616  0  2.826868  0
In  In4  1  0.11927788  0.68888409  0.46924070  1  1.955948  0  0.76428  1.534586  0  2.826908  0
In  In5  1  0.88072308  0.81111367  0.96924902  1  1.956004  0  0.764298  1.534599  0  2.826905  0
In  In6  1  0.66784821  0.16823320  0.53278510  1  1.93067  0  0.755765  1.507707  0  2.754782  0
In  In7  1  0.33214884  0.33176633  0.03278816  1  1.930681  0  0.755683  1.507564  0  2.754982  0
In  In8  1  0.33214908  0.83176434  0.46721237  1  1.93062  0  0.755722  1.507646  0  2.754926  0
In  In9  1  0.66785016  0.66823232  0.96721301  1  1.930728  0  0.755746  1.507691  0  2.754869  0
In  In10  1  0.49999848  0.99999847  0.49999896  1  1.939743  0  0.758891  1.519873  0  2.813829  0
In  In11  1  0.49999823  0.49999829  0.00000102  1  1.939681  0  0.758925  1.519925  0  2.813691  0
H  H12  1  0.52811139  0.08399315  0.58916197  1  0.594576  0  0.323158  0.400538  0  0.89315  0
H  H13  1  0.47191496  0.41598578  0.08915261  1  0.594539  0  0.323102  0.400687  0  0.892967  0
H  H14  1  0.47191896  0.91598277  0.41084908  1  0.594277  0  0.323116  0.400718  0  0.892914  0
H  H15  1  0.52810736  0.58399678  0.91084075  1  0.59451  0  0.32313  0.400628  0  0.893053  0
H  H16  1  0.77019738  0.23796735  0.45385010  1  0.62348  0  0.31796  0.399912  0  0.900679  0
H  H17  1  0.22980649  0.26203268  0.95384990  1  0.623365  0  0.317931  0.399877  0  0.900737  0
H  H18  1  0.22980688  0.76203074  0.54614984  1  0.623544  0  0.317985  0.399931  0  0.900659  0
H  H19  1  0.77019491  0.73796707  0.04615086  1  0.623378  0  0.317964  0.399878  0  0.900716  0
H  H20  1  0.83159934  0.44020117  0.53968452  1  0.610137  0  0.321422  0.40427  0  0.889261  0
H  H21  1  0.16840350  0.05979945  0.03968410  1  0.610118  0  0.321441  0.404278  0  0.889237  0
H  H22  1  0.16840225  0.55979913  0.46031501  1  0.610109  0  0.321507  0.404312  0  0.889177  0
H  H23  1  0.83160112  0.94019975  0.96031542  1  0.610197  0  0.32142  0.404198  0  0.88932  0
H  H24  1  0.76945123  0.96106611  0.41179713  1  0.050377  0  0.110138  0.132148  0  0.978647  0
H  H25  1  0.23054320  0.53893450  0.91180245  1  0.050376  0  0.110102  0.13212  0  0.978516  0
H  H26  1  0.23054356  0.03893419  0.58819663  1  0.050379  0  0.110106  0.132119  0  0.978566  0
H  H27  1  0.76945208  0.46106525  0.08820202  1  0.050352  0  0.110128  0.132115  0  0.978694  0
H  H28  1  0.83465239  0.12756596  0.38506674  1  0.062364  0  0.10964  0.10273  0  0.984298  0
H  H29  1  0.16534764  0.37243473  0.88506647  1  0.062432  0  0.109655  0.10274  0  0.984317  0
H  H30  1  0.16534870  0.87243490  0.61493402  1  0.062439  0  0.109656  0.102736  0  0.984264  0
H  H31  1  0.83465259  0.62756558  0.11493306  1  0.062422  0  0.10964  0.102713  0  0.984301  0
H  H32  1  0.80805910  0.05990568  0.22508834  1  0.049373  0  0.094559  0.135988  0  1.007159  0
H  H33  1  0.19194260  0.44009578  0.72509007  1  0.049411  0  0.094505  0.135922  0  1.007191  0
H  H34  1  0.19194077  0.94009351  0.77491078  1  0.049408  0  0.094583  0.136025  0  1.007137  0
H  H35  1  0.80805917  0.55990508  0.27491193  1  0.049335  0  0.094547  0.135963  0  1.007194  0
H  H36  1  0.76304011  0.06732271  0.29234303  1  0.037863  0  0.091477  0.129102  0  1.007657  0
H  H37  1  0.23695877  0.43267644  0.79234476  1  0.037771  0  0.091489  0.129082  0  1.00763  0
H  H38  1  0.23695839  0.93267648  0.70765568  1  0.037791  0  0.091473  0.129097  0  1.007645  0
H  H39  1  0.76304042  0.56732276  0.20765724  1  0.037882  0  0.091483  0.129106  0  1.007638  0
H  H40  1  0.84675394  0.14292589  0.26304005  1  0.004228  0  0.092898  0.126441  0  0.994932  0
H  H41  1  0.15324483  0.35707496  0.76304061  1  0.004236  0  0.092907  0.126418  0  0.994939  0
H  H42  1  0.15324561  0.85707441  0.73695907  1  0.004241  0  0.092924  0.126457  0  0.994935  0
H  H43  1  0.84675404  0.64292534  0.23696056  1  0.004236  0  0.092889  0.126427  0  0.994955  0
H  H44  1  0.10700238  0.98478035  0.20700984  1  0.047288  0  0.09379  0.131351  0  1.016063  0
H  H45  1  0.89299883  0.51522000  0.70700810  1  0.047255  0  0.093789  0.131358  0  1.015979  0
H  H46  1  0.89299731  0.01521829  0.79299174  1  0.047256  0  0.093793  0.131357  0  1.015976  0
H  H47  1  0.10700501  0.48478308  0.29298978  1  0.047119  0  0.093805  0.131366  0  1.016028  0
H  H48  1  0.18050074  0.99617531  0.26544167  1  0.045563  0  0.095282  0.133867  0  1.00816  0
H  H49  1  0.81949698  0.50382274  0.76543870  1  0.045551  0  0.095316  0.133899  0  1.008061  0
H  H50  1  0.81949726  0.00382444  0.73456074  1  0.045539  0  0.09531  0.13389  0  1.008095  0
H  H51  1  0.18050338  0.49617590  0.23455753  1  0.045567  0  0.095289  0.133829  0  1.008193  0
H  H52  1  0.09784891  0.91053945  0.25452640  1  0.010958  0  0.092631  0.129868  0  1.007902  0
H  H53  1  0.90215036  0.58945917  0.75452542  1  0.010822  0  0.09262  0.129861  0  1.007979  0
H  H54  1  0.90215163  0.08945975  0.74547601  1  0.010814  0  0.09261  0.129858  0  1.007977  0
H  H55  1  0.09784969  0.41054058  0.24547452  1  0.01082  0  0.092615  0.129866  0  1.007972  0
H  H56  1  0.97457967  0.07620889  0.45183835  1  0.056343  0  0.091498  0.13123  0  1.003002  0
H  H57  1  0.02541278  0.42378948  0.95183929  1  0.056321  0  0.091471  0.131182  0  1.002979  0
H  H58  1  0.02541593  0.92378975  0.54816159  1  0.056314  0  0.091469  0.131193  0  1.002971  0
H  H59  1  0.97458219  0.57621138  0.04816147  1  0.056271  0  0.091465  0.131185  0  1.003044  0
H  H60  1  0.93757594  0.97917760  0.45767795  1  0.02467  0  0.092113  0.127553  0  1.011672  0
H  H61  1  0.06241469  0.52082184  0.95767795  1  0.024707  0  0.092129  0.127585  0  1.011702  0
H  H62  1  0.06241916  0.02082160  0.54232240  1  0.024676  0  0.092142  0.127609  0  1.011633  0
H  H63  1  0.93757910  0.47917958  0.04232158  1  0.024746  0  0.092142  0.12761  0  1.011645  0
H  H64  1  0.05850329  0.02212863  0.44892422  1  0.050206  0  0.089933  0.1276  0  1.022995  0
H  H65  1  0.94148763  0.47786919  0.94892377  1  0.050263  0  0.089926  0.127613  0  1.022857  0
H  H66  1  0.94149078  0.97786946  0.55107572  1  0.050302  0  0.089883  0.127551  0  1.022897  0
H  H67  1  0.05850716  0.52213111  0.05107576  1  0.050144  0  0.089896  0.127568  0  1.022944  0
H  H68  1  0.97843930  0.98324989  0.17666782  1  0.108945  0  0.110039  0.108094  0  0.99344  0
H  H69  1  0.02156175  0.51674994  0.67666824  1  0.108973  0  0.110008  0.108036  0  0.993451  0
H  H70  1  0.02156210  0.01674986  0.82333171  1  0.108933  0  0.11002  0.108053  0  0.99343  0
H  H71  1  0.97844137  0.48325092  0.32333170  1  0.108958  0  0.110065  0.108137  0  0.993399  0
H  H72  1  0.95057985  0.14044083  0.18292409  1  0.056047  0  0.108656  0.128644  0  0.999348  0
H  H73  1  0.04942133  0.35955904  0.68292466  1  0.05602  0  0.108659  0.128624  0  0.999401  0
H  H74  1  0.04942105  0.85955948  0.81707544  1  0.056034  0  0.108654  0.128646  0  0.999352  0
H  H75  1  0.95058007  0.64044071  0.31707569  1  0.056047  0  0.108652  0.12866  0  0.999337  0
H  H76  1  0.17565729  0.96142305  0.35258802  1  0.090108  0  0.108999  0.106106  0  0.993841  0
H  H77  1  0.82434027  0.53857876  0.85258668  1  0.090045  0  0.10901  0.10618  0  0.993945  0
H  H78  1  0.82434094  0.03857948  0.64741274  1  0.090052  0  0.109  0.106159  0  0.993937  0
H  H79  1  0.17565810  0.46142210  0.14741079  1  0.0901  0  0.108999  0.106075  0  0.993859  0
H  H80  1  0.00049271  0.88177190  0.41847453  1  0.050881  0  0.108686  0.13096  0  0.985849  0
H  H81  1  0.99950556  0.61822593  0.91847229  1  0.050947  0  0.108635  0.130854  0  0.98582  0
H  H82  1  0.99950557  0.11822453  0.58152582  1  0.050913  0  0.108669  0.130947  0  0.985853  0
H  H83  1  0.00049294  0.38177327  0.08152518  1  0.050875  0  0.108677  0.130948  0  0.985864  0
H  H84  1  0.16813536  0.36035312  0.39615689  1  0.097448  0  0.108962  0.131549  0  0.979408  0
H  H85  1  0.83186683  0.13964589  0.89615712  1  0.097519  0  0.109006  0.131568  0  0.979394  0
H  H86  1  0.83186400  0.63964663  0.60384099  1  0.097466  0  0.108966  0.131551  0  0.979396  0
H  H87  1  0.16813765  0.86035497  0.10384282  1  0.097385  0  0.109012  0.13161  0  0.97938  0
H  H88  1  0.01363699  0.21568384  0.41288833  1  0.103662  0  0.109438  0.102628  0  0.998201  0
H  H89  1  0.98636166  0.28431681  0.91288966  1  0.103621  0  0.109444  0.102607  0  0.998182  0
H  H90  1  0.98636188  0.78431646  0.58711120  1  0.103664  0  0.109441  0.102604  0  0.998205  0
H  H91  1  0.01363979  0.71568516  0.08711275  1  0.103732  0  0.109432  0.102606  0  0.998177  0
H  H92  1  0.24152871  0.15218317  0.48010106  1  0.037535  0  0.090602  0.12981  0  1.009723  0
H  H93  1  0.75847088  0.34781627  0.98010237  1  0.037528  0  0.090599  0.129812  0  1.009701  0
H  H94  1  0.75846808  0.84781492  0.51989765  1  0.037516  0  0.090592  0.129789  0  1.009733  0
H  H95  1  0.24153210  0.65218625  0.01989921  1  0.037559  0  0.090625  0.129834  0  1.009714  0
H  H96  1  0.25346303  0.24884072  0.47687531  1  0.055147  0  0.097117  0.135174  0  0.983532  0
H  H97  1  0.74653366  0.25115817  0.97687629  1  0.055047  0  0.097106  0.135151  0  0.983544  0
H  H98  1  0.74653375  0.75115737  0.52312380  1  0.055034  0  0.097105  0.135147  0  0.983462  0
H  H99  1  0.25346506  0.74884380  0.02312488  1  0.055021  0  0.097098  0.135151  0  0.98353  0
H  H100  1  0.14013074  0.18816615  0.47624452  1  0.031256  0  0.091895  0.130481  0  1.00811  0
H  H101  1  0.85986677  0.31183108  0.97624585  1  0.031285  0  0.09184  0.130374  0  1.008104  0
H  H102  1  0.85986587  0.81183139  0.52375418  1  0.031302  0  0.091857  0.130399  0  1.008082  0
H  H103  1  0.14013309  0.68816811  0.02375573  1  0.031316  0  0.091829  0.130343  0  1.008149  0
H  H104  1  0.34955756  0.06838869  0.30479817  1  0.040448  0  0.09434  0.128717  0  0.999751  0
H  H105  1  0.65044149  0.43161100  0.80479821  1  0.040466  0  0.094326  0.128698  0  0.999785  0
H  H106  1  0.65044918  0.93161494  0.69520300  1  0.040664  0  0.094323  0.128692  0  0.999775  0
H  H107  1  0.34955615  0.56838764  0.19520297  1  0.040367  0  0.094332  0.12872  0  0.999764  0
H  H108  1  0.33068125  0.10973413  0.24128108  1  0.054761  0  0.088782  0.125404  0  1.028649  0
H  H109  1  0.66931817  0.39026454  0.74128196  1  0.0548  0  0.088784  0.125436  0  1.028698  0
H  H110  1  0.66931861  0.89026507  0.75871845  1  0.054781  0  0.08876  0.125379  0  1.028709  0
H  H111  1  0.33068514  0.60973687  0.25871921  1  0.054657  0  0.08879  0.125413  0  1.0287  0
H  H112  1  0.41983804  0.15679391  0.28731661  1  0.059667  0  0.096494  0.136617  0  0.979382  0
H  H113  1  0.58016103  0.34320581  0.78731713  1  0.059637  0  0.096493  0.136636  0  0.979363  0
H  H114  1  0.58016227  0.84321083  0.71268045  1  0.059686  0  0.096515  0.136615  0  0.979402  0
H  H115  1  0.41984069  0.65679284  0.21268158  1  0.059645  0  0.096496  0.136631  0  0.979336  0
H  H116  1  0.06562629  0.22428437  0.23721960  1  0.027641  0  0.092149  0.128152  0  1.028176  0
H  H117  1  0.93437575  0.27571819  0.73722136  1  0.027692  0  0.092159  0.128183  0  1.02818  0
H  H118  1  0.93437429  0.77571705  0.76277869  1  0.027702  0  0.092159  0.128186  0  1.028191  0
H  H119  1  0.06562741  0.72428489  0.26278064  1  0.027642  0  0.092166  0.12816  0  1.028138  0
H  H120  1  0.99966128  0.21493472  0.29949474  1  0.045903  0  0.090873  0.12678  0  1.012914  0
H  H121  1  0.00033777  0.28506497  0.79949702  1  0.045878  0  0.090857  0.126749  0  1.012935  0
H  H122  1  0.00033845  0.78506614  0.70050356  1  0.045878  0  0.090886  0.126797  0  1.012963  0
H  H123  1  0.99966363  0.71493478  0.20050580  1  0.045961  0  0.09089  0.126781  0  1.012932  0
H  H124  1  0.08389411  0.29841059  0.28474926  1  0.038021  0  0.091302  0.127465  0  1.01444  0
H  H125  1  0.91610514  0.20158969  0.78474902  1  0.038038  0  0.091314  0.127486  0  1.014428  0
H  H126  1  0.91610680  0.70158972  0.71524944  1  0.037961  0  0.091316  0.127495  0  1.014407  0
H  H127  1  0.08389508  0.79841062  0.21525051  1  0.03802  0  0.091314  0.127465  0  1.014431  0
H  H128  1  0.37170314  0.08789955  0.38978540  1  0.118681  0  0.111812  0.109982  0  1.000369  0
H  H129  1  0.62829674  0.41210279  0.88978586  1  0.118619  0  0.111778  0.10994  0  1.000362  0
H  H130  1  0.62829627  0.91210242  0.61021495  1  0.118628  0  0.111784  0.109944  0  1.000376  0
H  H131  1  0.37170316  0.58789862  0.11021449  1  0.118647  0  0.11181  0.109988  0  1.000389  0
H  H132  1  0.41077172  0.23859403  0.44851715  1  0.068019  0  0.11129  0.135069  0  0.981968  0
H  H133  1  0.58922458  0.26140989  0.94852061  1  0.068058  0  0.111281  0.135031  0  0.981861  0
H  H134  1  0.58922501  0.76141015  0.55147909  1  0.068176  0  0.11128  0.135028  0  0.981855  0
H  H135  1  0.41077211  0.73859208  0.05148180  1  0.068068  0  0.111304  0.135064  0  0.981928  0
H  H136  1  0.14275312  0.16283907  0.20133605  1  0.125636  0  0.104389  0.096369  0  1.032812  0
H  H137  1  0.85724755  0.33716132  0.70133653  1  0.125664  0  0.10438  0.096352  0  1.032808  0
H  H138  1  0.85724864  0.83716179  0.79866389  1  0.125631  0  0.104382  0.096345  0  1.032771  0
H  H139  1  0.14275404  0.66283899  0.29866464  1  0.125651  0  0.104368  0.096327  0  1.032813  0
H  H140  1  0.35408792  0.23915700  0.20730926  1  0.081197  0  0.11034  0.134625  0  0.98058  0
H  H141  1  0.64591170  0.26084228  0.70730819  1  0.081193  0  0.110342  0.134646  0  0.980592  0
H  H142  1  0.64591244  0.76084165  0.79269109  1  0.081201  0  0.11035  0.134647  0  0.980597  0
H  H143  1  0.35408938  0.73915858  0.29269216  1  0.081132  0  0.110358  0.134671  0  0.980562  0
C  C144  1  0.70155799  0.04068723  0.44904186  1  1.556395  0  0.232454  0.662522  0  4.16426  0
C  C145  1  0.29843450  0.45931337  0.94904686  1  1.556507  0  0.232385  0.662213  0  4.164379  0
C  C146  1  0.29843575  0.95931197  0.55095314  1  1.556633  0  0.2324  0.662225  0  4.164429  0
C  C147  1  0.70155874  0.54068639  0.05095679  1  1.556629  0  0.232444  0.66244  0  4.164407  0
C  C148  1  0.77301534  0.02019046  0.41356362  1  0.000945  0  -0.094265  -0.249011  0  3.900547  0
C  C149  1  0.22697868  0.47980852  0.91356778  1  0.000988  0  -0.094225  -0.248948  0  3.900338  0
C  C150  1  0.22697977  0.97980873  0.58643262  1  0.000879  0  -0.094212  -0.248933  0  3.900316  0
C  C151  1  0.77301606  0.52018957  0.08643586  1  0.000934  0  -0.094268  -0.248992  0  3.900583  0
C  C152  1  0.83688611  0.06938671  0.38383969  1  -0.041546  0  -0.060468  -0.022992  0  3.94758  0
C  C153  1  0.16311033  0.43061343  0.88384225  1  -0.041581  0  -0.060533  -0.023017  0  3.947525  0
C  C154  1  0.16311089  0.93061415  0.61615902  1  -0.041543  0  -0.060561  -0.023013  0  3.947431  0
C  C155  1  0.83688631  0.56938632  0.11615933  1  -0.041595  0  -0.060445  -0.022878  0  3.947597  0
C  C156  1  0.90828870  0.04775490  0.34913917  1  -0.063321  0  -0.018889  -0.040341  0  3.986981  0
C  C157  1  0.09170638  0.45224306  0.84914090  1  -0.064188  0  -0.018863  -0.040462  0  3.987158  0
C  C158  1  0.09170777  0.95224429  0.65085954  1  -0.063543  0  -0.018821  -0.040415  0  3.987078  0
C  C159  1  0.90828923  0.54775558  0.15086027  1  -0.063284  0  -0.01886  -0.04046  0  3.987146  0
C  C160  1  0.90405815  0.05343256  0.29149781  1  0.016923  0  -0.001251  0.094369  0  3.922946  0
C  C161  1  0.09594023  0.44656715  0.79149914  1  0.017178  0  -0.001312  0.094256  0  3.923101  0
C  C162  1  0.09593967  0.94656664  0.70850130  1  0.017196  0  -0.001286  0.094362  0  3.922997  0
C  C163  1  0.90405914  0.55343260  0.20850244  1  0.016978  0  -0.001307  0.094304  0  3.922958  0
C  C164  1  0.97030927  0.02914913  0.25887534  1  0.026397  0  -0.017013  -0.027893  0  3.972402  0
C  C165  1  0.02969032  0.47085007  0.75887625  1  0.02643  0  -0.01699  -0.027812  0  3.97245  0
C  C166  1  0.02968991  0.97085007  0.74112377  1  0.026188  0  -0.016979  -0.027829  0  3.972412  0
C  C167  1  0.97031023  0.52914913  0.24112451  1  0.026378  0  -0.017041  -0.027859  0  3.972439  0
C  C168  1  0.03781784  0.99776977  0.28426262  1  -0.004381  0  0.001138  0.091735  0  3.917809  0
C  C169  1  0.96217919  0.50222826  0.78426211  1  -0.004755  0  0.001192  0.091767  0  3.91775  0
C  C170  1  0.96217894  0.00222832  0.71573773  1  -0.004547  0  0.001199  0.09177  0  3.917743  0
C  C171  1  0.03781968  0.49777205  0.21573701  1  -0.004381  0  0.001109  0.091692  0  3.917803  0
C  C172  1  0.03968669  0.99120354  0.34210643  1  0.028752  0  -0.015758  -0.031015  0  3.982118  0
C  C173  1  0.96031183  0.50879495  0.84210591  1  0.028683  0  -0.015712  -0.031033  0  3.982106  0
C  C174  1  0.96031232  0.00879510  0.65789392  1  0.028695  0  -0.015718  -0.031034  0  3.982052  0
C  C175  1  0.03968685  0.49120480  0.15789320  1  0.028448  0  -0.015777  -0.031074  0  3.982026  0
C  C176  1  0.97759924  0.01958138  0.37489833  1  -0.001687  0  -0.000366  0.09397  0  3.927935  0
C  C177  1  0.02239427  0.48041599  0.87489799  1  -0.001102  0  -0.000365  0.094164  0  3.927935  0
C  C178  1  0.02239618  0.98041671  0.62510243  1  -0.001749  0  -0.000405  0.094076  0  3.927976  0
C  C179  1  0.97760083  0.51958320  0.12510195  1  -0.001434  0  -0.000341  0.094092  0  3.927955  0
C  C180  1  0.82637833  0.08198216  0.26657358  1  -0.017969  0  -0.239187  -0.408567  0  3.977154  0
C  C181  1  0.17362093  0.41801814  0.76657450  1  -0.017877  0  -0.239145  -0.408391  0  3.977063  0
C  C182  1  0.17362035  0.91801759  0.73342595  1  -0.017925  0  -0.239241  -0.408616  0  3.977141  0
C  C183  1  0.82637844  0.58198162  0.23342749  1  -0.017989  0  -0.23916  -0.408498  0  3.97714  0
C  C184  1  0.10873233  0.97091118  0.25069412  1  -0.041671  0  -0.236894  -0.408713  0  3.967221  0
C  C185  1  0.89126626  0.52908744  0.75069278  1  -0.041119  0  -0.236934  -0.408739  0  3.967104  0
C  C186  1  0.89126599  0.02908746  0.74930746  1  -0.041115  0  -0.236936  -0.408742  0  3.967118  0
C  C187  1  0.10873464  0.47091286  0.24930551  1  -0.041371  0  -0.236876  -0.408652  0  3.967282  0
C  C188  1  0.98782260  0.02446062  0.43647274  1  -0.05418  0  -0.243785  -0.41972  0  3.998339  0
C  C189  1  0.01216901  0.47553722  0.93647241  1  -0.054271  0  -0.243756  -0.419752  0  3.998108  0
C  C190  1  0.01217097  0.97553802  0.56352761  1  -0.054255  0  -0.243712  -0.419706  0  3.99811  0
C  C191  1  0.98782578  0.52446309  0.06352711  1  -0.054125  0  -0.243747  -0.419714  0  3.998287  0
C  C192  1  0.96769440  0.03155882  0.19859425  1  -0.080193  0  -0.065635  -0.038246  0  3.958292  0
C  C193  1  0.03230659  0.46844047  0.69859475  1  -0.080196  0  -0.065628  -0.038216  0  3.958306  0
C  C194  1  0.03230392  0.96843982  0.80140527  1  -0.080062  0  -0.065636  -0.038165  0  3.95823  0
C  C195  1  0.96769549  0.53155929  0.30140560  1  -0.080201  0  -0.065645  -0.038291  0  3.958319  0
C  C196  1  0.95694302  0.08766621  0.16644662  1  -0.080087  0  -0.096635  -0.247821  0  3.909866  0
C  C197  1  0.04305596  0.41233313  0.66644757  1  -0.080144  0  -0.096638  -0.247838  0  3.909892  0
C  C198  1  0.04305566  0.91233354  0.83355249  1  -0.080194  0  -0.09667  -0.247957  0  3.909856  0
C  C199  1  0.95694391  0.58766607  0.33355278  1  -0.080102  0  -0.096667  -0.247903  0  3.909851  0
C  C200  1  0.96857478  0.08469197  0.10606266  1  1.556939  0  0.229159  0.646191  0  4.192688  0
C  C201  1  0.03142529  0.41530856  0.60606402  1  1.556904  0  0.229168  0.646222  0  4.192518  0
C  C202  1  0.03142544  0.91530833  0.89393687  1  1.556932  0  0.229177  0.646306  0  4.192488  0
C  C203  1  0.96857340  0.58469120  0.39393674  1  1.556917  0  0.229197  0.646299  0  4.19262  0
C  C204  1  0.10309451  0.95087473  0.36717675  1  -0.119258  0  -0.063398  -0.031633  0  3.935897  0
C  C205  1  0.89690231  0.54912484  0.86717539  1  -0.119333  0  -0.063463  -0.031885  0  3.936097  0
C  C206  1  0.89690282  0.04912502  0.63282360  1  -0.119242  0  -0.063447  -0.031762  0  3.936048  0
C  C207  1  0.10309519  0.45087547  0.13282290  1  -0.119583  0  -0.063398  -0.031587  0  3.935809  0
C  C208  1  0.07370965  0.89731586  0.40512852  1  0.044862  0  -0.095834  -0.240774  0  3.9002  0
C  C209  1  0.92628936  0.60268421  0.90512629  1  0.044943  0  -0.095779  -0.240482  0  3.89997  0
C  C210  1  0.92629040  0.10268389  0.59487266  1  0.044542  0  -0.095813  -0.240711  0  3.900174  0
C  C211  1  0.07370968  0.39731665  0.09487077  1  0.044883  0  -0.095815  -0.240746  0  3.900157  0
C  C212  1  0.13155968  0.85059394  0.42860142  1  1.507914  0  0.226562  0.642724  0  4.194479  0
C  C213  1  0.86844153  0.64940665  0.92859999  1  1.508002  0  0.226555  0.642657  0  4.194507  0
C  C214  1  0.86844212  0.14940914  0.57139975  1  1.508234  0  0.226592  0.642745  0  4.194423  0
C  C215  1  0.13155919  0.35059310  0.07139789  1  1.508252  0  0.226504  0.642647  0  4.194535  0
C  C216  1  0.03804829  0.35580851  0.44214596  1  1.582737  0  0.234318  0.662601  0  4.172298  0
C  C217  1  0.96195390  0.14419264  0.94214699  1  1.582939  0  0.234279  0.662538  0  4.172118  0
C  C218  1  0.96195243  0.64419124  0.55785316  1  1.583005  0  0.234197  0.662379  0  4.172485  0
C  C219  1  0.03805180  0.85580988  0.05785460  1  1.582719  0  0.234264  0.662461  0  4.172383  0
C  C220  1  0.10161806  0.32295783  0.40895069  1  -0.059118  0  -0.095301  -0.254711  0  3.902947  0
C  C221  1  0.89838299  0.17704393  0.90895212  1  -0.059558  0  -0.095283  -0.254676  0  3.902885  0
C  C222  1  0.89838235  0.67704303  0.59104801  1  -0.059148  0  -0.095263  -0.254651  0  3.90287  0
C  C223  1  0.10162085  0.82295915  0.09104906  1  -0.059116  0  -0.095329  -0.254805  0  3.902955  0
C  C224  1  0.08114081  0.25011055  0.39804405  1  -0.07361  0  -0.055523  -0.012967  0  3.935259  0
C  C225  1  0.91885839  0.24989178  0.89804460  1  -0.073251  0  -0.055581  -0.012971  0  3.935212  0
C  C226  1  0.91885774  0.74989086  0.60195465  1  -0.073681  0  -0.055499  -0.012866  0  3.935091  0
C  C227  1  0.08114360  0.75011185  0.10195658  1  -0.073596  0  -0.055506  -0.012855  0  3.935094  0
C  C228  1  0.14667407  0.21492681  0.36869503  1  -0.026004  0  -0.017081  -0.032719  0  3.988991  0
C  C229  1  0.85332425  0.28507279  0.86869638  1  -0.026068  0  -0.017078  -0.032746  0  3.988878  0
C  C230  1  0.85332375  0.78507239  0.63130327  1  -0.026074  0  -0.017111  -0.032767  0  3.988914  0
C  C231  1  0.14667770  0.71492862  0.13130480  1  -0.02599  0  -0.017081  -0.03274  0  3.988823  0
C  C232  1  0.21437737  0.19098892  0.39934480  1  0.005902  0  -0.001117  0.090423  0  3.933957  0
C  C233  1  0.78561956  0.30901063  0.89934573  1  0.005868  0  -0.001142  0.09038  0  3.933928  0
C  C234  1  0.78562167  0.80901194  0.60065390  1  0.005754  0  -0.001163  0.090335  0  3.933988  0
C  C235  1  0.21437913  0.69098912  0.10065503  1  0.005831  0  -0.001084  0.090391  0  3.933965  0
C  C236  1  0.28075643  0.16205777  0.37088172  1  0.001293  0  -0.017336  -0.02992  0  3.992423  0
C  C237  1  0.71924089  0.33794294  0.87088305  1  0.001112  0  -0.017309  -0.029941  0  3.992505  0
C  C238  1  0.71924193  0.83794309  0.62911657  1  0.001129  0  -0.017296  -0.029907  0  3.992519  0
C  C239  1  0.28075644  0.66205681  0.12911812  1  0.001315  0  -0.017345  -0.029895  0  3.992458  0
C  C240  1  0.27788373  0.15533115  0.31288649  1  -0.014958  0  -0.0028  0.084459  0  3.925051  0
C  C241  1  0.72211377  0.34466797  0.81288740  1  -0.014809  0  -0.002765  0.084561  0  3.924979  0
C  C242  1  0.72211563  0.84466860  0.68711304  1  -0.015037  0  -0.002782  0.084484  0  3.925054  0
C  C243  1  0.27788627  0.65533178  0.18711336  1  -0.015046  0  -0.002745  0.084543  0  3.924988  0
C  C244  1  0.21029339  0.18103810  0.28287947  1  0.035746  0  -0.01607  -0.025634  0  3.979137  0
C  C245  1  0.78970446  0.31895996  0.78287998  1  0.035458  0  -0.016076  -0.025679  0  3.979181  0
C  C246  1  0.78970597  0.81896165  0.71711965  1  0.035724  0  -0.016011  -0.025514  0  3.979073  0
C  C247  1  0.21029695  0.68103979  0.21712079  1  0.035827  0  -0.01607  -0.025577  0  3.979066  0
C  C248  1  0.14283359  0.20944515  0.31106602  1  -0.002111  0  -0.002292  0.086673  0  3.934481  0
C  C249  1  0.85716545  0.29055454  0.81106737  1  -0.002042  0  -0.002306  0.086698  0  3.934395  0
C  C250  1  0.85716645  0.79055460  0.68893227  1  -0.002071  0  -0.002269  0.086704  0  3.934494  0
C  C251  1  0.14283631  0.70944632  0.18893422  1  -0.002079  0  -0.002283  0.086676  0  3.934371  0
C  C252  1  0.21231147  0.19486380  0.46132289  1  -0.060489  0  -0.238952  -0.409217  0  3.978231  0
C  C253  1  0.78768641  0.30513457  0.96132424  1  -0.060369  0  -0.238865  -0.40906  0  3.978134  0
C  C254  1  0.78768585  0.80513596  0.53867581  1  -0.060275  0  -0.238881  -0.409068  0  3.978072  0
C  C255  1  0.21231467  0.69486629  0.03867694  1  -0.060348  0  -0.238896  -0.409075  0  3.978188  0
C  C256  1  0.34775411  0.12091538  0.28478388  1  -0.097784  0  -0.240052  -0.414259  0  3.994018  0
C  C257  1  0.65224427  0.37908434  0.78478436  1  -0.097826  0  -0.240058  -0.414339  0  3.9941  0
C  C258  1  0.65224819  0.87908715  0.71521524  1  -0.098052  0  -0.240051  -0.414232  0  3.994096  0
C  C259  1  0.34775645  0.62091541  0.21521599  1  -0.097616  0  -0.240092  -0.414355  0  3.994059  0
C  C260  1  0.06940319  0.23777289  0.28111455  1  -0.055837  0  -0.238494  -0.406993  0  3.973679  0
C  C261  1  0.93059692  0.26222794  0.78111632  1  -0.055826  0  -0.238467  -0.406982  0  3.973695  0
C  C262  1  0.93059654  0.76222797  0.71888333  1  -0.055769  0  -0.238542  -0.407105  0  3.973877  0
C  C263  1  0.06940484  0.73777292  0.21888526  1  -0.055876  0  -0.238527  -0.40699  0  3.973688  0
C  C264  1  0.35721414  0.14097540  0.39993901  1  -0.039518  0  -0.060415  -0.023918  0  3.944675  0
C  C265  1  0.64278248  0.35902527  0.89993868  1  -0.039091  0  -0.060422  -0.023899  0  3.944866  0
C  C266  1  0.64278287  0.85902546  0.60006093  1  -0.039053  0  -0.060428  -0.023938  0  3.94482  0
C  C267  1  0.35721553  0.64097448  0.10006125  1  -0.039424  0  -0.060396  -0.023939  0  3.944771  0
C  C268  1  0.41582862  0.18350409  0.43653156  1  -0.054828  0  -0.096469  -0.249781  0  3.904063  0
C  C269  1  0.58416873  0.31650095  0.93653293  1  -0.055004  0  -0.096413  -0.249673  0  3.904063  0
C  C270  1  0.58416811  0.81650009  0.56346632  1  -0.05517  0  -0.096402  -0.249629  0  3.903919  0
C  C271  1  0.41582900  0.68350213  0.06346784  1  -0.054905  0  -0.09646  -0.249734  0  3.903988  0
C  C272  1  0.49219342  0.15697652  0.46196482  1  1.546586  0  0.227165  0.641479  0  4.19723  0
C  C273  1  0.50780835  0.34302960  0.96196864  1  1.546795  0  0.22705  0.641331  0  4.197228  0
C  C274  1  0.50781015  0.84302989  0.53803183  1  1.546744  0  0.227077  0.64136  0  4.197267  0
C  C275  1  0.49219449  0.65697458  0.03803459  1  1.546617  0  0.227163  0.641538  0  4.197012  0
C  C276  1  0.21000700  0.18339696  0.22246135  1  -0.133772  0  -0.063768  -0.024892  0  3.945195  0
C  C277  1  0.78999194  0.31660230  0.72246145  1  -0.133736  0  -0.06377  -0.024893  0  3.945188  0
C  C278  1  0.78999390  0.81660335  0.77753818  1  -0.133776  0  -0.063789  -0.024918  0  3.945086  0
C  C279  1  0.21000811  0.68339746  0.27753849  1  -0.133764  0  -0.063772  -0.024908  0  3.945287  0
C  C280  1  0.28457029  0.21398338  0.19041742  1  -0.057722  0  -0.098837  -0.255569  0  3.907105  0
C  C281  1  0.71542885  0.28601647  0.69041632  1  -0.057785  0  -0.098834  -0.255597  0  3.907236  0
C  C282  1  0.71543111  0.78601637  0.80958293  1  -0.057615  0  -0.098869  -0.255616  0  3.907067  0
C  C283  1  0.28457051  0.71398328  0.30958321  1  -0.057661  0  -0.098864  -0.255619  0  3.907168  0
C  C284  1  0.27370332  0.22364204  0.13060708  1  1.56318  0  0.231027  0.657298  0  4.183318  0
C  C285  1  0.72629469  0.27635845  0.63060598  1  1.563869  0  0.231009  0.657356  0  4.183476  0
C  C286  1  0.72629926  0.77635716  0.86939533  1  1.563239  0  0.231011  0.657297  0  4.183455  0
C  C287  1  0.27370232  0.72364241  0.36939396  1  1.56319  0  0.230986  0.657239  0  4.183464  0
O  O288  1  0.57315151  0.07047688  0.56446611  1  -1.179133  0  -0.519405  -0.863054  0  2.024378  0
O  O289  1  0.42685476  0.42951761  0.06447815  1  -1.179147  0  -0.519306  -0.863248  0  2.023926  0
O  O290  1  0.42685724  0.92951622  0.43552189  1  -1.178883  0  -0.519307  -0.863291  0  2.023899  0
O  O291  1  0.57314995  0.57047770  0.93553290  1  -1.179052  0  -0.519376  -0.863168  0  2.024229  0
O  O292  1  0.75405957  0.25847296  0.48830536  1  -1.206359  0  -0.521784  -0.865936  0  2.030743  0
O  O293  1  0.24594581  0.24152758  0.98830477  1  -1.206378  0  -0.521754  -0.865868  0  2.030743  0
O  O294  1  0.24594097  0.74152624  0.51169375  1  -1.206455  0  -0.521818  -0.865938  0  2.030788  0
O  O295  1  0.75405949  0.75847162  0.01169517  1  -1.20636  0  -0.521761  -0.865857  0  2.030871  0
O  O296  1  0.86883665  0.42070341  0.51326121  1  -1.199268  0  -0.522773  -0.87501  0  2.030923  0
O  O297  1  0.13116431  0.07929559  0.01326079  1  -1.199268  0  -0.522784  -0.874988  0  2.030906  0
O  O298  1  0.13116457  0.57929579  0.48673749  1  -1.199259  0  -0.52286  -0.875015  0  2.030901  0
O  O299  1  0.86883823  0.92070139  0.98673750  1  -1.199393  0  -0.522754  -0.874897  0  2.031042  0
O  O300  1  0.71362511  0.10844985  0.46228291  1  -1.190053  0  -0.292634  -0.603408  0  2.3068  0
O  O301  1  0.28637364  0.39154907  0.96228466  1  -1.190038  0  -0.292527  -0.603232  0  2.306816  0
O  O302  1  0.28637354  0.89154769  0.53771621  1  -1.190124  0  -0.292567  -0.603271  0  2.306895  0
O  O303  1  0.71362537  0.60844958  0.03771692  1  -1.190036  0  -0.292627  -0.603394  0  2.306848  0
O  O304  1  0.63245990  0.98698215  0.46393021  1  -1.170975  0  -0.294595  -0.583359  0  2.21554  0
O  O305  1  0.36753198  0.51302116  0.96393841  1  -1.171201  0  -0.294646  -0.583258  0  2.215408  0
O  O306  1  0.36752999  0.01301982  0.53606026  1  -1.171204  0  -0.294651  -0.583275  0  2.215473  0
O  O307  1  0.63246167  0.48698192  0.03606729  1  -1.171212  0  -0.294602  -0.583324  0  2.215617  0
O  O308  1  0.99314062  0.14725333  0.08113017  1  -1.177017  0  -0.304646  -0.600599  0  2.258876  0
O  O309  1  0.00686219  0.35274723  0.58113158  1  -1.176944  0  -0.304659  -0.600597  0  2.258834  0
O  O310  1  0.00686233  0.85274698  0.91886894  1  -1.176967  0  -0.304639  -0.600593  0  2.258747  0
O  O311  1  0.99313717  0.64725252  0.41886918  1  -1.176974  0  -0.304669  -0.600655  0  2.258869  0
O  O312  1  0.95622859  0.02121299  0.08351813  1  -1.163148  0  -0.287401  -0.572213  0  2.270832  0
O  O313  1  0.04377218  0.47878757  0.58351902  1  -1.163134  0  -0.28741  -0.572227  0  2.270781  0
O  O314  1  0.04377336  0.97878843  0.91648099  1  -1.163178  0  -0.287435  -0.572305  0  2.270796  0
O  O315  1  0.95622718  0.52121218  0.41648133  1  -1.163163  0  -0.287376  -0.572199  0  2.270877  0
O  O316  1  0.22014824  0.86770981  0.42049538  1  -1.156061  0  -0.29309  -0.584154  0  2.258344  0
O  O317  1  0.77985333  0.63229190  0.92049520  1  -1.156072  0  -0.293062  -0.58414  0  2.25834  0
O  O318  1  0.77985378  0.13229604  0.57950621  1  -1.156038  0  -0.293112  -0.5842  0  2.258327  0
O  O319  1  0.22014725  0.36770952  0.07950515  1  -1.156056  0  -0.293069  -0.584142  0  2.258385  0
O  O320  1  0.08431303  0.79422378  0.45564858  1  -1.158113  0  -0.295405  -0.586635  0  2.272016  0
O  O321  1  0.91569151  0.70577455  0.95564792  1  -1.158192  0  -0.295393  -0.586643  0  2.272046  0
O  O322  1  0.91569095  0.20577763  0.54435218  1  -1.158165  0  -0.29541  -0.586653  0  2.271961  0
O  O323  1  0.08431375  0.29422243  0.04435160  1  -1.158117  0  -0.29537  -0.586597  0  2.272065  0
O  O324  1  0.07050783  0.42289538  0.45758933  1  -1.181205  0  -0.291369  -0.588011  0  2.241109  0
O  O325  1  0.92949467  0.07710465  0.95758959  1  -1.181209  0  -0.291281  -0.587973  0  2.24115  0
O  O326  1  0.92949357  0.57710437  0.54240979  1  -1.181199  0  -0.291261  -0.5879  0  2.241257  0
O  O327  1  0.07050777  0.92289621  0.04240994  1  -1.181257  0  -0.291336  -0.588019  0  2.241219  0
O  O328  1  0.95655489  0.31453451  0.45354061  1  -1.185423  0  -0.297547  -0.590413  0  2.272899  0
O  O329  1  0.04344816  0.18546719  0.95354132  1  -1.185552  0  -0.297569  -0.590371  0  2.272741  0
O  O330  1  0.04344737  0.68546580  0.54645974  1  -1.185586  0  -0.297513  -0.590296  0  2.272808  0
O  O331  1  0.95655786  0.81453423  0.04646232  1  -1.185408  0  -0.297537  -0.590265  0  2.272912  0
O  O332  1  0.50245673  0.09366492  0.44679715  1  -1.190866  0  -0.307505  -0.617243  0  2.317592  0
O  O333  1  0.49754523  0.40634177  0.94680216  1  -1.191097  0  -0.307365  -0.61715  0  2.317738  0
O  O334  1  0.49754566  0.90634204  0.55319785  1  -1.191098  0  -0.307386  -0.617168  0  2.317756  0
O  O335  1  0.50245797  0.59366352  0.05320313  1  -1.190949  0  -0.307515  -0.617318  0  2.317554  0
O  O336  1  0.54416863  0.19917382  0.49734635  1  -1.160177  0  -0.288189  -0.561961  0  2.205467  0
O  O337  1  0.45583153  0.30082948  0.99734774  1  -1.160126  0  -0.288162  -0.561846  0  2.205449  0
O  O338  1  0.45583132  0.80082982  0.50265318  1  -1.16009  0  -0.288193  -0.561907  0  2.205541  0
O  O339  1  0.54416974  0.69917193  0.00265302  1  -1.160147  0  -0.288212  -0.561992  0  2.205412  0
O  O340  1  0.34338956  0.26746909  0.10620172  1  -1.164462  0  -0.294993  -0.574263  0  2.221005  0
O  O341  1  0.65661011  0.23252811  0.60620190  1  -1.16461  0  -0.294978  -0.574329  0  2.221033  0
O  O342  1  0.65661094  0.73252789  0.89379822  1  -1.164602  0  -0.294982  -0.574316  0  2.221127  0
O  O343  1  0.34339021  0.76746832  0.39379804  1  -1.164475  0  -0.294972  -0.574237  0  2.221109  0
O  O344  1  0.19604405  0.18950196  0.10826869  1  -1.194488  0  -0.29718  -0.606815  0  2.305527  0
O  O345  1  0.80395052  0.31050466  0.60826674  1  -1.195123  0  -0.297204  -0.606834  0  2.305536  0
O  O346  1  0.80395735  0.81049779  0.89173371  1  -1.194568  0  -0.297202  -0.606798  0  2.305503  0
O  O347  1  0.19604321  0.68950285  0.39173114  1  -1.194516  0  -0.297165  -0.606785  0  2.305543  0
