# generated using pymatgen
data_CdH16C22(NO2)2
_symmetry_space_group_name_H-M   'P 1'
_cell_length_a   8.60545290
_cell_length_b   10.34733306
_cell_length_c   11.93174730
_cell_angle_alpha   83.46556828
_cell_angle_beta   73.31624318
_cell_angle_gamma   68.90936783
_symmetry_Int_Tables_number   1
_chemical_formula_structural   CdH16C22(NO2)2
_chemical_formula_sum   'Cd2 H32 C44 N4 O8'
_cell_volume   949.47958634
_cell_formula_units_Z   2
loop_
 _symmetry_equiv_pos_site_id
 _symmetry_equiv_pos_as_xyz
  1  'x, y, z'
loop_
 _atom_site_type_symbol
 _atom_site_label
 _atom_site_symmetry_multiplicity
 _atom_site_fract_x
 _atom_site_fract_y
 _atom_site_fract_z
 _atom_site_occupancy
 _atom_site_hle17_bader_spin_density
 _atom_site_hle17_ddec_charge
 _atom_site_hle17_ddec_spin_density
 _atom_site_hle17_ddec_sum_bond_order
 _atom_site_hle17_magmom
 _atom_site_hse06_10hf_bader_spin_density
 _atom_site_hse06_10hf_ddec_charge
 _atom_site_hse06_10hf_ddec_spin_density
 _atom_site_hse06_10hf_ddec_sum_bond_order
 _atom_site_hse06_10hf_magmom
 _atom_site_hse06_bader_spin_density
 _atom_site_hse06_ddec_charge
 _atom_site_hse06_ddec_spin_density
 _atom_site_hse06_ddec_sum_bond_order
 _atom_site_hse06_magmom
 _atom_site_pbe_bader_spin_density
 _atom_site_pbe_cm5_charge
 _atom_site_pbe_ddec_charge
 _atom_site_pbe_ddec_spin_density
 _atom_site_pbe_ddec_sum_bond_order
 _atom_site_pbe_magmom
Cd  Cd0  1  0.17857797  0.30962028  0.41444055  1  0  1.107335  0  1.666259  0  0  0.914246  0  2.111859  0  0  0.972954  0  2.060324  0  0  0.768245  0.868676  0  2.149961  0
Cd  Cd1  1  0.82142549  0.69038089  0.58556135  1  0  1.107353  0  1.666225  0  0  0.914264  0  2.111805  0  0  0.97297  0  2.06027  0  0  0.768245  0.868697  0  2.149906  0
H  H2  1  0.27151657  0.05441658  0.57838720  1  0  0.096543  0  0.961946  0  0  0.103791  0  1.027265  0  0  0.10666  0  1.024629  0  0  0.117523  0.101552  0  1.029499  0
H  H3  1  0.72848815  0.94558453  0.42160858  1  0  0.096471  0  0.962  0  0  0.103748  0  1.027299  0  0  0.106617  0  1.024662  0  0  0.117509  0.101509  0  1.029533  0
H  H4  1  0.37959487  0.97364409  0.75510994  1  0  0.102655  0  0.972262  0  0  0.111615  0  1.034112  0  0  0.114138  0  1.034719  0  0  0.104774  0.109811  0  1.034017  0
H  H5  1  0.62041519  0.02635280  0.24488434  1  0  0.102577  0  0.972367  0  0  0.111579  0  1.034178  0  0  0.114101  0  1.034784  0  0  0.104762  0.109773  0  1.034078  0
H  H6  1  0.40145547  0.38178988  0.77225232  1  0  0.097441  0  0.974333  0  0  0.107591  0  1.035437  0  0  0.109702  0  1.037113  0  0  0.10154  0.106306  0  1.034204  0
H  H7  1  0.59854189  0.61820833  0.22775113  1  0  0.097455  0  0.974271  0  0  0.10764  0  1.035336  0  0  0.109726  0  1.037038  0  0  0.101576  0.106356  0  1.034104  0
H  H8  1  0.28406531  0.44725873  0.59645113  1  0  0.08661  0  0.950966  0  0  0.093082  0  1.019038  0  0  0.095428  0  1.016974  0  0  0.11413  0.091334  0  1.020747  0
H  H9  1  0.71593283  0.55274357  0.40355174  1  0  0.086638  0  0.950972  0  0  0.093079  0  1.019076  0  0  0.095424  0  1.017012  0  0  0.114113  0.091331  0  1.020784  0
H  H10  1  0.49061872  0.21427980  0.91915504  1  0  0.088282  0  0.942091  0  0  0.102128  0  1.000242  0  0  0.104555  0  1.000361  0  0  0.101552  0.100552  0  0.999853  0
H  H11  1  0.50937953  0.78571324  0.08084626  1  0  0.08822  0  0.942142  0  0  0.102058  0  1.000299  0  0  0.104484  0  1.000418  0  0  0.101524  0.100483  0  0.999909  0
H  H12  1  0.43550241  0.93566976  0.91897080  1  0  0.082976  0  0.950761  0  0  0.096822  0  1.010883  0  0  0.098718  0  1.010653  0  0  0.103649  0.095443  0  1.011113  0
H  H13  1  0.56448518  0.06433168  0.08103014  1  0  0.083025  0  0.950734  0  0  0.096887  0  1.01083  0  0  0.098786  0  1.010596  0  0  0.103683  0.095508  0  1.01106  0
H  H14  1  0.58354663  0.23618104  0.44446626  1  0  0.080601  0  0.940428  0  0  0.090109  0  1.000163  0  0  0.092505  0  0.998547  0  0  0.117141  0.088187  0  1.001677  0
H  H15  1  0.41646825  0.76381887  0.55553259  1  0  0.080605  0  0.940352  0  0  0.090085  0  1.000145  0  0  0.092484  0  0.998518  0  0  0.117176  0.088164  0  1.001658  0
H  H16  1  0.84742018  0.29131942  0.33849993  1  0  0.123986  0  0.951745  0  0  0.133703  0  1.010799  0  0  0.13728  0  1.009307  0  0  0.113202  0.131022  0  1.012293  0
H  H17  1  0.15258695  0.70868778  0.66149221  1  0  0.124003  0  0.95174  0  0  0.133727  0  1.010785  0  0  0.137305  0  1.009292  0  0  0.113207  0.131047  0  1.012279  0
H  H18  1  0.64329461  0.39503459  0.03517508  1  0  0.100189  0  0.962697  0  0  0.111449  0  1.022867  0  0  0.114379  0  1.022598  0  0  0.103443  0.10941  0  1.022925  0
H  H19  1  0.35669466  0.60496270  0.96482426  1  0  0.100139  0  0.962778  0  0  0.111384  0  1.022963  0  0  0.114319  0  1.022679  0  0  0.103436  0.109345  0  1.023022  0
H  H20  1  0.38559137  0.33849528  0.15596520  1  0  0.083997  0  0.934697  0  0  0.092825  0  0.998637  0  0  0.096008  0  0.995026  0  0  0.115388  0.090345  0  1.001443  0
H  H21  1  0.61440979  0.66148746  0.84404075  1  0  0.084032  0  0.934688  0  0  0.092854  0  0.998629  0  0  0.096037  0  0.995016  0  0  0.115409  0.09037  0  1.001439  0
H  H22  1  0.02473848  0.35153099  0.15887014  1  0  0.125078  0  0.965749  0  0  0.135145  0  1.026322  0  0  0.139204  0  1.023834  0  0  0.108636  0.132065  0  1.028563  0
H  H23  1  0.97525275  0.64847651  0.84112524  1  0  0.125079  0  0.96573  0  0  0.135128  0  1.02631  0  0  0.139188  0  1.023818  0  0  0.10863  0.132049  0  1.028552  0
H  H24  1  0.81679840  0.52560113  0.98701895  1  0  0.084719  0  0.94085  0  0  0.100397  0  0.996954  0  0  0.102867  0  0.995401  0  0  0.104715  0.098599  0  0.998071  0
H  H25  1  0.18319284  0.47440637  0.01297558  1  0  0.084638  0  0.940781  0  0  0.100376  0  0.99684  0  0  0.102846  0  0.995284  0  0  0.10473  0.098577  0  0.997959  0
H  H26  1  0.10725817  0.07905782  0.11166465  1  0  0.092761  0  0.959426  0  0  0.10115  0  1.026433  0  0  0.104463  0  1.024059  0  0  0.09933  0.098811  0  1.027975  0
H  H27  1  0.89273138  0.92094773  0.88834049  1  0  0.092783  0  0.95936  0  0  0.101169  0  1.026371  0  0  0.10448  0  1.023998  0  0  0.099323  0.09883  0  1.027902  0
H  H28  1  0.06736795  0.88597630  0.02609924  1  0  0.084033  0  0.970225  0  0  0.096229  0  1.030026  0  0  0.098606  0  1.030142  0  0  0.095014  0.094479  0  1.030145  0
H  H29  1  0.93263182  0.11402495  0.97390425  1  0  0.083988  0  0.97024  0  0  0.096177  0  1.030051  0  0  0.098554  0  1.030167  0  0  0.094971  0.094425  0  1.030169  0
H  H30  1  0.07845301  0.66757822  0.14152124  1  0  0.089785  0  0.977916  0  0  0.096945  0  1.048206  0  0  0.099844  0  1.046575  0  0  0.096152  0.094875  0  1.049279  0
H  H31  1  0.92155617  0.33242079  0.85847971  1  0  0.089876  0  0.977822  0  0  0.09706  0  1.048069  0  0  0.099961  0  1.046437  0  0  0.096203  0.09498  0  1.049163  0
H  H32  1  0.16268075  0.83536386  0.42305771  1  0  0.111674  0  0.945508  0  0  0.118369  0  1.012518  0  0  0.12266  0  1.008468  0  0  0.105916  0.115339  0  1.015549  0
H  H33  1  0.83731455  0.16463951  0.57694313  1  0  0.111676  0  0.945561  0  0  0.118382  0  1.012565  0  0  0.122675  0  1.008512  0  0  0.105916  0.115351  0  1.015594  0
C  C34  1  0.30133578  0.12303476  0.62530138  1  0  0.122953  0  3.708649  0  0  0.09125  0  3.959605  0  0  0.098717  0  3.978731  0  0  0.042399  0.08646  0  3.946322  0
C  C35  1  0.69866688  0.87696538  0.37469827  1  0  0.123147  0  3.708675  0  0  0.091398  0  3.959654  0  0  0.098866  0  3.97878  0  0  0.042457  0.086608  0  3.946373  0
C  C36  1  0.36037565  0.07983148  0.72428827  1  0  -0.146706  0  3.682407  0  0  -0.161836  0  3.925184  0  0  -0.170094  0  3.946458  0  0  -0.0795  -0.15653  0  3.910885  0
C  C37  1  0.63963276  0.92016647  0.27570791  1  0  -0.146662  0  3.682413  0  0  -0.161839  0  3.925199  0  0  -0.170096  0  3.946474  0  0  -0.079492  -0.15653  0  3.910898  0
C  C38  1  0.39577537  0.17280657  0.78234941  1  0  0.142721  0  3.805509  0  0  0.157307  0  4.033461  0  0  0.163925  0  4.055392  0  0  0.010416  0.153191  0  4.018457  0
C  C39  1  0.60422855  0.82719046  0.21764948  1  0  0.142631  0  3.805409  0  0  0.157226  0  4.03335  0  0  0.163842  0  4.055279  0  0  0.010364  0.153111  0  4.018352  0
C  C40  1  0.37180590  0.30650216  0.73308627  1  0  -0.162214  0  3.700245  0  0  -0.177312  0  3.942687  0  0  -0.186483  0  3.96526  0  0  -0.083336  -0.17146  0  3.927518  0
C  C41  1  0.62819350  0.69349703  0.26691583  1  0  -0.162222  0  3.700168  0  0  -0.177346  0  3.942583  0  0  -0.186495  0  3.965168  0  0  -0.083367  -0.171496  0  3.927419  0
C  C42  1  0.30918521  0.34326644  0.63479035  1  0  0.127303  0  3.718234  0  0  0.09604  0  3.971801  0  0  0.104369  0  3.989966  0  0  0.043522  0.090708  0  3.959038  0
C  C43  1  0.69081621  0.65673374  0.36521207  1  0  0.127336  0  3.718238  0  0  0.096081  0  3.971794  0  0  0.104413  0  3.989951  0  0  0.04355  0.09075  0  3.959036  0
C  C44  1  0.45446443  0.13663108  0.88781380  1  0  -0.111787  0  3.707755  0  0  -0.129966  0  3.954576  0  0  -0.135603  0  3.976844  0  0  -0.080023  -0.126209  0  3.939357  0
C  C45  1  0.54553095  0.86336302  0.11218714  1  0  -0.111517  0  3.70771  0  0  -0.129676  0  3.954482  0  0  -0.135309  0  3.976751  0  0  -0.079867  -0.125923  0  3.939267  0
C  C46  1  0.46951560  0.01551132  0.94865551  1  0  -0.034908  0  3.76682  0  0  -0.053124  0  4.022362  0  0  -0.05311  0  4.043415  0  0  -0.076413  -0.053086  0  4.008115  0
C  C47  1  0.53047771  0.98448491  0.05134814  1  0  -0.035076  0  3.766948  0  0  -0.053315  0  4.022497  0  0  -0.053304  0  4.043548  0  0  -0.076487  -0.053273  0  4.008249  0
C  C48  1  0.60123404  0.27260828  0.35371269  1  0  0.127037  0  3.723566  0  0  0.100496  0  3.972779  0  0  0.108045  0  3.990675  0  0  0.045861  0.095306  0  3.961316  0
C  C49  1  0.39877556  0.72738969  0.64628744  1  0  0.12719  0  3.723294  0  0  0.100668  0  3.972534  0  0  0.10822  0  3.990431  0  0  0.045944  0.095479  0  3.961073  0
C  C50  1  0.74870439  0.30270950  0.29426087  1  0  -0.153407  0  3.658997  0  0  -0.168679  0  3.89926  0  0  -0.177035  0  3.919679  0  0  -0.07687  -0.163567  0  3.88656  0
C  C51  1  0.25129869  0.69729266  0.70573514  1  0  -0.153359  0  3.658881  0  0  -0.168656  0  3.899171  0  0  -0.177013  0  3.919591  0  0  -0.076839  -0.163541  0  3.88647  0
C  C52  1  0.76721419  0.35210382  0.17783240  1  0  0.138547  0  3.804303  0  0  0.152807  0  4.036555  0  0  0.159544  0  4.058393  0  0  0.007863  0.148432  0  4.021984  0
C  C53  1  0.23278401  0.64789842  0.82216293  1  0  0.138376  0  3.804389  0  0  0.152673  0  4.036601  0  0  0.159408  0  4.058445  0  0  0.007759  0.148297  0  4.022036  0
C  C54  1  0.63442388  0.36274302  0.12634550  1  0  -0.186315  0  3.724152  0  0  -0.200665  0  3.968377  0  0  -0.209093  0  3.989232  0  0  -0.090466  -0.195329  0  3.954328  0
C  C55  1  0.36557191  0.63725313  0.87365430  1  0  -0.186144  0  3.724257  0  0  -0.200497  0  3.968482  0  0  -0.208919  0  3.989334  0  0  -0.090409  -0.195164  0  3.954437  0
C  C56  1  0.49185617  0.32981359  0.19219303  1  0  0.122017  0  3.749549  0  0  0.09074  0  4.006339  0  0  0.0986  0  4.023484  0  0  0.038317  0.085833  0  3.994599  0
C  C57  1  0.50814823  0.67017318  0.80781016  1  0  0.122012  0  3.749639  0  0  0.09076  0  4.006414  0  0  0.09862  0  4.023562  0  0  0.038345  0.085856  0  3.994676  0
C  C58  1  0.91642095  0.39210691  0.11918412  1  0  -0.123329  0  3.682116  0  0  -0.144865  0  3.933682  0  0  -0.150276  0  3.954274  0  0  -0.082521  -0.141436  0  3.919957  0
C  C59  1  0.08357275  0.60790052  0.88080824  1  0  -0.123588  0  3.68208  0  0  -0.145107  0  3.933638  0  0  -0.15052  0  3.954232  0  0  -0.082606  -0.141677  0  3.919917  0
C  C60  1  0.92598377  0.47966050  0.02562130  1  0  -0.049547  0  3.784689  0  0  -0.064435  0  4.037455  0  0  -0.065267  0  4.059602  0  0  -0.081368  -0.063778  0  4.022428  0
C  C61  1  0.07400662  0.52034908  0.97437487  1  0  -0.048993  0  3.784242  0  0  -0.063909  0  4.036954  0  0  -0.064739  0  4.059101  0  0  -0.081254  -0.063249  0  4.021922  0
C  C62  1  0.16373829  0.08243873  0.32258520  1  0  0.621886  0  3.950141  0  0  0.574389  0  4.237144  0  0  0.608598  0  4.232309  0  0  0.18847  0.551041  0  4.239412  0
C  C63  1  0.83625985  0.91756357  0.67741851  1  0  0.621742  0  3.950091  0  0  0.574251  0  4.237093  0  0  0.608457  0  4.232261  0  0  0.188394  0.550905  0  4.239361  0
C  C64  1  0.13980055  0.96765208  0.27137248  1  0  -0.067726  0  3.758606  0  0  -0.039487  0  3.987179  0  0  -0.049786  0  4.011413  0  0  -0.018631  -0.033052  0  3.97154  0
C  C65  1  0.86019474  0.03235130  0.72863004  1  0  -0.067585  0  3.758569  0  0  -0.039346  0  3.987124  0  0  -0.049644  0  4.011359  0  0  -0.018586  -0.032917  0  3.971486  0
C  C66  1  0.11065085  0.98262429  0.16007479  1  0  -0.062003  0  3.739347  0  0  -0.089992  0  3.990289  0  0  -0.087298  0  4.009849  0  0  -0.083677  -0.090725  0  3.976288  0
C  C67  1  0.88934199  0.01737913  0.83992822  1  0  -0.062162  0  3.739365  0  0  -0.090157  0  3.990315  0  0  -0.087464  0  4.009875  0  0  -0.083744  -0.090887  0  3.976319  0
C  C68  1  0.08983258  0.87469638  0.11265640  1  0  -0.10207  0  3.800198  0  0  -0.1116  0  4.053642  0  0  -0.117128  0  4.075795  0  0  -0.102717  -0.108049  0  4.037948  0
C  C69  1  0.91016476  0.12530491  0.88734758  1  0  -0.101953  0  3.800175  0  0  -0.111462  0  4.053597  0  0  -0.116988  0  4.075749  0  0  -0.10263  -0.107909  0  4.037895  0
C  C70  1  0.09775163  0.75183350  0.17617394  1  0  -0.061446  0  3.742731  0  0  -0.089688  0  3.992529  0  0  -0.086512  0  4.011668  0  0  -0.087149  -0.090589  0  3.978705  0
C  C71  1  0.90224936  0.24816773  0.82383014  1  0  -0.061545  0  3.742757  0  0  -0.089804  0  3.992545  0  0  -0.08663  0  4.011684  0  0  -0.087175  -0.0907  0  3.978715  0
C  C72  1  0.12458516  0.73636369  0.28821444  1  0  -0.084035  0  3.771411  0  0  -0.056272  0  4.003225  0  0  -0.067119  0  4.027748  0  0  -0.025825  -0.049398  0  3.987356  0
C  C73  1  0.87541054  0.26363865  0.71178893  1  0  -0.08398  0  3.771411  0  0  -0.056211  0  4.003228  0  0  -0.067059  0  4.027754  0  0  -0.025806  -0.049335  0  3.987351  0
C  C74  1  0.14475858  0.84503097  0.33549273  1  0  -0.048073  0  3.677274  0  0  -0.084959  0  3.923848  0  0  -0.081085  0  3.941669  0  0  -0.072458  -0.087906  0  3.913085  0
C  C75  1  0.85523916  0.15497235  0.66450845  1  0  -0.048125  0  3.677288  0  0  -0.085032  0  3.923868  0  0  -0.081155  0  3.941682  0  0  -0.072452  -0.087975  0  3.9131  0
C  C76  1  0.12545073  0.60586107  0.35763353  1  0  0.635217  0  3.932789  0  0  0.58376  0  4.223339  0  0  0.618839  0  4.217474  0  0  0.193348  0.55969  0  4.22646  0
C  C77  1  0.87455069  0.39413911  0.64236805  1  0  0.635274  0  3.932801  0  0  0.583791  0  4.223376  0  0  0.61887  0  4.217511  0  0  0.193315  0.559722  0  4.226495  0
N  N78  1  0.27420010  0.25309160  0.58134200  1  0  -0.353536  0  3.287306  0  0  -0.270809  0  3.552089  0  0  -0.293591  0  3.572623  0  0  -0.336373  -0.254516  0  3.536655  0
N  N79  1  0.72580378  0.74690852  0.41865740  1  0  -0.35368  0  3.287378  0  0  -0.270914  0  3.552124  0  0  -0.293693  0  3.572654  0  0  -0.336399  -0.254621  0  3.536696  0
N  N80  1  0.47310416  0.28700237  0.30483886  1  0  -0.346021  0  3.231799  0  0  -0.275878  0  3.498279  0  0  -0.294691  0  3.515996  0  0  -0.331975  -0.263149  0  3.48603  0
N  N81  1  0.52690223  0.71298847  0.69516350  1  0  -0.34626  0  3.231842  0  0  -0.276136  0  3.498353  0  0  -0.294951  0  3.51607  0  0  -0.332127  -0.263408  0  3.486106  0
O  O82  1  0.16854817  0.19060602  0.25933433  1  0  -0.651829  0  1.971317  0  0  -0.587825  0  2.212365  0  0  -0.616582  0  2.203206  0  0  -0.33583  -0.566102  0  2.218919  0
O  O83  1  0.83144833  0.80939734  0.74066877  1  0  -0.651793  0  1.971213  0  0  -0.587804  0  2.212291  0  0  -0.61656  0  2.203133  0  0  -0.335849  -0.566082  0  2.218844  0
O  O84  1  0.17510277  0.07083481  0.42733407  1  0  -0.631124  0  1.959709  0  0  -0.574235  0  2.198584  0  0  -0.602091  0  2.190391  0  0  -0.327327  -0.553736  0  2.203021  0
O  O85  1  0.82489865  0.92916537  0.57266835  1  0  -0.631089  0  1.9597  0  0  -0.574214  0  2.198589  0  0  -0.602067  0  2.190393  0  0  -0.327308  -0.553714  0  2.203026  0
O  O86  1  0.12749307  0.50546353  0.30325060  1  0  -0.62876  0  2.015538  0  0  -0.561611  0  2.267924  0  0  -0.592226  0  2.259649  0  0  -0.326224  -0.539263  0  2.274253  0
O  O87  1  0.87252061  0.49453639  0.69674514  1  0  -0.62877  0  2.015557  0  0  -0.561588  0  2.267927  0  0  -0.592203  0  2.259653  0  0  -0.326194  -0.539241  0  2.274254  0
O  O88  1  0.12304558  0.60049247  0.46563788  1  0  -0.671608  0  1.95699  0  0  -0.609271  0  2.206392  0  0  -0.635671  0  2.193096  0  0  -0.341903  -0.589714  0  2.214764  0
O  O89  1  0.87695748  0.39950665  0.53436348  1  0  -0.671663  0  1.956992  0  0  -0.609311  0  2.206392  0  0  -0.635711  0  2.193094  0  0  -0.341913  -0.589754  0  2.214764  0
