# generated using pymatgen
data_ZnH8C6N8O
_symmetry_space_group_name_H-M   'P 1'
_cell_length_a   13.07765037
_cell_length_b   15.12325056
_cell_length_c   15.12198442
_cell_angle_alpha   112.04369267
_cell_angle_beta   106.74788706
_cell_angle_gamma   106.76228683
_symmetry_Int_Tables_number   1
_chemical_formula_structural   ZnH8C6N8O
_chemical_formula_sum   'Zn6 H48 C36 N48 O6'
_cell_volume   2374.88175840
_cell_formula_units_Z   6
loop_
 _symmetry_equiv_pos_site_id
 _symmetry_equiv_pos_as_xyz
  1  'x, y, z'
loop_
 _atom_site_type_symbol
 _atom_site_label
 _atom_site_symmetry_multiplicity
 _atom_site_fract_x
 _atom_site_fract_y
 _atom_site_fract_z
 _atom_site_occupancy
 _atom_site_pbe_bader_charge
 _atom_site_pbe_bader_spin_density
 _atom_site_pbe_cm5_charge
 _atom_site_pbe_ddec_charge
 _atom_site_pbe_ddec_spin_density
 _atom_site_pbe_ddec_sum_bond_order
 _atom_site_pbe_magmom
Zn  Zn0  1  0.77434020  0.52173884  0.80908308  1  1.228288  0  0.75157  0.659297  0  2.507526  0
Zn  Zn1  1  0.25262253  0.28737046  0.47826936  1  1.230367  0  0.751938  0.660456  0  2.506383  0
Zn  Zn2  1  0.96522021  0.19089813  0.71265061  1  1.230768  0  0.752206  0.661528  0  2.50465  0
Zn  Zn3  1  0.22565991  0.47826112  0.19091709  1  1.228281  0  0.751571  0.659278  0  2.507569  0
Zn  Zn4  1  0.74737758  0.71262949  0.52173082  1  1.230392  0  0.75194  0.66046  0  2.506353  0
Zn  Zn5  1  0.03477990  0.80910183  0.28734957  1  1.230771  0  0.752206  0.661543  0  2.504664  0
H  H6  1  0.98490702  0.47949321  0.71804665  1  0.111479  0  0.112979  0.133696  0  0.992714  0
H  H7  1  0.50535073  0.23863105  0.52052899  1  0.147021  0  0.112701  0.133447  0  0.992469  0
H  H8  1  0.26672886  0.28197506  0.76145320  1  0.119096  0  0.112447  0.132868  0  0.992469  0
H  H9  1  0.01509348  0.52050754  0.28195393  1  0.111483  0  0.113005  0.133732  0  0.992667  0
H  H10  1  0.49464938  0.76136891  0.47947119  1  0.147005  0  0.112703  0.133477  0  0.992469  0
H  H11  1  0.73327125  0.71802490  0.23854697  1  0.119098  0  0.112455  0.132877  0  0.992483  0
H  H12  1  0.06059027  0.40940902  0.75453836  1  0.087758  0  0.11024  0.125263  0  0.997709  0
H  H13  1  0.65116932  0.34515885  0.59059659  1  0.096759  0  0.110046  0.124854  0  0.998883  0
H  H14  1  0.30603644  0.24552977  0.65492724  1  0.082132  0  0.110132  0.124967  0  0.997727  0
H  H15  1  0.93941024  0.59059173  0.24546222  1  0.087753  0  0.110232  0.125274  0  0.997705  0
H  H16  1  0.34883198  0.65484191  0.40940352  1  0.096769  0  0.110046  0.12486  0  0.998908  0
H  H17  1  0.69396167  0.75446939  0.34507214  1  0.082219  0  0.110124  0.124966  0  0.99769  0
H  H18  1  0.10147718  0.52080096  0.94750891  1  0.040354  0  0.093864  0.057859  0  0.990851  0
H  H19  1  0.58069611  0.42676636  0.47919520  1  0.033875  0  0.093975  0.058496  0  0.990086  0
H  H20  1  0.15399883  0.05252772  0.57330123  1  0.04279  0  0.094245  0.058369  0  0.99074  0
H  H21  1  0.89852293  0.47919900  0.05249127  1  0.040085  0  0.093858  0.057838  0  0.99086  0
H  H22  1  0.41930400  0.57323359  0.52080432  1  0.033877  0  0.093973  0.058492  0  0.990096  0
H  H23  1  0.84600048  0.94747223  0.42669742  1  0.042808  0  0.094242  0.058391  0  0.990769  0
H  H24  1  0.17186919  0.59136276  0.89344747  1  0.073777  0  0.107406  0.074632  0  0.950313  0
H  H25  1  0.58047964  0.30213187  0.40865528  1  0.063626  0  0.107621  0.074764  0  0.950707  0
H  H26  1  0.27837834  0.10663418  0.69797365  1  0.075414  0  0.107098  0.07353  0  0.950596  0
H  H27  1  0.82813172  0.40863719  0.10655290  1  0.073789  0  0.107406  0.074633  0  0.950314  0
H  H28  1  0.41952047  0.69786809  0.59134489  1  0.063625  0  0.107624  0.074763  0  0.950715  0
H  H29  1  0.72161977  0.89336498  0.30202573  1  0.075396  0  0.107101  0.073548  0  0.950549  0
H  H30  1  0.17631942  0.75938855  0.01189568  1  0.049136  0  0.102953  0.067781  0  0.953883  0
H  H31  1  0.41682830  0.25257166  0.24060652  1  0.054585  0  0.103176  0.067921  0  0.953752  0
H  H32  1  0.16429602  0.98808403  0.74741910  1  0.036955  0  0.103364  0.068088  0  0.954356  0
H  H33  1  0.82368229  0.24061300  0.98810615  1  0.049105  0  0.102964  0.067774  0  0.953881  0
H  H34  1  0.58317261  0.74742830  0.75939385  1  0.054595  0  0.103161  0.067921  0  0.953726  0
H  H35  1  0.83570448  0.01191672  0.25258148  1  0.03695  0  0.103392  0.068165  0  0.954294  0
H  H36  1  0.12752689  0.68596061  0.07238673  1  0.059466  0  0.098981  0.062303  0  1.026324  0
H  H37  1  0.44152096  0.38648122  0.31406005  1  0.079117  0  0.099069  0.062927  0  1.025215  0
H  H38  1  0.05501155  0.92760863  0.61352889  1  0.077772  0  0.099073  0.062897  0  1.025616  0
H  H39  1  0.87247322  0.31403935  0.92761345  1  0.059468  0  0.09898  0.062297  0  1.026326  0
H  H40  1  0.55847995  0.61351874  0.68593966  1  0.079118  0  0.09907  0.062937  0  1.025195  0
H  H41  1  0.94498696  0.07238974  0.38647161  1  0.077776  0  0.099079  0.062906  0  1.025639  0
H  H42  1  0.07783159  0.84103606  0.10786048  1  0.092965  0  0.110161  0.12239  0  0.977415  0
H  H43  1  0.23671985  0.26687362  0.15900802  1  0.074517  0  0.110333  0.12279  0  0.977542  0
H  H44  1  0.96994351  0.89211883  0.73321057  1  0.076193  0  0.110208  0.122554  0  0.976937  0
H  H45  1  0.92216851  0.15896390  0.89213970  1  0.092964  0  0.110161  0.122375  0  0.97742  0
H  H46  1  0.76328065  0.73312713  0.84099189  1  0.074518  0  0.11033  0.122776  0  0.977542  0
H  H47  1  0.03005660  0.10788113  0.26678960  1  0.076196  0  0.110206  0.122557  0  0.976941  0
H  H48  1  0.98885187  0.78190101  0.96852189  1  0.048816  0  0.105899  0.11898  0  0.969611  0
H  H49  1  0.20687720  0.18667884  0.21815522  1  0.05092  0  0.105976  0.119153  0  0.969298  0
H  H50  1  0.02027238  0.03145372  0.81340260  1  0.04945  0  0.105957  0.119389  0  0.96804  0
H  H51  1  0.01114943  0.21809814  0.03147763  1  0.048752  0  0.105898  0.11897  0  0.969604  0
H  H52  1  0.79312251  0.81332192  0.78184449  1  0.050913  0  0.105966  0.119138  0  0.969272  0
H  H53  1  0.97972693  0.96854623  0.18659738  1  0.049453  0  0.105963  0.119399  0  0.968031  0
C  C54  1  0.89495062  0.37398930  0.76093557  1  0.968071  0  0.229934  0.331701  0  3.962544  0
C  C55  1  0.52098156  0.38701378  0.62604839  1  0.959233  0  0.228731  0.330555  0  3.963784  0
C  C56  1  0.13397590  0.23907519  0.61303216  1  0.971712  0  0.229711  0.330406  0  3.961978  0
C  C57  1  0.10504988  0.62601146  0.23906434  1  0.968057  0  0.229917  0.331726  0  3.962565  0
C  C58  1  0.47901815  0.61298697  0.37395133  1  0.959248  0  0.228752  0.330586  0  3.96372  0
C  C59  1  0.86602341  0.76092476  0.38696716  1  0.971267  0  0.229747  0.330458  0  3.962087  0
C  C60  1  0.00743808  0.45097539  0.77466493  1  0.017189  0  -0.153747  -0.282739  0  3.945215  0
C  C61  1  0.55645840  0.32376177  0.54905169  1  -0.021085  0  -0.152794  -0.281469  0  3.944984  0
C  C62  1  0.23271505  0.22535923  0.67631568  1  0.020916  0  -0.153103  -0.281048  0  3.9423  0
C  C63  1  0.99256242  0.54902537  0.22533498  1  0.017208  0  -0.153741  -0.282785  0  3.945163  0
C  C64  1  0.44354251  0.67623979  0.45094928  1  -0.0211  0  -0.152795  -0.281502  0  3.944987  0
C  C65  1  0.76728466  0.77463993  0.32368344  1  0.020827  0  -0.153104  -0.281043  0  3.942345  0
C  C66  1  0.08457182  0.54614411  0.88720552  1  0.414916  0  -0.062991  0.057543  0  3.903461  0
C  C67  1  0.53841624  0.34112102  0.45387272  1  0.435385  0  -0.063595  0.055889  0  3.903005  0
C  C68  1  0.19730502  0.11282406  0.65895184  1  0.41493  0  -0.06316  0.058053  0  3.900174  0
C  C69  1  0.91542829  0.45385584  0.11279399  1  0.415184  0  -0.062973  0.057608  0  3.903406  0
C  C70  1  0.46158386  0.65887893  0.54612746  1  0.435393  0  -0.063597  0.055896  0  3.90299  0
C  C71  1  0.80269389  0.88717509  0.34104774  1  0.414917  0  -0.063162  0.057985  0  3.900217  0
C  C72  1  0.09640013  0.70654649  0.01039914  1  0.452278  0  -0.065882  0.048175  0  3.918311  0
C  C73  1  0.38979253  0.30391696  0.29348331  1  0.432585  0  -0.066645  0.046739  0  3.917989  0
C  C74  1  0.08588935  0.98958112  0.69609782  1  0.448452  0  -0.066713  0.046363  0  3.918892  0
C  C75  1  0.90360077  0.29345506  0.98960184  1  0.452235  0  -0.065885  0.048195  0  3.918234  0
C  C76  1  0.61020758  0.69608299  0.70651686  1  0.432557  0  -0.066689  0.046636  0  3.917902  0
C  C77  1  0.91410996  0.01041883  0.30390150  1  0.448444  0  -0.066758  0.046225  0  3.918919  0
C  C78  1  0.02082057  0.76464494  0.03295684  1  -0.003249  0  -0.148719  -0.271166  0  3.977818  0
C  C79  1  0.25611317  0.26836353  0.23540196  1  0.005322  0  -0.148915  -0.272005  0  3.978554  0
C  C80  1  0.98779951  0.96701474  0.73170209  1  -0.005284  0  -0.148751  -0.271467  0  3.977006  0
C  C81  1  0.97918034  0.23535502  0.96704288  1  -0.002908  0  -0.14871  -0.271101  0  3.977764  0
C  C82  1  0.74388774  0.73163643  0.76459841  1  0.005326  0  -0.148868  -0.271891  0  3.97839  0
C  C83  1  0.01219980  0.03298522  0.26829788  1  -0.005281  0  -0.148758  -0.271484  0  3.977005  0
C  C84  1  0.91730211  0.70224595  0.04235004  1  0.998768  0  0.221454  0.310005  0  4.00353  0
C  C85  1  0.21498766  0.34014601  0.29779031  1  0.982529  0  0.221662  0.312758  0  4.002724  0
C  C86  1  0.87486822  0.95761160  0.65993970  1  0.990217  0  0.221078  0.310223  0  4.00554  0
C  C87  1  0.08269839  0.29775480  0.95764988  1  0.998624  0  0.221412  0.309923  0  4.003557  0
C  C88  1  0.78501245  0.65985395  0.70220987  1  0.982523  0  0.221671  0.312728  0  4.002804  0
C  C89  1  0.12513149  0.04238756  0.34006007  1  0.990221  0  0.221102  0.310259  0  4.005422  0
N  N90  1  0.80595194  0.39461824  0.77552013  1  -0.807447  0  -0.257506  -0.273841  0  3.526432  0
N  N91  1  0.41135401  0.38095819  0.60541423  1  -0.816355  0  -0.256597  -0.273179  0  3.526423  0
N  N92  1  0.03037770  0.22447681  0.61906275  1  -0.815881  0  -0.25715  -0.274146  0  3.526358  0
N  N93  1  0.19404776  0.60538251  0.22448025  1  -0.807432  0  -0.257554  -0.273901  0  3.526486  0
N  N94  1  0.58864610  0.61904176  0.39458529  1  -0.816332  0  -0.25661  -0.273171  0  3.526339  0
N  N95  1  0.96962081  0.77552315  0.38093703  1  -0.815891  0  -0.257171  -0.274212  0  3.526458  0
N  N96  1  0.72099112  0.30242657  0.75554304  1  -0.094169  0  -0.102374  -0.084742  0  3.224666  0
N  N97  1  0.41858498  0.45315678  0.69760844  1  -0.082612  0  -0.10351  -0.086158  0  3.22311  0
N  N98  1  0.96541839  0.24443084  0.54682351  1  -0.110653  0  -0.102787  -0.084755  0  3.224482  0
N  N99  1  0.27900898  0.69757338  0.24445648  1  -0.094167  0  -0.10234  -0.084703  0  3.224712  0
N  N100  1  0.58141473  0.54684238  0.30239133  1  -0.082617  0  -0.103532  -0.086195  0  3.223158  0
N  N101  1  0.03458092  0.75556911  0.45317581  1  -0.110617  0  -0.102787  -0.084747  0  3.224526  0
N  N102  1  0.75680679  0.22890824  0.72987697  1  -0.100193  0  -0.097715  -0.071477  0  3.242303  0
N  N103  1  0.52792423  0.50100925  0.77113343  1  -0.104651  0  -0.097335  -0.07108  0  3.241177  0
N  N104  1  0.02693155  0.27009619  0.49897566  1  -0.077012  0  -0.098104  -0.072832  0  3.244496  0
N  N105  1  0.24319372  0.77109252  0.27012361  1  -0.10021  0  -0.097697  -0.071441  0  3.242277  0
N  N106  1  0.47207508  0.49899071  0.22886721  1  -0.104864  0  -0.097323  -0.07108  0  3.241287  0
N  N107  1  0.97306776  0.72990377  0.50102365  1  -0.076992  0  -0.098051  -0.072749  0  3.244488  0
N  N108  1  0.86524177  0.27123075  0.73231355  1  -0.77959  0  -0.250061  -0.275817  0  3.507291  0
N  N109  1  0.59403908  0.46114130  0.72881027  1  -0.784006  0  -0.249745  -0.27452  0  3.506822  0
N  N110  1  0.13292604  0.26768353  0.53888400  1  -0.792674  0  -0.250081  -0.274111  0  3.508175  0
N  N111  1  0.13475913  0.72876920  0.26768682  1  -0.779593  0  -0.250068  -0.27587  0  3.50732  0
N  N112  1  0.40596023  0.53885865  0.27118905  1  -0.783814  0  -0.249742  -0.274506  0  3.506847  0
N  N113  1  0.86707327  0.73231642  0.46111532  1  -0.792264  0  -0.250105  -0.274158  0  3.508226  0
N  N114  1  0.81867114  0.61424160  0.96184302  1  -0.815885  0  -0.252467  -0.270595  0  3.532664  0
N  N115  1  0.20439257  0.34766330  0.38581765  1  -0.805411  0  -0.252936  -0.273145  0  3.535557  0
N  N116  1  0.85678122  0.03813088  0.65244624  1  -0.79239  0  -0.25214  -0.271711  0  3.532575  0
N  N117  1  0.18132976  0.38575835  0.03815736  1  -0.815903  0  -0.252482  -0.270602  0  3.532686  0
N  N118  1  0.79560794  0.65233586  0.61418167  1  -0.80539  0  -0.252974  -0.273181  0  3.535673  0
N  N119  1  0.14321769  0.96186828  0.34755334  1  -0.792418  0  -0.252177  -0.271772  0  3.532526  0
N  N120  1  0.74917707  0.57964679  0.00524824  1  -0.074466  0  -0.086227  -0.058506  0  3.198485  0
N  N121  1  0.16951847  0.42566667  0.42042434  1  -0.051306  0  -0.085152  -0.056614  0  3.197289  0
N  N122  1  0.74392041  0.99473002  0.57440065  1  -0.070627  0  -0.085733  -0.057203  0  3.19668  0
N  N123  1  0.25082224  0.42035317  0.99475174  1  -0.074462  0  -0.086191  -0.058453  0  3.198441  0
N  N124  1  0.83048124  0.57433249  0.57957544  1  -0.051356  0  -0.085088  -0.056509  0  3.197449  0
N  N125  1  0.25607889  0.00526994  0.42559867  1  -0.07061  0  -0.085733  -0.057161  0  3.196628  0
N  N126  1  0.80310953  0.64415266  0.10756226  1  -0.091725  0  -0.082176  -0.055992  0  3.234202  0
N  N127  1  0.15892309  0.46345668  0.35590004  1  -0.107876  0  -0.082099  -0.055026  0  3.231162  0
N  N128  1  0.69552064  0.89241626  0.53657743  1  -0.0963  0  -0.081407  -0.054769  0  3.233193  0
N  N129  1  0.19689098  0.35584809  0.89243765  1  -0.09174  0  -0.082183  -0.055984  0  3.23412  0
N  N130  1  0.84107702  0.53654328  0.64409948  1  -0.107873  0  -0.0821  -0.055037  0  3.231197  0
N  N131  1  0.30447947  0.10758370  0.46342209  1  -0.096297  0  -0.081397  -0.054802  0  3.233167  0
N  N132  1  0.90879660  0.72232042  0.13345243  1  -0.800924  0  -0.252788  -0.276304  0  3.519504  0
N  N133  1  0.18640699  0.41116494  0.27771713  1  -0.801772  0  -0.253122  -0.278731  0  3.520246  0
N  N134  1  0.77526725  0.86651223  0.58888002  1  -0.804312  0  -0.253621  -0.278042  0  3.521497  0
N  N135  1  0.09120351  0.27767953  0.86654775  1  -0.800924  0  -0.252764  -0.276301  0  3.519484  0
N  N136  1  0.81359352  0.58883581  0.72228278  1  -0.801766  0  -0.253157  -0.278785  0  3.520353  0
N  N137  1  0.22473286  0.13348772  0.41112016  1  -0.804271  0  -0.253614  -0.278003  0  3.521463  0
O  O138  1  0.02585705  0.61274778  0.90829442  1  -1.07789  0  -0.233089  -0.249349  0  2.533524  0
O  O139  1  0.41308301  0.29560676  0.38728331  1  -1.071767  0  -0.232471  -0.248246  0  2.530703  0
O  O140  1  0.11743888  0.09168986  0.70440554  1  -1.06841  0  -0.232803  -0.248853  0  2.530604  0
O  O141  1  0.97414506  0.38725297  0.09170590  1  -1.077941  0  -0.233108  -0.249398  0  2.53348  0
O  O142  1  0.58691710  0.70439319  0.61271621  1  -1.071738  0  -0.232449  -0.248215  0  2.530666  0
O  O143  1  0.88255843  0.90830930  0.29559232  1  -1.068398  0  -0.232799  -0.248803  0  2.530586  0
