# generated using pymatgen
data_AgH8C8S2N2(ClO2)3
_symmetry_space_group_name_H-M   'P 1'
_cell_length_a   9.69764832
_cell_length_b   13.28662081
_cell_length_c   13.74027401
_cell_angle_alpha   103.52618602
_cell_angle_beta   109.45539572
_cell_angle_gamma   95.88776891
_symmetry_Int_Tables_number   1
_chemical_formula_structural   AgH8C8S2N2(ClO2)3
_chemical_formula_sum   'Ag4 H32 C32 S8 N8 Cl12 O24'
_cell_volume   1591.26494355
_cell_formula_units_Z   4
loop_
 _symmetry_equiv_pos_site_id
 _symmetry_equiv_pos_as_xyz
  1  'x, y, z'
loop_
 _atom_site_type_symbol
 _atom_site_label
 _atom_site_symmetry_multiplicity
 _atom_site_fract_x
 _atom_site_fract_y
 _atom_site_fract_z
 _atom_site_occupancy
 _atom_site_hle17_bader_spin_density
 _atom_site_hle17_ddec_charge
 _atom_site_hle17_ddec_spin_density
 _atom_site_hle17_ddec_sum_bond_order
 _atom_site_hle17_magmom
 _atom_site_hse06_10hf_bader_spin_density
 _atom_site_hse06_10hf_ddec_charge
 _atom_site_hse06_10hf_ddec_spin_density
 _atom_site_hse06_10hf_ddec_sum_bond_order
 _atom_site_hse06_10hf_magmom
 _atom_site_hse06_bader_spin_density
 _atom_site_hse06_ddec_charge
 _atom_site_hse06_ddec_spin_density
 _atom_site_hse06_ddec_sum_bond_order
 _atom_site_hse06_magmom
 _atom_site_pbe_bader_spin_density
 _atom_site_pbe_cm5_charge
 _atom_site_pbe_ddec_charge
 _atom_site_pbe_ddec_spin_density
 _atom_site_pbe_ddec_sum_bond_order
 _atom_site_pbe_magmom
Ag  Ag0  1  0.98558556  0.42481905  0.23010050  1  0  0.724144  0  1.153909  0  0  0.613967  0  1.561619  0  0  0.642567  0  1.512661  0  0  0.453343  0.593483  0  1.595761  0
Ag  Ag1  1  0.01441726  0.57518156  0.76990145  1  0  0.72416  0  1.153897  0  0  0.613972  0  1.561618  0  0  0.642571  0  1.512658  0  0  0.45334  0.593491  0  1.595764  0
Ag  Ag2  1  0.00000006  0.50000010  0.00000096  1  0  0.736849  0  1.214499  0  0  0.639035  0  1.627579  0  0  0.662633  0  1.579348  0  0  0.462158  0.622476  0  1.661091  0
Ag  Ag3  1  0.00000062  0.50000033  0.50000122  1  0  0.739309  0  1.1665  0  0  0.639411  0  1.573599  0  0  0.664794  0  1.524867  0  0  0.460593  0.621345  0  1.60761  0
H  H4  1  0.03640120  0.18785692  0.11957223  1  0  0.167011  0  0.928527  0  0  0.175939  0  0.989104  0  0  0.180111  0  0.986381  0  0  0.113463  0.172922  0  0.991307  0
H  H5  1  0.96360183  0.81214448  0.88042994  1  0  0.166992  0  0.928535  0  0  0.175918  0  0.989109  0  0  0.180089  0  0.986387  0  0  0.113458  0.172901  0  0.991313  0
H  H6  1  0.30233441  0.45080066  0.99360991  1  0  0.112869  0  0.960643  0  0  0.127611  0  1.033333  0  0  0.128663  0  1.032868  0  0  0.103634  0.126622  0  1.033924  0
H  H7  1  0.69766710  0.54919915  0.00639009  1  0  0.112844  0  0.960672  0  0  0.127593  0  1.033352  0  0  0.128642  0  1.032893  0  0  0.103623  0.126604  0  1.033941  0
H  H8  1  0.47659840  0.41147770  0.05170800  1  0  0.121833  0  0.960817  0  0  0.143661  0  1.018123  0  0  0.1448  0  1.01764  0  0  0.107161  0.142734  0  1.018533  0
H  H9  1  0.52340289  0.58852132  0.94829250  1  0  0.121847  0  0.960852  0  0  0.143676  0  1.01815  0  0  0.144813  0  1.017668  0  0  0.107162  0.14275  0  1.018562  0
H  H10  1  0.39123538  0.48363930  0.13570057  1  0  0.107359  0  0.939749  0  0  0.129752  0  1.00073  0  0  0.13018  0  1.000862  0  0  0.109159  0.129272  0  1.000829  0
H  H11  1  0.60876504  0.51636050  0.86429845  1  0  0.107345  0  0.939768  0  0  0.129731  0  1.000757  0  0  0.130159  0  1.000886  0  0  0.109141  0.129251  0  1.000853  0
H  H12  1  0.08914289  0.77252900  0.14865480  1  0  0.174635  0  0.937886  0  0  0.182278  0  0.997891  0  0  0.186499  0  0.995663  0  0  0.113299  0.179261  0  0.999629  0
H  H13  1  0.91085643  0.22747081  0.85134468  1  0  0.174644  0  0.937869  0  0  0.18229  0  0.997871  0  0  0.18651  0  0.995641  0  0  0.113298  0.179273  0  0.999608  0
H  H14  1  0.72637507  0.53300733  0.19306325  1  0  0.127962  0  0.957046  0  0  0.14585  0  1.023813  0  0  0.147558  0  1.022373  0  0  0.113893  0.14444  0  1.025025  0
H  H15  1  0.27362467  0.46699406  0.80693814  1  0  0.12795  0  0.95704  0  0  0.14583  0  1.023816  0  0  0.147538  0  1.022375  0  0  0.11388  0.144421  0  1.025028  0
H  H16  1  0.60558186  0.62401279  0.20938002  1  0  0.107515  0  0.946147  0  0  0.127512  0  1.009891  0  0  0.128185  0  1.009628  0  0  0.100837  0.126923  0  1.010144  0
H  H17  1  0.39441767  0.37598781  0.79062042  1  0  0.107492  0  0.946176  0  0  0.127516  0  1.009881  0  0  0.128189  0  1.009617  0  0  0.100837  0.126926  0  1.010134  0
H  H18  1  0.74910038  0.60861636  0.32555788  1  0  0.121737  0  0.964257  0  0  0.139371  0  1.030692  0  0  0.140841  0  1.029207  0  0  0.102935  0.138121  0  1.031939  0
H  H19  1  0.25089915  0.39138424  0.67444256  1  0  0.121723  0  0.964239  0  0  0.13934  0  1.030699  0  0  0.14081  0  1.029214  0  0  0.102916  0.138092  0  1.031944  0
H  H20  1  0.05483036  0.77971229  0.50755025  1  0  0.17577  0  0.929517  0  0  0.183726  0  0.988635  0  0  0.187884  0  0.986527  0  0  0.115554  0.18073  0  0.990297  0
H  H21  1  0.94516829  0.22028910  0.49245161  1  0  0.175708  0  0.929599  0  0  0.183698  0  0.988684  0  0  0.187851  0  0.986583  0  0  0.115529  0.180702  0  0.990347  0
H  H22  1  0.30742964  0.54455287  0.34103772  1  0  0.129487  0  0.950424  0  0  0.148318  0  1.014649  0  0  0.149856  0  1.013491  0  0  0.114005  0.147042  0  1.015592  0
H  H23  1  0.69257098  0.45544773  0.65896298  1  0  0.129453  0  0.950459  0  0  0.148318  0  1.014638  0  0  0.14986  0  1.013483  0  0  0.113991  0.147043  0  1.015583  0
H  H24  1  0.46912781  0.64000193  0.36606893  1  0  0.111228  0  0.942595  0  0  0.131417  0  1.004813  0  0  0.132151  0  1.00439  0  0  0.102214  0.130774  0  1.005185  0
H  H25  1  0.53087193  0.35999946  0.63393246  1  0  0.111231  0  0.94259  0  0  0.131414  0  1.004816  0  0  0.132149  0  1.004393  0  0  0.102217  0.130772  0  1.005189  0
H  H26  1  0.30828563  0.61241101  0.24283167  1  0  0.119941  0  0.961555  0  0  0.137142  0  1.028698  0  0  0.138465  0  1.027382  0  0  0.102925  0.135971  0  1.02987  0
H  H27  1  0.69171390  0.38758959  0.75716950  1  0  0.11995  0  0.96156  0  0  0.137148  0  1.028713  0  0  0.138471  0  1.027396  0  0  0.102919  0.135976  0  1.029884  0
H  H28  1  0.82135321  0.18069969  0.20486228  1  0  0.170363  0  0.926183  0  0  0.180207  0  0.983999  0  0  0.184292  0  0.981322  0  0  0.116528  0.177291  0  0.986054  0
H  H29  1  0.17864588  0.81930327  0.79513567  1  0  0.170387  0  0.926148  0  0  0.180212  0  0.983987  0  0  0.184299  0  0.98131  0  0  0.116548  0.177297  0  0.986043  0
H  H30  1  0.67344535  0.44481091  0.45968266  1  0  0.112884  0  0.958231  0  0  0.126879  0  1.031706  0  0  0.128194  0  1.030691  0  0  0.104148  0.1257  0  1.032685  0
H  H31  1  0.32655595  0.55518811  0.54031712  1  0  0.112851  0  0.958304  0  0  0.126843  0  1.031778  0  0  0.128156  0  1.030768  0  0  0.104123  0.125664  0  1.032754  0
H  H32  1  0.47825228  0.38717331  0.39100819  1  0  0.125903  0  0.964604  0  0  0.144883  0  1.025397  0  0  0.146271  0  1.024465  0  0  0.105765  0.143757  0  1.026167  0
H  H33  1  0.52174901  0.61282571  0.60899304  1  0  0.12592  0  0.964589  0  0  0.144897  0  1.025383  0  0  0.146285  0  1.024453  0  0  0.105771  0.143772  0  1.02615  0
H  H34  1  0.57469474  0.45892759  0.33018223  1  0  0.107253  0  0.926661  0  0  0.133738  0  0.979368  0  0  0.133588  0  0.980524  0  0  0.10953  0.133687  0  0.978705  0
H  H35  1  0.42530501  0.54107380  0.66981916  1  0  0.107274  0  0.926724  0  0  0.133766  0  0.979412  0  0  0.133618  0  0.980566  0  0  0.10953  0.133702  0  0.978765  0
C  C36  1  0.17440110  0.31803498  0.09663829  1  0  0.523919  0  3.846636  0  0  0.479024  0  4.126614  0  0  0.509215  0  4.128357  0  0  0.210745  0.458814  0  4.124623  0
C  C37  1  0.82560041  0.68196483  0.90336244  1  0  0.523813  0  3.84667  0  0  0.478907  0  4.126675  0  0  0.509101  0  4.128417  0  0  0.210711  0.458697  0  4.124682  0
C  C38  1  0.12663821  0.21110488  0.09447951  1  0  -0.288302  0  3.703274  0  0  -0.324665  0  3.976606  0  0  -0.33433  0  3.990019  0  0  -0.118947  -0.318562  0  3.967719  0
C  C39  1  0.87336373  0.78889652  0.90552240  1  0  -0.288273  0  3.703266  0  0  -0.324612  0  3.976593  0  0  -0.334278  0  3.990009  0  0  -0.118969  -0.318512  0  3.967708  0
C  C40  1  0.21007879  0.14551920  0.05909414  1  0  0.044103  0  3.917553  0  0  0.04415  0  4.234234  0  0  0.053351  0  4.252359  0  0  0.004662  0.038232  0  4.22172  0
C  C41  1  0.78991943  0.85448060  0.94090654  1  0  0.044042  0  3.917554  0  0  0.044063  0  4.234274  0  0  0.053262  0  4.252401  0  0  0.004659  0.038145  0  4.221763  0
C  C42  1  0.37059791  0.42345360  0.05999457  1  0  -0.152687  0  3.604767  0  0  -0.254704  0  3.850267  0  0  -0.249864  0  3.85726  0  0  -0.138406  -0.257646  0  3.845677  0
C  C43  1  0.62940338  0.57654542  0.94000593  1  0  -0.15269  0  3.604826  0  0  -0.254709  0  3.850319  0  0  -0.249865  0  3.857313  0  0  -0.138392  -0.257652  0  3.845728  0
C  C44  1  0.92673488  0.67090116  0.18465438  1  0  0.523532  0  3.8518  0  0  0.477524  0  4.138711  0  0  0.507483  0  4.140383  0  0  0.21153  0.457503  0  4.136701  0
C  C45  1  0.07326466  0.32909943  0.81534605  1  0  0.523634  0  3.85173  0  0  0.477635  0  4.138636  0  0  0.507594  0  4.140305  0  0  0.211553  0.457614  0  4.13663  0
C  C46  1  0.00338109  0.76913871  0.18299074  1  0  -0.303625  0  3.70194  0  0  -0.341294  0  3.979582  0  0  -0.351556  0  3.994046  0  0  -0.124977  -0.334695  0  3.969864  0
C  C47  1  0.99661823  0.23086110  0.81700947  1  0  -0.303676  0  3.701935  0  0  -0.341336  0  3.979535  0  0  -0.35161  0  3.994031  0  0  -0.124971  -0.334737  0  3.96982  0
C  C48  1  0.95528244  0.85369041  0.22958180  1  0  0.05009  0  3.917701  0  0  0.050777  0  4.235286  0  0  0.059946  0  4.253398  0  0  0.007513  0.04487  0  4.222774  0
C  C49  1  0.04471491  0.14631018  0.77041594  1  0  0.050191  0  3.917644  0  0  0.050876  0  4.235247  0  0  0.060043  0  4.253355  0  0  0.007553  0.044968  0  4.222738  0
C  C50  1  0.71888001  0.60899523  0.24136180  1  0  -0.170497  0  3.608829  0  0  -0.273388  0  3.854712  0  0  -0.269061  0  3.861516  0  0  -0.143225  -0.275979  0  3.850299  0
C  C51  1  0.28111974  0.39100615  0.75863887  1  0  -0.170467  0  3.608789  0  0  -0.273353  0  3.854661  0  0  -0.269028  0  3.861465  0  0  -0.143207  -0.275943  0  3.850246  0
C  C52  1  0.16966085  0.67922836  0.41890534  1  0  0.52495  0  3.850031  0  0  0.479281  0  4.138017  0  0  0.509097  0  4.139998  0  0  0.212274  0.459355  0  4.135787  0
C  C53  1  0.83033672  0.32076908  0.58109466  1  0  0.524993  0  3.849971  0  0  0.479342  0  4.137942  0  0  0.509159  0  4.139917  0  0  0.212295  0.459416  0  4.135715  0
C  C54  1  0.13942438  0.77722927  0.47187790  1  0  -0.297898  0  3.696414  0  0  -0.334627  0  3.972626  0  0  -0.34481  0  3.987296  0  0  -0.121464  -0.328067  0  3.962805  0
C  C55  1  0.86057384  0.22277054  0.52812278  1  0  -0.297784  0  3.696421  0  0  -0.334565  0  3.972624  0  0  -0.344742  0  3.987297  0  0  -0.121402  -0.328004  0  3.962802  0
C  C56  1  0.22897857  0.86251757  0.47053751  1  0  0.055168  0  3.908409  0  0  0.056135  0  4.225129  0  0  0.065375  0  4.243091  0  0  0.007129  0.05015  0  4.212748  0
C  C57  1  0.77101987  0.13748302  0.52946195  1  0  0.055134  0  3.908374  0  0  0.056124  0  4.225082  0  0  0.065361  0  4.243048  0  0  0.007129  0.050147  0  4.212671  0
C  C58  1  0.34697782  0.61931446  0.32918500  1  0  -0.165505  0  3.599861  0  0  -0.267147  0  3.844607  0  0  -0.262742  0  3.851579  0  0  -0.140755  -0.269775  0  3.840091  0
C  C59  1  0.65302259  0.38068535  0.67081620  1  0  -0.165503  0  3.599901  0  0  -0.267179  0  3.844646  0  0  -0.262779  0  3.85162  0  0  -0.140744  -0.269807  0  3.840131  0
C  C60  1  0.73837020  0.30675355  0.29445862  1  0  0.522902  0  3.845415  0  0  0.478231  0  4.126342  0  0  0.508351  0  4.128089  0  0  0.214209  0.458059  0  4.124359  0
C  C61  1  0.26163065  0.69324784  0.70554158  1  0  0.522869  0  3.845471  0  0  0.47823  0  4.126372  0  0  0.508353  0  4.128121  0  0  0.214169  0.458056  0  4.124392  0
C  C62  1  0.73860544  0.20051353  0.23921793  1  0  -0.280872  0  3.69778  0  0  -0.317178  0  3.967486  0  0  -0.326623  0  3.981047  0  0  -0.116054  -0.311217  0  3.958506  0
C  C63  1  0.26139890  0.79948865  0.76078328  1  0  -0.28084  0  3.697832  0  0  -0.317131  0  3.967521  0  0  -0.32658  0  3.981082  0  0  -0.116014  -0.311171  0  3.958544  0
C  C64  1  0.62471488  0.13000735  0.23754049  1  0  0.055579  0  3.880438  0  0  0.058222  0  4.193107  0  0  0.067254  0  4.210928  0  0  0.007016  0.052359  0  4.180935  0
C  C65  1  0.37528816  0.86999403  0.76245732  1  0  0.055502  0  3.880606  0  0  0.058145  0  4.193308  0  0  0.067181  0  4.211121  0  0  0.006956  0.052284  0  4.18113  0
C  C66  1  0.58444031  0.40558454  0.38116491  1  0  -0.14936  0  3.60236  0  0  -0.248268  0  3.845234  0  0  -0.243629  0  3.852474  0  0  -0.136445  -0.251103  0  3.840486  0
C  C67  1  0.41556010  0.59441527  0.61883556  1  0  -0.149379  0  3.602526  0  0  -0.248282  0  3.845394  0  0  -0.243644  0  3.852639  0  0  -0.136401  -0.251106  0  3.840647  0
S  S68  1  0.34526621  0.20835384  0.02625761  1  0  0.238813  0  2.594893  0  0  0.204555  0  2.937988  0  0  0.205963  0  2.944507  0  0  0.210825  0.202768  0  2.93395  0
S  S69  1  0.65473223  0.79164676  0.97374257  1  0  0.238874  0  2.594815  0  0  0.204624  0  2.937914  0  0  0.206034  0  2.944433  0  0  0.210864  0.202837  0  2.933877  0
S  S70  1  0.81804724  0.81899810  0.27601415  1  0  0.219364  0  2.58132  0  0  0.192172  0  2.915306  0  0  0.193778  0  2.9197  0  0  0.200162  0.19021  0  2.912808  0
S  S71  1  0.18195098  0.18100170  0.72398362  1  0  0.219321  0  2.58123  0  0  0.19213  0  2.915218  0  0  0.193737  0  2.919611  0  0  0.200139  0.19017  0  2.912721  0
S  S72  1  0.35124610  0.82956198  0.40731300  1  0  0.223656  0  2.497877  0  0  0.19544  0  2.808743  0  0  0.197394  0  2.81268  0  0  0.206794  0.193252  0  2.806552  0
S  S73  1  0.64875453  0.17043862  0.59268842  1  0  0.223607  0  2.497926  0  0  0.195385  0  2.808779  0  0  0.197344  0  2.812714  0  0  0.206752  0.193194  0  2.806584  0
S  S74  1  0.51425554  0.18797812  0.30093116  1  0  0.228787  0  2.568529  0  0  0.196179  0  2.900699  0  0  0.19743  0  2.906945  0  0  0.210957  0.194545  0  2.896849  0
S  S75  1  0.48574619  0.81202247  0.69906688  1  0  0.228746  0  2.568597  0  0  0.196141  0  2.900778  0  0  0.19739  0  2.907026  0  0  0.210956  0.194509  0  2.896927  0
N  N76  1  0.29292519  0.32478470  0.06253983  1  0  -0.1977  0  3.379781  0  0  -0.101214  0  3.621533  0  0  -0.120859  0  3.642552  0  0  -0.25986  -0.088258  0  3.607207  0
N  N77  1  0.70707522  0.67521511  0.93746064  1  0  -0.197603  0  3.379682  0  0  -0.10111  0  3.621426  0  0  -0.12076  0  3.642448  0  0  -0.259807  -0.088154  0  3.607097  0
N  N78  1  0.82260328  0.69009216  0.23182603  1  0  -0.190849  0  3.381954  0  0  -0.09362  0  3.621673  0  0  -0.113353  0  3.643376  0  0  -0.259407  -0.080591  0  3.606887  0
N  N79  1  0.17739647  0.30990923  0.76817391  1  0  -0.190848  0  3.381871  0  0  -0.093633  0  3.6216  0  0  -0.113366  0  3.643301  0  0  -0.259388  -0.080604  0  3.606815  0
N  N80  1  0.28510503  0.69991684  0.38378544  1  0  -0.189468  0  3.37168  0  0  -0.09288  0  3.611815  0  0  -0.112771  0  3.633857  0  0  -0.255514  -0.079775  0  3.596813  0
N  N81  1  0.71489538  0.30008297  0.61621576  1  0  -0.189386  0  3.371735  0  0  -0.092798  0  3.611852  0  0  -0.112687  0  3.633892  0  0  -0.255468  -0.079694  0  3.596852  0
N  N82  1  0.61998257  0.30835319  0.32885430  1  0  -0.195333  0  3.384862  0  0  -0.099903  0  3.627287  0  0  -0.11957  0  3.648823  0  0  -0.258712  -0.08692  0  3.612591  0
N  N83  1  0.38001806  0.69164740  0.67114494  1  0  -0.195286  0  3.384867  0  0  -0.099878  0  3.627288  0  0  -0.119548  0  3.648827  0  0  -0.258731  -0.086892  0  3.612587  0
Cl  Cl84  1  0.20095988  0.01478316  0.04682378  1  0  0.000206  0  1.542075  0  0  0.014432  0  1.797996  0  0  0.012023  0  1.791695  0  0  0.038352  0.016225  0  1.802253  0
Cl  Cl85  1  0.79903944  0.98521665  0.95317716  1  0  0.000214  0  1.542095  0  0  0.01445  0  1.798028  0  0  0.01204  0  1.791727  0  0  0.038351  0.016243  0  1.802285  0
Cl  Cl86  1  0.01524581  0.98380375  0.24895761  1  0  0.003557  0  1.516331  0  0  0.016332  0  1.766831  0  0  0.014512  0  1.760114  0  0  0.03516  0.017689  0  1.771345  0
Cl  Cl87  1  0.98475176  0.01619762  0.75104036  1  0  0.003522  0  1.516361  0  0  0.016289  0  1.766875  0  0  0.014471  0  1.760157  0  0  0.03514  0.017646  0  1.77139  0
Cl  Cl88  1  0.23262986  0.99268625  0.52185385  1  0  -0.026642  0  1.473465  0  0  -0.016009  0  1.713585  0  0  -0.017727  0  1.707116  0  0  0.02614  -0.014634  0  1.718033  0
Cl  Cl89  1  0.76736990  0.00731513  0.47814463  1  0  -0.026633  0  1.473434  0  0  -0.016011  0  1.713554  0  0  -0.017729  0  1.707086  0  0  0.02614  -0.01464  0  1.717993  0
Cl  Cl90  1  0.58275767  0.99673542  0.18335278  1  0  -0.017446  0  1.506646  0  0  -0.010698  0  1.756096  0  0  -0.012153  0  1.74952  0  0  0.026966  -0.00954  0  1.760674  0
Cl  Cl91  1  0.41724429  0.00326595  0.81664186  1  0  -0.017386  0  1.506671  0  0  -0.01064  0  1.756127  0  0  -0.012096  0  1.749547  0  0  0.027002  -0.009482  0  1.760703  0
Cl  Cl92  1  0.31300565  0.70981572  0.03608217  1  0  1.387219  0  6.200564  0  0  1.331817  0  6.756776  0  0  1.384187  0  6.733291  0  0  0.717213  1.29577  0  6.771444  0
Cl  Cl93  1  0.68699585  0.29018410  0.96392001  1  0  1.387211  0  6.200737  0  0  1.331822  0  6.756905  0  0  1.384192  0  6.73342  0  0  0.717266  1.295775  0  6.771569  0
Cl  Cl94  1  0.20330649  0.29401727  0.41272277  1  0  1.384537  0  6.209579  0  0  1.32794  0  6.767937  0  0  1.38028  0  6.744572  0  0  0.715791  1.29188  0  6.782535  0
Cl  Cl95  1  0.79669218  0.70598017  0.58727530  1  0  1.384399  0  6.209507  0  0  1.327799  0  6.767869  0  0  1.380141  0  6.744504  0  0  0.715713  1.291742  0  6.782466  0
O  O96  1  0.12417097  0.39991834  0.12465740  1  0  -0.605649  0  2.167784  0  0  -0.53751  0  2.460446  0  0  -0.565341  0  2.447287  0  0  -0.31681  -0.517729  0  2.468629  0
O  O97  1  0.87583163  0.60008148  0.87534359  1  0  -0.605643  0  2.167781  0  0  -0.537518  0  2.460471  0  0  -0.565351  0  2.44731  0  0  -0.316847  -0.517739  0  2.468653  0
O  O98  1  0.94341159  0.57814416  0.14924315  1  0  -0.604878  0  2.144208  0  0  -0.541605  0  2.431723  0  0  -0.567979  0  2.418456  0  0  -0.318596  -0.522844  0  2.44012  0
O  O99  1  0.05658904  0.42185644  0.85075755  1  0  -0.604973  0  2.144246  0  0  -0.541678  0  2.431708  0  0  -0.568043  0  2.418421  0  0  -0.318612  -0.522917  0  2.44011  0
O  O100  1  0.10733603  0.58580374  0.40384298  1  0  -0.603639  0  2.122137  0  0  -0.543317  0  2.408399  0  0  -0.569773  0  2.395553  0  0  -0.316351  -0.524455  0  2.41649  0
O  O101  1  0.89266307  0.41419529  0.59615846  1  0  -0.603737  0  2.122098  0  0  -0.543437  0  2.408385  0  0  -0.569898  0  2.395547  0  0  -0.316401  -0.524574  0  2.41648  0
O  O102  1  0.82757969  0.39213398  0.31400753  1  0  -0.608195  0  2.16024  0  0  -0.540885  0  2.454177  0  0  -0.56907  0  2.441076  0  0  -0.31872  -0.520817  0  2.462299  0
O  O103  1  0.17241985  0.60786661  0.68599145  1  0  -0.608194  0  2.160258  0  0  -0.540887  0  2.454169  0  0  -0.569073  0  2.44107  0  0  -0.318711  -0.520818  0  2.462291  0
O  O104  1  0.22883479  0.65681206  0.08768756  1  0  -0.574591  0  1.93985  0  0  -0.541284  0  2.212084  0  0  -0.557742  0  2.195122  0  0  -0.316147  -0.529602  0  2.223253  0
O  O105  1  0.77116628  0.34318618  0.91231490  1  0  -0.574617  0  1.939943  0  0  -0.541302  0  2.212148  0  0  -0.557767  0  2.195214  0  0  -0.316194  -0.52962  0  2.223313  0
O  O106  1  0.30346551  0.63532248  0.93546470  1  0  -0.570285  0  1.916178  0  0  -0.541886  0  2.181956  0  0  -0.558358  0  2.166914  0  0  -0.315634  -0.530124  0  2.191631  0
O  O107  1  0.69653380  0.36467733  0.06453624  1  0  -0.570224  0  1.916247  0  0  -0.54185  0  2.182052  0  0  -0.558324  0  2.167019  0  0  -0.315617  -0.530089  0  2.191721  0
O  O108  1  0.46931870  0.74379337  0.10899015  1  0  -0.560544  0  1.879282  0  0  -0.539516  0  2.130038  0  0  -0.555885  0  2.11795  0  0  -0.331959  -0.527763  0  2.13778  0
O  O109  1  0.53068390  0.25620645  0.89101230  1  0  -0.560568  0  1.879258  0  0  -0.539543  0  2.130004  0  0  -0.555916  0  2.117922  0  0  -0.331992  -0.527792  0  2.137746  0
O  O110  1  0.24996254  0.80005667  0.01249723  1  0  -0.544002  0  1.874599  0  0  -0.517851  0  2.124814  0  0  -0.535113  0  2.11211  0  0  -0.325559  -0.505647  0  2.132986  0
O  O111  1  0.75003656  0.19994235  0.98750348  1  0  -0.543996  0  1.874631  0  0  -0.517846  0  2.124847  0  0  -0.535103  0  2.112141  0  0  -0.325563  -0.505643  0  2.133018  0
O  O112  1  0.15275388  0.34503658  0.49845334  1  0  -0.57382  0  1.927239  0  0  -0.541517  0  2.197425  0  0  -0.558059  0  2.180516  0  0  -0.31607  -0.529745  0  2.208589  0
O  O113  1  0.84723911  0.65496005  0.50154321  1  0  -0.573803  0  1.927199  0  0  -0.541507  0  2.197412  0  0  -0.558052  0  2.180503  0  0  -0.316026  -0.529723  0  2.208548  0
O  O114  1  0.23637731  0.37173386  0.35901135  1  0  -0.569281  0  1.92089  0  0  -0.537521  0  2.184295  0  0  -0.554423  0  2.169399  0  0  -0.313454  -0.525522  0  2.194017  0
O  O115  1  0.76362726  0.62826518  0.64099066  1  0  -0.56919  0  1.920908  0  0  -0.537434  0  2.18432  0  0  -0.554325  0  2.169397  0  0  -0.31341  -0.525431  0  2.194035  0
O  O116  1  0.33831364  0.25519598  0.46028422  1  0  -0.554683  0  1.865627  0  0  -0.53738  0  2.113413  0  0  -0.553143  0  2.100576  0  0  -0.331202  -0.52604  0  2.12165  0
O  O117  1  0.66168066  0.74479751  0.53971776  1  0  -0.554696  0  1.865622  0  0  -0.537397  0  2.113407  0  0  -0.553148  0  2.100554  0  0  -0.33121  -0.526062  0  2.121648  0
O  O118  1  0.08555814  0.20720327  0.33470649  1  0  -0.546593  0  1.900416  0  0  -0.517802  0  2.154248  0  0  -0.535498  0  2.14154  0  0  -0.318937  -0.505261  0  2.1624  0
O  O119  1  0.91444009  0.79279652  0.66528837  1  0  -0.546539  0  1.900367  0  0  -0.517733  0  2.154156  0  0  -0.53544  0  2.141451  0  0  -0.318936  -0.505193  0  2.16231  0
