# generated using pymatgen
data_Cd2H12C16SO13
_symmetry_space_group_name_H-M   'P 1'
_cell_length_a   7.32559159
_cell_length_b   10.83856290
_cell_length_c   13.59275932
_cell_angle_alpha   70.83387999
_cell_angle_beta   80.25874181
_cell_angle_gamma   68.60997766
_symmetry_Int_Tables_number   1
_chemical_formula_structural   Cd2H12C16SO13
_chemical_formula_sum   'Cd4 H24 C32 S2 O26'
_cell_volume   947.70683682
_cell_formula_units_Z   2
loop_
 _symmetry_equiv_pos_site_id
 _symmetry_equiv_pos_as_xyz
  1  'x, y, z'
loop_
 _atom_site_type_symbol
 _atom_site_label
 _atom_site_symmetry_multiplicity
 _atom_site_fract_x
 _atom_site_fract_y
 _atom_site_fract_z
 _atom_site_occupancy
 _atom_site_hle17_bader_spin_density
 _atom_site_hle17_ddec_charge
 _atom_site_hle17_ddec_spin_density
 _atom_site_hle17_ddec_sum_bond_order
 _atom_site_hle17_magmom
 _atom_site_hse06_10hf_bader_spin_density
 _atom_site_hse06_10hf_ddec_charge
 _atom_site_hse06_10hf_ddec_spin_density
 _atom_site_hse06_10hf_ddec_sum_bond_order
 _atom_site_hse06_10hf_magmom
 _atom_site_hse06_bader_spin_density
 _atom_site_hse06_ddec_charge
 _atom_site_hse06_ddec_spin_density
 _atom_site_hse06_ddec_sum_bond_order
 _atom_site_hse06_magmom
 _atom_site_pbe_bader_spin_density
 _atom_site_pbe_cm5_charge
 _atom_site_pbe_ddec_charge
 _atom_site_pbe_ddec_spin_density
 _atom_site_pbe_ddec_sum_bond_order
 _atom_site_pbe_magmom
Cd  Cd0  1  0.01195634  0.08543908  0.85712662  1  0  1.261011  0  1.544708  0  0  1.086497  0  1.989366  0  0  1.147212  0  1.925236  0  0  0.777547  1.042935  0  2.033848  0
Cd  Cd1  1  0.98804600  0.91455931  0.14287108  1  0  1.260938  0  1.544809  0  0  1.086433  0  1.98946  0  0  1.14715  0  1.925329  0  0  0.777502  1.042855  0  2.033928  0
Cd  Cd2  1  0.75284062  0.07614719  0.59659384  1  0  1.265849  0  1.478015  0  0  1.092068  0  1.904707  0  0  1.154281  0  1.846247  0  0  0.782196  1.047187  0  1.945193  0
Cd  Cd3  1  0.24715817  0.92385638  0.40340653  1  0  1.265836  0  1.478066  0  0  1.092051  0  1.904754  0  0  1.154264  0  1.846295  0  0  0.782196  1.04716  0  1.945254  0
H  H4  1  0.78597787  0.12565930  0.38379706  1  0  0.443256  0  0.817306  0  0  0.41865  0  0.880182  0  0  0.428299  0  0.869062  0  0  0.311447  0.411669  0  0.887814  0
H  H5  1  0.21402984  0.87433869  0.61620479  1  0  0.443264  0  0.817237  0  0  0.418637  0  0.880151  0  0  0.428286  0  0.86907  0  0  0.311424  0.411655  0  0.887777  0
H  H6  1  0.73803047  0.98580853  0.43487137  1  0  0.432052  0  0.87691  0  0  0.395451  0  0.948837  0  0  0.407905  0  0.931325  0  0  0.286325  0.386584  0  0.961281  0
H  H7  1  0.26196902  0.01419295  0.56513019  1  0  0.432049  0  0.87692  0  0  0.395457  0  0.948835  0  0  0.40791  0  0.931323  0  0  0.286311  0.386591  0  0.961276  0
H  H8  1  0.43562960  0.94031701  0.82782236  1  0  0.437481  0  0.86899  0  0  0.401386  0  0.938977  0  0  0.413673  0  0.921652  0  0  0.290541  0.392739  0  0.951132  0
H  H9  1  0.56437353  0.05968226  0.17217875  1  0  0.437417  0  0.86906  0  0  0.401318  0  0.939058  0  0  0.413604  0  0.921734  0  0  0.290501  0.392672  0  0.951212  0
H  H10  1  0.31715469  0.84647524  0.82193985  1  0  0.432213  0  0.823047  0  0  0.405208  0  0.890323  0  0  0.414469  0  0.880068  0  0  0.311905  0.398542  0  0.897736  0
H  H11  1  0.68285248  0.15351966  0.17806646  1  0  0.432175  0  0.823032  0  0  0.405158  0  0.890335  0  0  0.414422  0  0.880075  0  0  0.311859  0.398493  0  0.897749  0
H  H12  1  0.59749656  0.17760814  0.89995599  1  0  0.447031  0  0.791647  0  0  0.428937  0  0.842852  0  0  0.437683  0  0.833611  0  0  0.330404  0.422626  0  0.84963  0
H  H13  1  0.40250351  0.82239237  0.10004283  1  0  0.447044  0  0.791607  0  0  0.42895  0  0.842819  0  0  0.437697  0  0.833576  0  0  0.330392  0.422629  0  0.849603  0
H  H14  1  0.68259012  0.15390833  0.00779153  1  0  0.433671  0  0.867  0  0  0.39938  0  0.935676  0  0  0.410539  0  0.919694  0  0  0.289149  0.391443  0  0.94704  0
H  H15  1  0.31741067  0.84609417  0.99220601  1  0  0.433652  0  0.867022  0  0  0.399363  0  0.935693  0  0  0.410522  0  0.919713  0  0  0.289141  0.391422  0  0.94706  0
H  H16  1  0.68143146  0.41053387  0.91274686  1  0  0.116401  0  0.976047  0  0  0.122671  0  1.041502  0  0  0.126388  0  1.039185  0  0  0.105548  0.119976  0  1.043217  0
H  H17  1  0.31856581  0.58945867  0.08725630  1  0  0.116355  0  0.976145  0  0  0.122615  0  1.0416  0  0  0.126329  0  1.039287  0  0  0.105538  0.119918  0  1.043302  0
H  H18  1  0.73964615  0.39969016  0.09234037  1  0  0.102313  0  0.931359  0  0  0.112745  0  0.987662  0  0  0.116295  0  0.986221  0  0  0.106244  0.109994  0  0.98911  0
H  H19  1  0.26035877  0.60030393  0.90766335  1  0  0.102331  0  0.931353  0  0  0.112729  0  0.987697  0  0  0.116277  0  0.986261  0  0  0.106271  0.110013  0  0.989105  0
H  H20  1  0.80147450  0.59760400  0.11910467  1  0  0.106607  0  0.94606  0  0  0.118524  0  1.003416  0  0  0.121759  0  1.001004  0  0  0.110506  0.11605  0  1.00541  0
H  H21  1  0.19853205  0.40239413  0.88089354  1  0  0.106592  0  0.94602  0  0  0.118493  0  1.003401  0  0  0.121745  0  1.000969  0  0  0.110494  0.116031  0  1.005393  0
H  H22  1  0.31365818  0.59989763  0.45956763  1  0  0.12024  0  0.940614  0  0  0.129881  0  0.99999  0  0  0.133641  0  0.996958  0  0  0.112919  0.1272  0  1.002183  0
H  H23  1  0.68634035  0.40010405  0.54042733  1  0  0.120234  0  0.940604  0  0  0.129866  0  1.0  0  0  0.133624  0  0.996971  0  0  0.112949  0.127188  0  1.002189  0
H  H24  1  0.32826484  0.46243490  0.64651292  1  0  0.117126  0  0.925626  0  0  0.128534  0  0.979528  0  0  0.132035  0  0.97741  0  0  0.11265  0.125982  0  0.981349  0
H  H25  1  0.67173425  0.53756874  0.35348299  1  0  0.117101  0  0.925604  0  0  0.128492  0  0.979516  0  0  0.131993  0  0.977399  0  0  0.11263  0.125929  0  0.98134  0
H  H26  1  0.01880408  0.47713296  0.75693442  1  0  0.092552  0  0.968466  0  0  0.102628  0  1.032354  0  0  0.104809  0  1.03129  0  0  0.104993  0.101082  0  1.03314  0
H  H27  1  0.98120023  0.52287431  0.24306540  1  0  0.092541  0  0.968447  0  0  0.102639  0  1.032322  0  0  0.104824  0  1.031246  0  0  0.104962  0.101091  0  1.033093  0
C  C28  1  0.71458364  0.61103278  0.84305797  1  0  -0.140851  0  3.711991  0  0  -0.124563  0  3.965299  0  0  -0.131297  0  3.987642  0  0  -0.019332  -0.120211  0  3.950475  0
C  C29  1  0.28541841  0.38896960  0.15694173  1  0  -0.140764  0  3.711948  0  0  -0.124497  0  3.965241  0  0  -0.13123  0  3.987578  0  0  -0.019316  -0.120143  0  3.950401  0
C  C30  1  0.71235202  0.49444134  0.92648830  1  0  -0.060141  0  3.727678  0  0  -0.086456  0  3.981201  0  0  -0.085295  0  4.001062  0  0  -0.078956  -0.086932  0  3.967627  0
C  C31  1  0.28764833  0.50555811  0.07351223  1  0  -0.060133  0  3.727772  0  0  -0.086424  0  3.98126  0  0  -0.085264  0  4.001125  0  0  -0.078962  -0.086892  0  3.967674  0
C  C32  1  0.74342809  0.48926102  0.02644289  1  0  -0.046001  0  3.730989  0  0  -0.05923  0  3.98986  0  0  -0.063329  0  4.010705  0  0  -0.081858  -0.05646  0  3.975775  0
C  C33  1  0.25657268  0.51073741  0.97355712  1  0  -0.045986  0  3.731055  0  0  -0.059205  0  3.989915  0  0  -0.063304  0  4.010765  0  0  -0.081867  -0.05646  0  3.975835  0
C  C34  1  0.77970239  0.59876450  0.04155967  1  0  -0.042769  0  3.705035  0  0  -0.073535  0  3.961915  0  0  -0.07074  0  3.979719  0  0  -0.071338  -0.075183  0  3.94992  0
C  C35  1  0.22030232  0.40123880  0.95843667  1  0  -0.042832  0  3.705091  0  0  -0.07357  0  3.961951  0  0  -0.07079  0  3.979749  0  0  -0.071366  -0.075233  0  3.950009  0
C  C36  1  0.79385733  0.71196957  0.95705938  1  0  -0.080338  0  3.709873  0  0  -0.063375  0  3.945987  0  0  -0.071574  0  3.967031  0  0  -0.012035  -0.058211  0  3.931999  0
C  C37  1  0.20614734  0.28803372  0.04293771  1  0  -0.080149  0  3.709696  0  0  -0.063238  0  3.945838  0  0  -0.071438  0  3.966893  0  0  -0.012044  -0.058078  0  3.931859  0
C  C38  1  0.75796445  0.72099176  0.85602468  1  0  -0.042388  0  3.676956  0  0  -0.037007  0  3.911672  0  0  -0.036634  0  3.928803  0  0  0.002163  -0.037307  0  3.900408  0
C  C39  1  0.24203443  0.27900776  0.14397667  1  0  -0.042407  0  3.676664  0  0  -0.03704  0  3.911361  0  0  -0.036669  0  3.928493  0  0  0.00222  -0.037339  0  3.900095  0
C  C40  1  0.83379297  0.61924620  0.63197346  1  0  -0.110994  0  3.697158  0  0  -0.09585  0  3.950412  0  0  -0.102036  0  3.972093  0  0  -0.01341  -0.0919  0  3.936015  0
C  C41  1  0.16620826  0.38075416  0.36802899  1  0  -0.11097  0  3.696975  0  0  -0.095964  0  3.950401  0  0  -0.102159  0  3.97211  0  0  -0.013448  -0.092008  0  3.935986  0
C  C42  1  0.82054455  0.69455284  0.52598627  1  0  -0.035041  0  3.662407  0  0  -0.028748  0  3.894466  0  0  -0.029392  0  3.913231  0  0  0.005807  -0.028409  0  3.882  0
C  C43  1  0.17945200  0.30544878  0.47401693  1  0  -0.035113  0  3.662386  0  0  -0.028771  0  3.894477  0  0  -0.029416  0  3.913242  0  0  0.005824  -0.028434  0  3.882025  0
C  C44  1  0.99826421  0.68789725  0.46507132  1  0  -0.084922  0  3.722661  0  0  -0.065939  0  3.955993  0  0  -0.074947  0  3.979343  0  0  -0.010802  -0.060067  0  3.940482  0
C  C45  1  0.00172905  0.31210668  0.53492714  1  0  -0.084962  0  3.72285  0  0  -0.065983  0  3.956156  0  0  -0.074989  0  3.979504  0  0  -0.010913  -0.060117  0  3.940657  0
C  C46  1  0.17917705  0.60513024  0.50872047  1  0  -0.047707  0  3.686173  0  0  -0.077184  0  3.945186  0  0  -0.074782  0  3.961967  0  0  -0.072014  -0.078746  0  3.934197  0
C  C47  1  0.82082766  0.39486899  0.49127834  1  0  -0.047635  0  3.686331  0  0  -0.07714  0  3.945374  0  0  -0.074738  0  3.962153  0  0  -0.072  -0.078709  0  3.934391  0
C  C48  1  0.18768842  0.52797132  0.61323572  1  0  -0.019332  0  3.679527  0  0  -0.039273  0  3.943715  0  0  -0.040389  0  3.959458  0  0  -0.073578  -0.038864  0  3.933546  0
C  C49  1  0.81230980  0.47203028  0.38676370  1  0  -0.019298  0  3.6794  0  0  -0.039183  0  3.943552  0  0  -0.040293  0  3.959281  0  0  -0.073511  -0.038765  0  3.933371  0
C  C50  1  0.01445442  0.53601691  0.67485087  1  0  -0.040142  0  3.734584  0  0  -0.072274  0  3.997361  0  0  -0.069799  0  4.015011  0  0  -0.075575  -0.073648  0  3.985319  0
C  C51  1  0.98554787  0.46398848  0.32514882  1  0  -0.040127  0  3.734523  0  0  -0.072269  0  3.997329  0  0  -0.069793  0  4.014982  0  0  -0.075578  -0.073637  0  3.985256  0
C  C52  1  0.85859940  0.81919875  0.97553574  1  0  0.664162  0  3.931798  0  0  0.609387  0  4.230821  0  0  0.645426  0  4.223718  0  0  0.208061  0.58486  0  4.234703  0
C  C53  1  0.14140400  0.18079358  0.02446041  1  0  0.663796  0  3.931737  0  0  0.609086  0  4.230692  0  0  0.645124  0  4.223596  0  0  0.207855  0.584563  0  4.234566  0
C  C54  1  0.75574343  0.85041354  0.76812727  1  0  0.651522  0  3.926379  0  0  0.592211  0  4.234737  0  0  0.627232  0  4.226828  0  0  0.200015  0.568355  0  4.239227  0
C  C55  1  0.24425106  0.14957917  0.23187530  1  0  0.651499  0  3.926297  0  0  0.592296  0  4.234484  0  0  0.627319  0  4.226572  0  0  0.200092  0.568439  0  4.238983  0
C  C56  1  0.62721603  0.78225890  0.47725550  1  0  0.656827  0  3.918056  0  0  0.59859  0  4.22323  0  0  0.633715  0  4.215688  0  0  0.204006  0.574726  0  4.227445  0
C  C57  1  0.37278219  0.21774271  0.52274392  1  0  0.656906  0  3.918178  0  0  0.598652  0  4.223369  0  0  0.63378  0  4.215821  0  0  0.204004  0.574768  0  4.227612  0
C  C58  1  0.99974323  0.76548049  0.35165489  1  0  0.654646  0  3.895408  0  0  0.600836  0  4.186183  0  0  0.636513  0  4.180886  0  0  0.20648  0.576592  0  4.188926  0
C  C59  1  0.00025761  0.23452202  0.64834191  1  0  0.654688  0  3.895578  0  0  0.600913  0  4.186302  0  0  0.636589  0  4.181  0  0  0.20654  0.576677  0  4.189043  0
S  S60  1  0.62666263  0.62249020  0.72333705  1  0  1.074974  0  5.168998  0  0  1.002193  0  5.662082  0  0  1.041243  0  5.650993  0  0  0.481961  0.974659  0  5.670163  0
S  S61  1  0.37334468  0.37749478  0.27666283  1  0  1.074842  0  5.169258  0  0  1.002155  0  5.662275  0  0  1.041201  0  5.651185  0  0  0.481944  0.974622  0  5.670351  0
O  O62  1  0.62285381  0.96439101  0.77389458  1  0  -0.631046  0  1.999161  0  0  -0.566816  0  2.226515  0  0  -0.595363  0  2.214933  0  0  -0.315935  -0.546769  0  2.23384  0
O  O63  1  0.37715636  0.03560602  0.22609776  1  0  -0.631027  0  1.999042  0  0  -0.566856  0  2.226382  0  0  -0.595403  0  2.214798  0  0  -0.315994  -0.546809  0  2.23371  0
O  O64  1  0.87977384  0.84223391  0.69171225  1  0  -0.604161  0  1.975569  0  0  -0.542199  0  2.214586  0  0  -0.572739  0  2.208171  0  0  -0.30895  -0.520437  0  2.218177  0
O  O65  1  0.12021947  0.15776596  0.30828793  1  0  -0.604166  0  1.9757  0  0  -0.542207  0  2.214609  0  0  -0.572746  0  2.208191  0  0  -0.30897  -0.520452  0  2.218211  0
O  O66  1  0.95278951  0.88042832  0.90028492  1  0  -0.659079  0  2.074359  0  0  -0.592044  0  2.33443  0  0  -0.622762  0  2.322965  0  0  -0.32382  -0.57017  0  2.341379  0
O  O67  1  0.04720447  0.11956834  0.09972261  1  0  -0.658875  0  2.074115  0  0  -0.591877  0  2.334167  0  0  -0.622599  0  2.322707  0  0  -0.323657  -0.569994  0  2.341101  0
O  O68  1  0.81973536  0.83542729  0.06614945  1  0  -0.646521  0  2.011035  0  0  -0.579803  0  2.259492  0  0  -0.609119  0  2.246286  0  0  -0.328083  -0.559249  0  2.267988  0
O  O69  1  0.18027587  0.16456550  0.93385046  1  0  -0.646444  0  2.011189  0  0  -0.579743  0  2.259626  0  0  -0.609055  0  2.24642  0  0  -0.328042  -0.559195  0  2.268124  0
O  O70  1  0.59474109  0.91103776  0.43461369  1  0  -0.622194  0  2.041903  0  0  -0.558125  0  2.275043  0  0  -0.586726  0  2.26575  0  0  -0.305525  -0.537985  0  2.280778  0
O  O71  1  0.40525544  0.08896498  0.56538409  1  0  -0.622183  0  2.041992  0  0  -0.558113  0  2.275139  0  0  -0.586716  0  2.265847  0  0  -0.305486  -0.53796  0  2.280875  0
O  O72  1  0.50314021  0.72374543  0.48107242  1  0  -0.633018  0  1.978852  0  0  -0.57321  0  2.22749  0  0  -0.604746  0  2.219492  0  0  -0.312537  -0.550839  0  2.232166  0
O  O73  1  0.49685835  0.27625513  0.51892796  1  0  -0.633069  0  1.978883  0  0  -0.573261  0  2.227539  0  0  -0.604796  0  2.219538  0  0  -0.312565  -0.550883  0  2.232225  0
O  O74  1  0.88366621  0.76651708  0.29266303  1  0  -0.580412  0  1.968498  0  0  -0.515589  0  2.19729  0  0  -0.545374  0  2.189679  0  0  -0.296239  -0.494756  0  2.201887  0
O  O75  1  0.11633278  0.23347546  0.70733559  1  0  -0.580477  0  1.968533  0  0  -0.515683  0  2.197357  0  0  -0.545465  0  2.18974  0  0  -0.296304  -0.494849  0  2.201962  0
O  O76  1  0.12600978  0.83015160  0.31434797  1  0  -0.695279  0  2.047206  0  0  -0.612918  0  2.311503  0  0  -0.647894  0  2.29695  0  0  -0.333054  -0.588248  0  2.320724  0
O  O77  1  0.87398545  0.16986122  0.68565261  1  0  -0.695311  0  2.047295  0  0  -0.612959  0  2.311573  0  0  -0.647932  0  2.297014  0  0  -0.333039  -0.588287  0  2.320793  0
O  O78  1  0.47087116  0.75712929  0.69660813  1  0  -0.601204  0  1.972673  0  0  -0.54634  0  2.21047  0  0  -0.56606  0  2.198607  0  0  -0.307138  -0.532387  0  2.218386  0
O  O79  1  0.52911967  0.24287265  0.30339613  1  0  -0.601085  0  1.973291  0  0  -0.5462  0  2.211034  0  0  -0.565921  0  2.199192  0  0  -0.307051  -0.532232  0  2.218917  0
O  O80  1  0.57818632  0.49871166  0.73943905  1  0  -0.554105  0  1.914549  0  0  -0.510494  0  2.14968  0  0  -0.531106  0  2.141017  0  0  -0.301821  -0.495845  0  2.15524  0
O  O81  1  0.42181081  0.50128898  0.26056141  1  0  -0.554139  0  1.914188  0  0  -0.510574  0  2.149304  0  0  -0.531179  0  2.140629  0  0  -0.301884  -0.495929  0  2.154857  0
O  O82  1  0.83176358  0.03601788  0.43673200  1  0  -0.853911  0  1.892657  0  0  -0.782838  0  2.11134  0  0  -0.810225  0  2.079978  0  0  -0.571986  -0.763381  0  2.132873  0
O  O83  1  0.16823608  0.96398252  0.56327276  1  0  -0.853937  0  1.892571  0  0  -0.782825  0  2.111226  0  0  -0.810212  0  2.079907  0  0  -0.57197  -0.763366  0  2.132752  0
O  O84  1  0.31776387  0.90751000  0.86126023  1  0  -0.848046  0  1.939612  0  0  -0.775625  0  2.145791  0  0  -0.80152  0  2.116141  0  0  -0.562053  -0.757195  0  2.16637  0
O  O85  1  0.68223959  0.09248822  0.13874185  1  0  -0.847925  0  1.939536  0  0  -0.775504  0  2.145711  0  0  -0.801399  0  2.116064  0  0  -0.561957  -0.757081  0  2.16629  0
O  O86  1  0.70242158  0.18656944  0.92978575  1  0  -0.830299  0  1.850186  0  0  -0.766287  0  2.046782  0  0  -0.789218  0  2.015524  0  0  -0.56478  -0.749939  0  2.068653  0
O  O87  1  0.29757844  0.81343105  0.07021382  1  0  -0.83028  0  1.850166  0  0  -0.766273  0  2.046759  0  0  -0.789205  0  2.015502  0  0  -0.564773  -0.749925  0  2.068627  0
