# generated using pymatgen
data_SmH13(C9O7)2
_symmetry_space_group_name_H-M   'P 1'
_cell_length_a   9.30204325
_cell_length_b   10.48489794
_cell_length_c   11.11223507
_cell_angle_alpha   78.93343113
_cell_angle_beta   71.24377896
_cell_angle_gamma   93.55655343
_symmetry_Int_Tables_number   1
_chemical_formula_structural   SmH13(C9O7)2
_chemical_formula_sum   'Sm2 H26 C36 O28'
_cell_volume   998.17934417
_cell_formula_units_Z   2
loop_
 _symmetry_equiv_pos_site_id
 _symmetry_equiv_pos_as_xyz
  1  'x, y, z'
loop_
 _atom_site_type_symbol
 _atom_site_label
 _atom_site_symmetry_multiplicity
 _atom_site_fract_x
 _atom_site_fract_y
 _atom_site_fract_z
 _atom_site_occupancy
 _atom_site_hle17_bader_spin_density
 _atom_site_hle17_ddec_charge
 _atom_site_hle17_ddec_spin_density
 _atom_site_hle17_ddec_sum_bond_order
 _atom_site_hle17_magmom
 _atom_site_hse06_10hf_bader_spin_density
 _atom_site_hse06_10hf_ddec_charge
 _atom_site_hse06_10hf_ddec_spin_density
 _atom_site_hse06_10hf_ddec_sum_bond_order
 _atom_site_hse06_10hf_magmom
 _atom_site_hse06_bader_spin_density
 _atom_site_hse06_ddec_charge
 _atom_site_hse06_ddec_spin_density
 _atom_site_hse06_ddec_sum_bond_order
 _atom_site_hse06_magmom
 _atom_site_pbe_bader_spin_density
 _atom_site_pbe_cm5_charge
 _atom_site_pbe_ddec_charge
 _atom_site_pbe_ddec_spin_density
 _atom_site_pbe_ddec_sum_bond_order
 _atom_site_pbe_magmom
Sm  Sm0  1  0.76831777  0.03027352  0.50035123  1  0  2.348787  0  1.520504  0  0  2.257647  0  1.85863  0  0  2.300014  0  1.817859  0  0  1.472246  2.227012  0  1.887723  0
Sm  Sm1  1  0.23168806  0.96972594  0.49964379  1  0  2.348877  0  1.520673  0  0  2.257768  0  1.858801  0  0  2.30013  0  1.81803  0  0  1.472297  2.227133  0  1.887891  0
H  H2  1  0.01299943  0.62726429  0.31969223  1  0  0.109818  0  0.922615  0  0  0.122997  0  0.974302  0  0  0.127271  0  0.971063  0  0  0.112734  0.119429  0  0.977383  0
H  H3  1  0.98699800  0.37273108  0.68029944  1  0  0.109837  0  0.922649  0  0  0.123015  0  0.974344  0  0  0.127288  0  0.971106  0  0  0.112764  0.119446  0  0.977425  0
H  H4  1  0.93887006  0.53312836  0.15836068  1  0  0.128281  0  0.980059  0  0  0.134705  0  1.039144  0  0  0.139684  0  1.036146  0  0  0.112295  0.130629  0  1.041909  0
H  H5  1  0.06113180  0.46686608  0.84163716  1  0  0.128391  0  0.980084  0  0  0.134783  0  1.039198  0  0  0.139762  0  1.036201  0  0  0.112322  0.130707  0  1.041966  0
H  H6  1  0.67073895  0.34301787  0.17223781  1  0  0.134568  0  0.918952  0  0  0.143255  0  0.975975  0  0  0.147746  0  0.972399  0  0  0.120944  0.139734  0  0.97921  0
H  H7  1  0.32925193  0.65698007  0.82776509  1  0  0.13455  0  0.918942  0  0  0.143253  0  0.975977  0  0  0.147748  0  0.972396  0  0  0.120917  0.13973  0  0.979212  0
H  H8  1  0.36195251  0.54129144  0.02968777  1  0  0.135351  0  0.970286  0  0  0.14073  0  1.033931  0  0  0.145207  0  1.031063  0  0  0.115494  0.137782  0  1.035223  0
H  H9  1  0.63804223  0.45872104  0.97032783  1  0  0.135357  0  0.970262  0  0  0.140794  0  1.033858  0  0  0.145272  0  1.030984  0  0  0.115475  0.137846  0  1.035156  0
H  H10  1  0.29261495  0.74077276  0.29465313  1  0  0.396407  0  0.901039  0  0  0.366126  0  0.980761  0  0  0.376633  0  0.970078  0  0  0.306185  0.358602  0  0.988485  0
H  H11  1  0.70737384  0.25922697  0.70535722  1  0  0.396607  0  0.900848  0  0  0.366173  0  0.980812  0  0  0.376679  0  0.970129  0  0  0.306249  0.358649  0  0.988535  0
H  H12  1  0.74042543  0.74261906  0.41416885  1  0  0.441386  0  0.800117  0  0  0.42695  0  0.847454  0  0  0.433591  0  0.840374  0  0  0.336673  0.422055  0  0.852822  0
H  H13  1  0.25956774  0.25737895  0.58583341  1  0  0.441366  0  0.800158  0  0  0.426928  0  0.847496  0  0  0.433568  0  0.840419  0  0  0.336634  0.422031  0  0.852869  0
H  H14  1  0.68190728  0.84874881  0.32879246  1  0  0.450189  0  0.829172  0  0  0.418808  0  0.899239  0  0  0.427721  0  0.88616  0  0  0.321789  0.412583  0  0.908375  0
H  H15  1  0.31809148  0.15124845  0.67120573  1  0  0.450159  0  0.82924  0  0  0.418777  0  0.899295  0  0  0.42769  0  0.886216  0  0  0.321771  0.412549  0  0.908436  0
H  H16  1  0.67668779  0.75785105  0.70918859  1  0  0.455343  0  0.786508  0  0  0.43844  0  0.837793  0  0  0.445852  0  0.829701  0  0  0.338983  0.433023  0  0.843897  0
H  H17  1  0.32330528  0.24214603  0.29081026  1  0  0.455378  0  0.786498  0  0  0.438473  0  0.837783  0  0  0.445885  0  0.829691  0  0  0.338983  0.433054  0  0.843886  0
H  H18  1  0.79030535  0.84137917  0.75049748  1  0  0.462051  0  0.827941  0  0  0.427779  0  0.896209  0  0  0.438009  0  0.881141  0  0  0.320882  0.420505  0  0.90694  0
H  H19  1  0.20969331  0.15861712  0.24950000  1  0  0.462006  0  0.827983  0  0  0.427745  0  0.89624  0  0  0.437976  0  0.881172  0  0  0.320899  0.420471  0  0.906973  0
H  H20  1  0.93770878  0.28170426  0.30654908  1  0  0.445536  0  0.856098  0  0  0.412126  0  0.923208  0  0  0.424683  0  0.90509  0  0  0.291048  0.403171  0  0.93604  0
H  H21  1  0.06229433  0.71829119  0.69344825  1  0  0.445489  0  0.856143  0  0  0.41211  0  0.923211  0  0  0.424661  0  0.9051  0  0  0.290987  0.40317  0  0.936025  0
H  H22  1  0.04630918  0.22773498  0.38401212  1  0  0.424133  0  0.87595  0  0  0.399131  0  0.930491  0  0  0.409396  0  0.915133  0  0  0.297994  0.391677  0  0.94173  0
H  H23  1  0.95369012  0.77226715  0.61598780  1  0  0.424155  0  0.875909  0  0  0.399156  0  0.93045  0  0  0.409419  0  0.915095  0  0  0.298004  0.391703  0  0.941688  0
H  H24  1  0.51724266  0.20997670  0.51074005  1  0  0.435199  0  0.86268  0  0  0.407587  0  0.920746  0  0  0.417926  0  0.905432  0  0  0.301654  0.400269  0  0.931605  0
H  H25  1  0.48275453  0.79002716  0.48927094  1  0  0.435205  0  0.862669  0  0  0.40759  0  0.920744  0  0  0.417928  0  0.905431  0  0  0.301622  0.400272  0  0.931602  0
H  H26  1  0.64720391  0.28948054  0.53749052  1  0  0.436838  0  0.848714  0  0  0.413016  0  0.899099  0  0  0.422967  0  0.884279  0  0  0.310533  0.405889  0  0.909763  0
H  H27  1  0.35279097  0.71051259  0.46251661  1  0  0.436698  0  0.848896  0  0  0.412869  0  0.899293  0  0  0.422817  0  0.884479  0  0  0.310429  0.405742  0  0.909956  0
C  C28  1  0.08580086  0.88608133  0.31333070  1  0  0.729364  0  3.84399  0  0  0.672773  0  4.151749  0  0  0.709896  0  4.136322  0  0  0.231117  0.646964  0  4.162144  0
C  C29  1  0.91419368  0.11391875  0.68666635  1  0  0.729466  0  3.843835  0  0  0.672847  0  4.151627  0  0  0.70997  0  4.136202  0  0  0.231228  0.647034  0  4.162018  0
C  C30  1  0.03155304  0.82935059  0.21871136  1  0  -0.074295  0  3.723066  0  0  -0.063324  0  3.970286  0  0  -0.067657  0  3.989393  0  0  -0.006054  -0.060143  0  3.957289  0
C  C31  1  0.96844563  0.17064575  0.78128342  1  0  -0.07434  0  3.72282  0  0  -0.063321  0  3.970085  0  0  -0.067659  0  3.989191  0  0  -0.006062  -0.060129  0  3.957067  0
C  C32  1  0.99966574  0.69312945  0.23611549  1  0  -0.078946  0  3.710557  0  0  -0.103623  0  3.968721  0  0  -0.102588  0  3.984261  0  0  -0.077569  -0.103967  0  3.958091  0
C  C33  1  0.00034947  0.30687243  0.76386491  1  0  -0.078951  0  3.710226  0  0  -0.10364  0  3.968392  0  0  -0.102598  0  3.983925  0  0  -0.077621  -0.103986  0  3.957762  0
C  C34  1  0.95661696  0.63970275  0.14488582  1  0  -0.043368  0  3.632112  0  0  -0.068009  0  3.884373  0  0  -0.06892  0  3.899335  0  0  -0.064528  -0.067362  0  3.874627  0
C  C35  1  0.04340620  0.36029929  0.85510051  1  0  -0.043477  0  3.632078  0  0  -0.068073  0  3.884319  0  0  -0.069  0  3.899287  0  0  -0.064507  -0.067425  0  3.874571  0
C  C36  1  0.94227685  0.72045014  0.03410222  1  0  0.01018  0  3.597726  0  0  0.020149  0  3.83985  0  0  0.021303  0  3.854408  0  0  0.024594  0.018996  0  3.830763  0
C  C37  1  0.05774892  0.27955492  0.96588201  1  0  0.010289  0  3.597731  0  0  0.020258  0  3.839891  0  0  0.021432  0  3.854441  0  0  0.024656  0.0191  0  3.830809  0
C  C38  1  0.96585376  0.85731963  0.02020738  1  0  -0.057958  0  3.721281  0  0  -0.060431  0  3.967106  0  0  -0.065231  0  3.986955  0  0  -0.006055  -0.057441  0  3.954574  0
C  C39  1  0.03417830  0.14268075  0.97977775  1  0  -0.05781  0  3.720688  0  0  -0.060273  0  3.966651  0  0  -0.065084  0  3.986505  0  0  -0.006046  -0.057315  0  3.954094  0
C  C40  1  0.01527325  0.91109320  0.10950609  1  0  -0.053434  0  3.74384  0  0  -0.055907  0  3.989578  0  0  -0.060438  0  4.011471  0  0  -0.005874  -0.052838  0  3.974835  0
C  C41  1  0.98474214  0.08891053  0.89048205  1  0  -0.053526  0  3.743317  0  0  -0.056156  0  3.989259  0  0  -0.060679  0  4.011141  0  0  -0.005987  -0.053061  0  3.974547  0
C  C42  1  0.91986538  0.66352103  0.92438919  1  0  0.646696  0  3.969323  0  0  0.589645  0  4.285551  0  0  0.623986  0  4.276717  0  0  0.200621  0.565598  0  4.290617  0
C  C43  1  0.08014439  0.33647283  0.07559672  1  0  0.646494  0  3.96963  0  0  0.589413  0  4.285906  0  0  0.623742  0  4.277083  0  0  0.200496  0.565367  0  4.290968  0
C  C44  1  0.06202913  0.05293252  0.08588850  1  0  0.415648  0  3.72089  0  0  0.387848  0  3.989973  0  0  0.413712  0  3.987978  0  0  0.168727  0.36903  0  3.992439  0
C  C45  1  0.93798418  0.94706245  0.91409448  1  0  0.415718  0  3.721009  0  0  0.388027  0  3.989956  0  0  0.413891  0  3.987951  0  0  0.168799  0.369104  0  3.992579  0
C  C46  1  0.61368736  0.08550345  0.27919550  1  0  0.734635  0  3.877228  0  0  0.684643  0  4.176397  0  0  0.721267  0  4.161349  0  0  0.235452  0.659618  0  4.186058  0
C  C47  1  0.38632392  0.91449410  0.72080829  1  0  0.734624  0  3.877564  0  0  0.684464  0  4.176945  0  0  0.721081  0  4.161915  0  0  0.235325  0.659437  0  4.1866  0
C  C48  1  0.60443036  0.15019110  0.15016759  1  0  -0.04155  0  3.689957  0  0  -0.030731  0  3.931579  0  0  -0.034284  0  3.950172  0  0  0.008985  -0.028963  0  3.920343  0
C  C49  1  0.39554932  0.84980838  0.84984074  1  0  -0.041745  0  3.689921  0  0  -0.030783  0  3.931491  0  0  -0.034333  0  3.950084  0  0  0.00903  -0.029015  0  3.920253  0
C  C50  1  0.63126080  0.28700431  0.11328865  1  0  -0.036978  0  3.6343  0  0  -0.065456  0  3.892089  0  0  -0.064844  0  3.906937  0  0  -0.058074  -0.066461  0  3.884004  0
C  C51  1  0.36871032  0.71298988  0.88673188  1  0  -0.036772  0  3.634215  0  0  -0.065343  0  3.892036  0  0  -0.06473  0  3.906881  0  0  -0.057971  -0.066347  0  3.88395  0
C  C52  1  0.55588052  0.07744715  0.07337424  1  0  -0.059848  0  3.712212  0  0  -0.063138  0  3.95952  0  0  -0.068967  0  3.983042  0  0  -0.007221  -0.060854  0  3.944746  0
C  C53  1  0.44411326  0.92255663  0.92663498  1  0  -0.0598  0  3.71195  0  0  -0.063097  0  3.959156  0  0  -0.068928  0  3.982677  0  0  -0.00722  -0.060814  0  3.944392  0
C  C54  1  0.54013535  0.93246373  0.10951317  1  0  0.405328  0  3.72263  0  0  0.381234  0  3.993241  0  0  0.404965  0  3.994067  0  0  0.163813  0.365029  0  3.992563  0
C  C55  1  0.45986395  0.06753840  0.89048675  1  0  0.405112  0  3.722719  0  0  0.381036  0  3.99337  0  0  0.404764  0  3.994205  0  0  0.163726  0.364819  0  3.992707  0
C  C56  1  0.47093945  0.85600239  0.03919887  1  0  -0.047849  0  3.720255  0  0  -0.052004  0  3.967809  0  0  -0.05567  0  3.98961  0  0  -0.006103  -0.048834  0  3.951949  0
C  C57  1  0.52905879  0.14400056  0.96080930  1  0  -0.047739  0  3.720036  0  0  -0.052007  0  3.967705  0  0  -0.055677  0  3.989515  0  0  -0.006126  -0.048832  0  3.951841  0
C  C58  1  0.43997588  0.71802688  0.07771247  1  0  -0.051718  0  3.667917  0  0  -0.040406  0  3.908597  0  0  -0.044588  0  3.927908  0  0  0.010142  -0.03636  0  3.894275  0
C  C59  1  0.56002298  0.28198184  0.92230265  1  0  -0.052019  0  3.667428  0  0  -0.040536  0  3.908148  0  0  -0.044716  0  3.927462  0  0  0.010102  -0.036488  0  3.893818  0
C  C60  1  0.38967292  0.64780876  0.00035722  1  0  -0.03045  0  3.629041  0  0  -0.056039  0  3.881795  0  0  -0.055831  0  3.898668  0  0  -0.056949  -0.05616  0  3.869965  0
C  C61  1  0.61031631  0.35220546  0.99966225  1  0  -0.030236  0  3.628552  0  0  -0.05591  0  3.881191  0  0  -0.055698  0  3.898056  0  0  -0.056816  -0.056042  0  3.869393  0
C  C62  1  0.44423176  0.63670931  0.20411797  1  0  0.665606  0  3.794415  0  0  0.611874  0  4.106994  0  0  0.644735  0  4.095466  0  0  0.233806  0.589012  0  4.114892  0
C  C63  1  0.55575740  0.36330406  0.79589267  1  0  0.66581  0  3.794356  0  0  0.611823  0  4.107319  0  0  0.644674  0  4.0958  0  0  0.233657  0.588951  0  4.115235  0
O  O64  1  0.99679650  0.93581518  0.40059741  1  0  -0.80144  0  2.121284  0  0  -0.7603  0  2.389611  0  0  -0.784568  0  2.377037  0  0  -0.403873  -0.743362  0  2.398334  0
O  O65  1  0.00320928  0.06417355  0.59939854  1  0  -0.801441  0  2.120889  0  0  -0.760331  0  2.389278  0  0  -0.7846  0  2.376709  0  0  -0.403948  -0.743391  0  2.397997  0
O  O66  1  0.22195452  0.87332610  0.31269212  1  0  -0.711933  0  2.081703  0  0  -0.664521  0  2.332705  0  0  -0.690009  0  2.322913  0  0  -0.358367  -0.646591  0  2.339483  0
O  O67  1  0.77804864  0.12668012  0.68730157  1  0  -0.712123  0  2.081922  0  0  -0.66456  0  2.332838  0  0  -0.690045  0  2.323051  0  0  -0.358427  -0.646635  0  2.339621  0
O  O68  1  0.04823915  0.65959080  0.83707928  1  0  -0.641568  0  1.971506  0  0  -0.582426  0  2.1914  0  0  -0.612881  0  2.183363  0  0  -0.315793  -0.55744  0  2.195416  0
O  O69  1  0.95177550  0.34040613  0.16290571  1  0  -0.641503  0  1.971418  0  0  -0.58232  0  2.191293  0  0  -0.612779  0  2.183262  0  0  -0.315795  -0.557324  0  2.195306  0
O  O70  1  0.78860356  0.62789566  0.92627194  1  0  -0.605932  0  1.921138  0  0  -0.567199  0  2.148721  0  0  -0.59554  0  2.142918  0  0  -0.324732  -0.545679  0  2.151077  0
O  O71  1  0.21139092  0.37209369  0.07372605  1  0  -0.605833  0  1.921298  0  0  -0.567061  0  2.148876  0  0  -0.595405  0  2.143084  0  0  -0.324629  -0.545543  0  2.151236  0
O  O72  1  0.13387274  0.09184354  0.15202275  1  0  -0.468754  0  2.062453  0  0  -0.407642  0  2.277044  0  0  -0.426755  0  2.273013  0  0  -0.225748  -0.394692  0  2.280127  0
O  O73  1  0.86613619  0.90815311  0.84797102  1  0  -0.468746  0  2.062806  0  0  -0.407631  0  2.277294  0  0  -0.426743  0  2.273259  0  0  -0.225716  -0.394653  0  2.280439  0
O  O74  1  0.74383724  0.07695311  0.29088264  1  0  -0.695801  0  2.026195  0  0  -0.657482  0  2.281505  0  0  -0.682941  0  2.270825  0  0  -0.3879  -0.639538  0  2.28849  0
O  O75  1  0.25614544  0.92305257  0.70910584  1  0  -0.696031  0  2.025588  0  0  -0.657668  0  2.281007  0  0  -0.683137  0  2.270331  0  0  -0.388021  -0.639718  0  2.287987  0
O  O76  1  0.48689099  0.05107959  0.37311776  1  0  -0.788984  0  2.106289  0  0  -0.749059  0  2.37545  0  0  -0.774683  0  2.362375  0  0  -0.415356  -0.730976  0  2.384435  0
O  O77  1  0.51310039  0.94891311  0.62691288  1  0  -0.788641  0  2.107088  0  0  -0.748708  0  2.376421  0  0  -0.774327  0  2.363363  0  0  -0.415115  -0.73063  0  2.3854  0
O  O78  1  0.59208975  0.87571443  0.19268515  1  0  -0.46991  0  1.985825  0  0  -0.417554  0  2.19853  0  0  -0.436234  0  2.194991  0  0  -0.237853  -0.404967  0  2.201068  0
O  O79  1  0.40790797  0.12429428  0.80732848  1  0  -0.469685  0  1.985878  0  0  -0.417398  0  2.198672  0  0  -0.436064  0  2.195113  0  0  -0.23778  -0.404799  0  2.2012  0
O  O80  1  0.33910060  0.65764625  0.31328974  1  0  -0.584642  0  2.097881  0  0  -0.533212  0  2.309886  0  0  -0.553963  0  2.291976  0  0  -0.345267  -0.518657  0  2.322448  0
O  O81  1  0.66089148  0.34235249  0.68672799  1  0  -0.584952  0  2.097479  0  0  -0.533399  0  2.309801  0  0  -0.55415  0  2.291892  0  0  -0.345441  -0.518847  0  2.322372  0
O  O82  1  0.52095799  0.54745768  0.21072209  1  0  -0.498789  0  1.891428  0  0  -0.469052  0  2.099218  0  0  -0.488135  0  2.090585  0  0  -0.27689  -0.456221  0  2.105304  0
O  O83  1  0.47905384  0.45254483  0.78927710  1  0  -0.498695  0  1.892051  0  0  -0.468812  0  2.09995  0  0  -0.487886  0  2.091318  0  0  -0.276635  -0.455986  0  2.106044  0
O  O84  1  0.68531349  0.81862406  0.41760071  1  0  -0.858996  0  1.876033  0  0  -0.812561  0  2.05043  0  0  -0.829318  0  2.026519  0  0  -0.565593  -0.800658  0  2.067295  0
O  O85  1  0.31468050  0.18137111  0.58239822  1  0  -0.858999  0  1.876176  0  0  -0.812532  0  2.050501  0  0  -0.829293  0  2.026596  0  0  -0.56555  -0.800629  0  2.067369  0
O  O86  1  0.76553227  0.82543588  0.67345784  1  0  -0.897178  0  1.862756  0  0  -0.855113  0  2.049097  0  0  -0.872138  0  2.021714  0  0  -0.590932  -0.843168  0  2.068715  0
O  O87  1  0.23446068  0.17456020  0.32654302  1  0  -0.897194  0  1.862761  0  0  -0.855141  0  2.049092  0  0  -0.872161  0  2.021694  0  0  -0.590962  -0.843194  0  2.068702  0
O  O88  1  0.93739059  0.23288316  0.39627617  1  0  -0.927919  0  1.84333  0  0  -0.882977  0  2.021993  0  0  -0.903038  0  1.989862  0  0  -0.663343  -0.868702  0  2.044979  0
O  O89  1  0.06261123  0.76712107  0.60371732  1  0  -0.927937  0  1.843308  0  0  -0.883001  0  2.021916  0  0  -0.903057  0  1.989799  0  0  -0.663319  -0.868742  0  2.044876  0
O  O90  1  0.62944489  0.22404150  0.48953997  1  0  -0.883308  0  1.863326  0  0  -0.839521  0  2.030115  0  0  -0.857558  0  2.000343  0  0  -0.636731  -0.826742  0  2.051188  0
O  O91  1  0.37055157  0.77595559  0.51046607  1  0  -0.883186  0  1.863465  0  0  -0.839379  0  2.030236  0  0  -0.857411  0  2.000463  0  0  -0.636583  -0.8266  0  2.051306  0
