# generated using pymatgen
data_SmH18C18(NO2)4
_symmetry_space_group_name_H-M   'P 1'
_cell_length_a   9.96599279
_cell_length_b   10.39098565
_cell_length_c   11.00851353
_cell_angle_alpha   78.11871010
_cell_angle_beta   76.86204731
_cell_angle_gamma   66.13411960
_symmetry_Int_Tables_number   1
_chemical_formula_structural   SmH18C18(NO2)4
_chemical_formula_sum   'Sm2 H36 C36 N8 O16'
_cell_volume   1006.89876124
_cell_formula_units_Z   2
loop_
 _symmetry_equiv_pos_site_id
 _symmetry_equiv_pos_as_xyz
  1  'x, y, z'
loop_
 _atom_site_type_symbol
 _atom_site_label
 _atom_site_symmetry_multiplicity
 _atom_site_fract_x
 _atom_site_fract_y
 _atom_site_fract_z
 _atom_site_occupancy
 _atom_site_hle17_bader_spin_density
 _atom_site_hle17_ddec_charge
 _atom_site_hle17_ddec_spin_density
 _atom_site_hle17_ddec_sum_bond_order
 _atom_site_hle17_magmom
 _atom_site_hse06_10hf_bader_spin_density
 _atom_site_hse06_10hf_ddec_charge
 _atom_site_hse06_10hf_ddec_spin_density
 _atom_site_hse06_10hf_ddec_sum_bond_order
 _atom_site_hse06_10hf_magmom
 _atom_site_hse06_bader_spin_density
 _atom_site_hse06_ddec_charge
 _atom_site_hse06_ddec_spin_density
 _atom_site_hse06_ddec_sum_bond_order
 _atom_site_hse06_magmom
 _atom_site_pbe_bader_spin_density
 _atom_site_pbe_cm5_charge
 _atom_site_pbe_ddec_charge
 _atom_site_pbe_ddec_spin_density
 _atom_site_pbe_ddec_sum_bond_order
 _atom_site_pbe_magmom
Sm  Sm0  1  0.05619353  0.77395172  0.17666224  1  0  2.260081  0  1.677291  0  0  2.109577  0  2.152436  0  0  2.214881  0  1.994147  0  0  1.518941  2.075078  0  2.187174  0
Sm  Sm1  1  0.94380707  0.22604844  0.82333814  1  0  2.260051  0  1.677309  0  0  2.109538  0  2.152474  0  0  2.214854  0  1.994173  0  0  1.518938  2.075045  0  2.187215  0
H  H2  1  0.33697871  0.15056601  0.84251685  1  0  0.105992  0  0.969943  0  0  0.113708  0  1.03445  0  0  0.117346  0  1.032338  0  0  0.108139  0.110931  0  1.036338  0
H  H3  1  0.66302086  0.84943414  0.15748284  1  0  0.106012  0  0.969931  0  0  0.11373  0  1.034431  0  0  0.117367  0  1.032321  0  0  0.10814  0.110952  0  1.036319  0
H  H4  1  0.39556539  0.87301357  0.19030634  1  0  0.102211  0  0.957445  0  0  0.109052  0  1.023605  0  0  0.112838  0  1.021071  0  0  0.105638  0.106231  0  1.025622  0
H  H5  1  0.60443357  0.12698552  0.80969369  1  0  0.102204  0  0.957468  0  0  0.109047  0  1.023618  0  0  0.112832  0  1.021089  0  0  0.105646  0.106227  0  1.025637  0
H  H6  1  0.56563882  0.59179260  0.27687254  1  0  0.105947  0  0.931192  0  0  0.11997  0  0.982252  0  0  0.123742  0  0.979861  0  0  0.109812  0.117352  0  0.98383  0
H  H7  1  0.43436345  0.40820332  0.72312925  1  0  0.105925  0  0.931199  0  0  0.119975  0  0.982228  0  0  0.123751  0  0.979834  0  0  0.109805  0.117357  0  0.983809  0
H  H8  1  0.24727767  0.49328574  0.57794337  1  0  0.115832  0  0.951759  0  0  0.120382  0  1.019963  0  0  0.12464  0  1.016944  0  0  0.109614  0.117386  0  1.022168  0
H  H9  1  0.75272419  0.50671124  0.42205829  1  0  0.115866  0  0.951756  0  0  0.120388  0  1.019982  0  0  0.124643  0  1.016968  0  0  0.109616  0.117392  0  1.022186  0
H  H10  1  0.70166883  0.08450878  0.49700024  1  0  0.107016  0  0.929611  0  0  0.119313  0  0.982765  0  0  0.123161  0  0.980294  0  0  0.110465  0.116702  0  0.984376  0
H  H11  1  0.29833075  0.91549137  0.50299854  1  0  0.107033  0  0.929597  0  0  0.119334  0  0.982747  0  0  0.123181  0  0.980275  0  0  0.110471  0.116721  0  0.984358  0
H  H12  1  0.55334983  0.79867149  0.38437151  1  0  0.09666  0  0.974296  0  0  0.105831  0  1.038685  0  0  0.108123  0  1.038484  0  0  0.103173  0.103998  0  1.039264  0
H  H13  1  0.44664932  0.20132972  0.61562805  1  0  0.096642  0  0.974317  0  0  0.105803  0  1.038718  0  0  0.108097  0  1.038514  0  0  0.103158  0.103972  0  1.039296  0
H  H14  1  0.53782383  0.85876630  0.73371321  1  0  0.052369  0  0.959258  0  0  0.065085  0  1.028064  0  0  0.06406  0  1.031368  0  0  0.095859  0.065017  0  1.027029  0
H  H15  1  0.46217635  0.14123491  0.26628524  1  0  0.052391  0  0.959235  0  0  0.065104  0  1.028046  0  0  0.064079  0  1.031351  0  0  0.095875  0.065035  0  1.027011  0
H  H16  1  0.57858820  0.69457509  0.68062668  1  0  0.054428  0  0.941726  0  0  0.067996  0  1.005513  0  0  0.067569  0  1.007091  0  0  0.095345  0.068058  0  1.004489  0
H  H17  1  0.42141095  0.30542612  0.31937289  1  0  0.054443  0  0.941705  0  0  0.06801  0  1.005496  0  0  0.067582  0  1.007077  0  0  0.095348  0.068072  0  1.004473  0
H  H18  1  0.67174570  0.57060412  0.86897120  1  0  0.064718  0  0.95894  0  0  0.073282  0  1.030032  0  0  0.074123  0  1.030196  0  0  0.10377  0.072152  0  1.030896  0
H  H19  1  0.32825345  0.42939709  0.13102746  1  0  0.064723  0  0.95895  0  0  0.073281  0  1.030036  0  0  0.074122  0  1.0302  0  0  0.103761  0.07215  0  1.030901  0
H  H20  1  0.63436249  0.73517587  0.92021513  1  0  0.059229  0  0.942891  0  0  0.073024  0  1.006191  0  0  0.072866  0  1.007777  0  0  0.097994  0.073197  0  1.004735  0
H  H21  1  0.36563770  0.26482535  0.07978422  1  0  0.059248  0  0.942887  0  0  0.073029  0  1.006181  0  0  0.07287  0  1.007768  0  0  0.097993  0.073201  0  1.004726  0
H  H22  1  0.98080170  0.26131787  0.44983636  1  0  0.085098  0  0.944192  0  0  0.099452  0  1.004465  0  0  0.100732  0  1.004102  0  0  0.110787  0.098482  0  1.004774  0
H  H23  1  0.01919745  0.73868334  0.55016321  1  0  0.085126  0  0.944156  0  0  0.099476  0  1.004427  0  0  0.100757  0  1.004063  0  0  0.110788  0.098506  0  1.004736  0
H  H24  1  0.15562613  0.19083101  0.34987720  1  0  0.052268  0  0.921329  0  0  0.069686  0  0.980873  0  0  0.069712  0  0.98175  0  0  0.097056  0.069314  0  0.980652  0
H  H25  1  0.84437303  0.80917020  0.65012146  1  0  0.052264  0  0.921324  0  0  0.069671  0  0.980877  0  0  0.069696  0  0.981754  0  0  0.097047  0.0693  0  0.980657  0
H  H26  1  0.00397628  0.15269900  0.22821728  1  0  0.095844  0  0.951417  0  0  0.111154  0  1.007849  0  0  0.112731  0  1.007095  0  0  0.114516  0.109987  0  1.008339  0
H  H27  1  0.99602288  0.84730222  0.77178229  1  0  0.095836  0  0.951406  0  0  0.111153  0  1.007828  0  0  0.112733  0  1.007072  0  0  0.114504  0.109986  0  1.008317  0
H  H28  1  0.84196434  0.29597608  0.28399331  1  0  0.05441  0  0.938188  0  0  0.065965  0  1.008034  0  0  0.066377  0  1.008187  0  0  0.096793  0.06569  0  1.007867  0
H  H29  1  0.15803482  0.70402513  0.71600626  1  0  0.054421  0  0.938186  0  0  0.065986  0  1.008024  0  0  0.066398  0  1.008178  0  0  0.096794  0.06571  0  1.007859  0
H  H30  1  0.44797384  0.63201111  0.06169751  1  0  0.325652  0  0.910366  0  0  0.30873  0  0.969956  0  0  0.3167  0  0.963145  0  0  0.318495  0.303178  0  0.974667  0
H  H31  1  0.55202821  0.36798799  0.93830187  1  0  0.325711  0  0.910365  0  0  0.30882  0  0.969911  0  0  0.316789  0  0.963096  0  0  0.318526  0.303268  0  0.974625  0
H  H32  1  0.28600313  0.85576791  0.74691735  1  0  0.308534  0  0.907378  0  0  0.291176  0  0.971832  0  0  0.298232  0  0.966627  0  0  0.313052  0.286293  0  0.975334  0
H  H33  1  0.71399603  0.14423331  0.25308312  1  0  0.308505  0  0.907396  0  0  0.291133  0  0.971864  0  0  0.298188  0  0.966661  0  0  0.313038  0.286246  0  0.975366  0
H  H34  1  0.08044014  0.46474871  0.36208592  1  0  0.317171  0  0.906886  0  0  0.302766  0  0.961698  0  0  0.310119  0  0.956353  0  0  0.318698  0.297402  0  0.965945  0
H  H35  1  0.91956046  0.53525144  0.63791265  1  0  0.317171  0  0.906885  0  0  0.302759  0  0.961704  0  0  0.310112  0  0.956357  0  0  0.318698  0.297395  0  0.965951  0
H  H36  1  0.96538689  0.38071926  0.06305943  1  0  0.322659  0  0.899293  0  0  0.30372  0  0.962986  0  0  0.311836  0  0.95636  0  0  0.315815  0.297826  0  0.968081  0
H  H37  1  0.03461227  0.61928196  0.93694013  1  0  0.322653  0  0.899282  0  0  0.303684  0  0.963017  0  0  0.311801  0  0.956391  0  0  0.315807  0.297792  0  0.968104  0
C  C38  1  0.35214536  0.01335186  0.01858817  1  0  -0.065987  0  3.7364  0  0  -0.044068  0  3.964942  0  0  -0.050007  0  3.984944  0  0  -0.011029  -0.039971  0  3.949757  0
C  C39  1  0.64785380  0.98664935  0.98141048  1  0  -0.065923  0  3.736334  0  0  -0.044042  0  3.964922  0  0  -0.049979  0  3.984924  0  0  -0.011023  -0.039945  0  3.949737  0
C  C40  1  0.40984092  0.08471719  0.91042594  1  0  -0.078384  0  3.724834  0  0  -0.099366  0  3.971479  0  0  -0.099902  0  3.989937  0  0  -0.082153  -0.098517  0  3.958623  0
C  C41  1  0.59015907  0.91528191  0.08957387  1  0  -0.078486  0  3.724791  0  0  -0.099459  0  3.971455  0  0  -0.099997  0  3.989914  0  0  -0.08219  -0.09861  0  3.958596  0
C  C42  1  0.44266745  0.92872544  0.10807321  1  0  -0.071813  0  3.73799  0  0  -0.096223  0  3.991107  0  0  -0.09658  0  4.009608  0  0  -0.081314  -0.095699  0  3.978367  0
C  C43  1  0.55733357  0.07127366  0.89192639  1  0  -0.071783  0  3.73801  0  0  -0.096181  0  3.991128  0  0  -0.096539  0  4.009628  0  0  -0.081285  -0.095659  0  3.978393  0
C  C44  1  0.19478614  0.02444717  0.03619288  1  0  0.729899  0  3.864285  0  0  0.682448  0  4.154574  0  0  0.718019  0  4.14637  0  0  0.242153  0.658888  0  4.161079  0
C  C45  1  0.80521240  0.97555299  0.96380793  1  0  0.729839  0  3.864319  0  0  0.682404  0  4.154606  0  0  0.71797  0  4.146407  0  0  0.242115  0.658845  0  4.161109  0
C  C46  1  0.39501664  0.54908347  0.41898570  1  0  -0.052304  0  3.745653  0  0  -0.029409  0  3.975085  0  0  -0.035386  0  3.996827  0  0  -0.011793  -0.025384  0  3.959702  0
C  C47  1  0.60498521  0.45091352  0.58101596  1  0  -0.052188  0  3.74557  0  0  -0.029355  0  3.975078  0  0  -0.035331  0  3.996822  0  0  -0.011737  -0.025332  0  3.959697  0
C  C48  1  0.53803046  0.55094229  0.37473708  1  0  -0.065899  0  3.713235  0  0  -0.089956  0  3.964448  0  0  -0.090339  0  3.982708  0  0  -0.078864  -0.089163  0  3.951405  0
C  C49  1  0.46197284  0.44905364  0.62526540  1  0  -0.06587  0  3.71327  0  0  -0.089932  0  3.964517  0  0  -0.090322  0  3.982783  0  0  -0.07886  -0.08914  0  3.951477  0
C  C50  1  0.35742302  0.49731516  0.54478730  1  0  -0.067727  0  3.704355  0  0  -0.091344  0  3.957983  0  0  -0.091835  0  3.976246  0  0  -0.077063  -0.090908  0  3.945569  0
C  C51  1  0.64257925  0.50268077  0.45521539  1  0  -0.067738  0  3.704385  0  0  -0.091314  0  3.958029  0  0  -0.091805  0  3.97629  0  0  -0.077042  -0.090875  0  3.945612  0
C  C52  1  0.28218984  0.60569327  0.33284352  1  0  0.625496  0  3.953585  0  0  0.581113  0  4.246073  0  0  0.613225  0  4.244773  0  0  0.197165  0.558821  0  4.250889  0
C  C53  1  0.71781366  0.39430478  0.66715759  1  0  0.625495  0  3.95362  0  0  0.581126  0  4.246123  0  0  0.613237  0  4.244823  0  0  0.197139  0.558835  0  4.250943  0
C  C54  1  0.64243634  0.93463873  0.43344362  1  0  -0.053126  0  3.738438  0  0  -0.030523  0  3.968765  0  0  -0.035563  0  3.988648  0  0  -0.013141  -0.026783  0  3.954499  0
C  C55  1  0.35756365  0.06536036  0.56655619  1  0  -0.053124  0  3.738427  0  0  -0.03053  0  3.968767  0  0  -0.03553  0  3.988591  0  0  -0.013133  -0.02679  0  3.954503  0
C  C56  1  0.61275621  0.04791266  0.49917517  1  0  -0.078814  0  3.729713  0  0  -0.101203  0  3.981046  0  0  -0.101292  0  3.998265  0  0  -0.080712  -0.100867  0  3.968646  0
C  C57  1  0.38724378  0.95208643  0.50082465  1  0  -0.078822  0  3.729702  0  0  -0.101205  0  3.981029  0  0  -0.101306  0  3.998235  0  0  -0.080701  -0.100868  0  3.968627  0
C  C58  1  0.52884227  0.88705600  0.43512844  1  0  -0.074972  0  3.731323  0  0  -0.098439  0  3.981655  0  0  -0.099074  0  4.001571  0  0  -0.080668  -0.097899  0  3.968423  0
C  C59  1  0.47115730  0.11294416  0.56487216  1  0  -0.074946  0  3.731296  0  0  -0.0984  0  3.981623  0  0  -0.099044  0  4.001522  0  0  -0.080637  -0.097862  0  3.968394  0
C  C60  1  0.79183413  0.87016857  0.35581146  1  0  0.623576  0  3.961892  0  0  0.579999  0  4.255514  0  0  0.612146  0  4.254492  0  0  0.189245  0.557644  0  4.259687  0
C  C61  1  0.20816544  0.12983159  0.64418823  1  0  0.623585  0  3.961839  0  0  0.580002  0  4.255473  0  0  0.61214  0  4.254446  0  0  0.189241  0.557648  0  4.259647  0
C  C62  1  0.33050202  0.72866029  0.91486152  1  0  0.739891  0  3.901476  0  0  0.673736  0  4.201603  0  0  0.708515  0  4.197102  0  0  0.338703  0.650423  0  4.205108  0
C  C63  1  0.66949671  0.27134199  0.08513792  1  0  0.739811  0  3.901545  0  0  0.673642  0  4.201699  0  0  0.708413  0  4.197209  0  0  0.33868  0.650324  0  4.205203  0
C  C64  1  0.52383125  0.75660665  0.75993260  1  0  0.045927  0  3.608574  0  0  -0.010611  0  3.869559  0  0  -0.006681  0  3.882344  0  0  -0.056518  -0.012945  0  3.861161  0
C  C65  1  0.47616791  0.24339456  0.24006606  1  0  0.045915  0  3.60861  0  0  -0.010641  0  3.869581  0  0  -0.006716  0  3.882375  0  0  -0.056536  -0.012981  0  3.86118  0
C  C66  1  0.58635345  0.67597758  0.88288663  1  0  0.047946  0  3.590805  0  0  -0.005632  0  3.847002  0  0  -0.001418  0  3.85725  0  0  -0.05396  -0.008234  0  3.839576  0
C  C67  1  0.41364776  0.32402363  0.11711161  1  0  0.047862  0  3.590937  0  0  -0.005663  0  3.84707  0  0  -0.001455  0  3.857323  0  0  -0.053961  -0.008265  0  3.839642  0
C  C68  1  0.04126274  0.27112202  0.35424160  1  0  0.045298  0  3.602491  0  0  -0.012415  0  3.866456  0  0  -0.008565  0  3.877016  0  0  -0.052071  -0.014549  0  3.858525  0
C  C69  1  0.95873786  0.72887814  0.64575879  1  0  0.045211  0  3.60255  0  0  -0.012482  0  3.866475  0  0  -0.008632  0  3.877037  0  0  -0.052088  -0.014615  0  3.858545  0
C  C70  1  0.96316752  0.26000223  0.25330300  1  0  0.03625  0  3.593041  0  0  -0.021642  0  3.85683  0  0  -0.017306  0  3.866065  0  0  -0.054687  -0.024145  0  3.849698  0
C  C71  1  0.03683163  0.73999899  0.74669656  1  0  0.036266  0  3.593022  0  0  -0.02163  0  3.856797  0  0  -0.017297  0  3.866033  0  0  -0.054669  -0.024133  0  3.849666  0
C  C72  1  0.03087910  0.45493128  0.19188145  1  0  0.733322  0  3.902562  0  0  0.667636  0  4.203405  0  0  0.701931  0  4.200438  0  0  0.341165  0.644392  0  4.206129  0
C  C73  1  0.96912006  0.54506994  0.80811812  1  0  0.733306  0  3.902647  0  0  0.667616  0  4.203502  0  0  0.701912  0  4.200535  0  0  0.341177  0.644372  0  4.206229  0
N  N74  1  0.45532432  0.66446625  0.96739700  1  0  -0.489741  0  3.26065  0  0  -0.429547  0  3.51022  0  0  -0.450262  0  3.515434  0  0  -0.432428  -0.415617  0  3.505786  0
N  N75  1  0.54467586  0.33553496  0.03260145  1  0  -0.48969  0  3.260703  0  0  -0.429549  0  3.510259  0  0  -0.450251  0  3.515461  0  0  -0.432414  -0.41562  0  3.505829  0
N  N76  1  0.36647334  0.77661183  0.79163296  1  0  -0.495215  0  3.202839  0  0  -0.436569  0  3.454517  0  0  -0.457268  0  3.459938  0  0  -0.434833  -0.422785  0  3.450133  0
N  N77  1  0.63352642  0.22339045  0.20836717  1  0  -0.495175  0  3.202865  0  0  -0.436493  0  3.454526  0  0  -0.457192  0  3.459956  0  0  -0.434823  -0.422693  0  3.450131  0
N  N78  1  0.04317509  0.41378135  0.31540497  1  0  -0.484664  0  3.224824  0  0  -0.424413  0  3.475276  0  0  -0.444866  0  3.48045  0  0  -0.425517  -0.410512  0  3.471801  0
N  N79  1  0.95682406  0.58621986  0.68459369  1  0  -0.484638  0  3.224924  0  0  -0.424363  0  3.475335  0  0  -0.444818  0  3.480512  0  0  -0.425503  -0.410462  0  3.47186  0
N  N80  1  0.99923894  0.35942113  0.14842280  1  0  -0.474446  0  3.192036  0  0  -0.414143  0  3.439703  0  0  -0.434493  0  3.443382  0  0  -0.423594  -0.400062  0  3.436235  0
N  N81  1  0.00075918  0.64058008  0.85157607  1  0  -0.474404  0  3.192024  0  0  -0.414101  0  3.439759  0  0  -0.43445  0  3.443439  0  0  -0.42359  -0.400019  0  3.436291  0
O  O82  1  0.14621309  0.95703962  0.13467933  1  0  -0.747773  0  2.042985  0  0  -0.695549  0  2.298708  0  0  -0.728749  0  2.282905  0  0  -0.408827  -0.678401  0  2.307509  0
O  O83  1  0.85378690  0.04295949  0.86532230  1  0  -0.747737  0  2.042985  0  0  -0.695519  0  2.298717  0  0  -0.728718  0  2.282915  0  0  -0.408784  -0.678371  0  2.307518  0
O  O84  1  0.11902143  0.09977463  0.95105681  1  0  -0.742427  0  2.074428  0  0  -0.694908  0  2.348193  0  0  -0.728449  0  2.331323  0  0  -0.418364  -0.678  0  2.357417  0
O  O85  1  0.88097772  0.90022659  0.04894367  1  0  -0.742437  0  2.07442  0  0  -0.694924  0  2.348181  0  0  -0.728459  0  2.331312  0  0  -0.418387  -0.678013  0  2.357403  0
O  O86  1  0.14716061  0.61847418  0.37550629  1  0  -0.699264  0  1.984637  0  0  -0.651208  0  2.219902  0  0  -0.679998  0  2.210214  0  0  -0.361493  -0.635379  0  2.22643  0
O  O87  1  0.85284144  0.38152492  0.62449309  1  0  -0.699273  0  1.984673  0  0  -0.651212  0  2.219935  0  0  -0.680003  0  2.210247  0  0  -0.3615  -0.635383  0  2.226464  0
O  O88  1  0.32053126  0.64550298  0.21688060  1  0  -0.709721  0  2.048862  0  0  -0.662304  0  2.296568  0  0  -0.692286  0  2.287579  0  0  -0.365527  -0.6458  0  2.302746  0
O  O89  1  0.67947056  0.35449932  0.78312092  1  0  -0.709718  0  2.048903  0  0  -0.662319  0  2.296642  0  0  -0.692309  0  2.287665  0  0  -0.365486  -0.645813  0  2.302819  0
O  O90  1  0.82876253  0.75054227  0.31849654  1  0  -0.679845  0  1.95358  0  0  -0.636841  0  2.190745  0  0  -0.666245  0  2.181657  0  0  -0.371689  -0.620359  0  2.196224  0
O  O91  1  0.17123704  0.24945789  0.68150405  1  0  -0.679852  0  1.953548  0  0  -0.636836  0  2.190706  0  0  -0.666248  0  2.181628  0  0  -0.371689  -0.620354  0  2.196186  0
O  O92  1  0.87710074  0.94121432  0.32431606  1  0  -0.709352  0  1.926476  0  0  -0.663039  0  2.159041  0  0  -0.692677  0  2.148123  0  0  -0.383716  -0.64688  0  2.165475  0
O  O93  1  0.12289697  0.05878795  0.67568178  1  0  -0.709346  0  1.926447  0  0  -0.663033  0  2.15902  0  0  -0.692674  0  2.148106  0  0  -0.383716  -0.646873  0  2.165452  0
O  O94  1  0.20086070  0.74063411  0.96912371  1  0  -0.724143  0  2.007573  0  0  -0.676485  0  2.26882  0  0  -0.705544  0  2.253869  0  0  -0.392138  -0.661933  0  2.277623  0
O  O95  1  0.79913990  0.25936605  0.03087667  1  0  -0.724114  0  2.007536  0  0  -0.676456  0  2.268792  0  0  -0.705507  0  2.253843  0  0  -0.39215  -0.661905  0  2.277597  0
O  O96  1  0.04914711  0.56429447  0.12629002  1  0  -0.748183  0  2.031435  0  0  -0.699017  0  2.29397  0  0  -0.728889  0  2.277374  0  0  -0.400345  -0.683711  0  2.303712  0
O  O97  1  0.95085060  0.43570780  0.87370872  1  0  -0.748173  0  2.03142  0  0  -0.699015  0  2.293967  0  0  -0.728886  0  2.27737  0  0  -0.400355  -0.683708  0  2.30371  0
