# generated using pymatgen
data_NiH28C20O7
_symmetry_space_group_name_H-M   'P 1'
_cell_length_a   7.56784712
_cell_length_b   9.71200938
_cell_length_c   15.43463871
_cell_angle_alpha   105.09535368
_cell_angle_beta   90.39414256
_cell_angle_gamma   90.70289141
_symmetry_Int_Tables_number   1
_chemical_formula_structural   NiH28C20O7
_chemical_formula_sum   'Ni2 H56 C40 O14'
_cell_volume   1095.14356077
_cell_formula_units_Z   2
loop_
 _symmetry_equiv_pos_site_id
 _symmetry_equiv_pos_as_xyz
  1  'x, y, z'
loop_
 _atom_site_type_symbol
 _atom_site_label
 _atom_site_symmetry_multiplicity
 _atom_site_fract_x
 _atom_site_fract_y
 _atom_site_fract_z
 _atom_site_occupancy
 _atom_site_pbe_cm5_charge
 _atom_site_pbe_ddec_charge
 _atom_site_pbe_ddec_spin_density
 _atom_site_pbe_ddec_sum_bond_order
 _atom_site_pbe_magmom
Ni  Ni0  1  0.50000090  0.50000043  0.50000014  1  0.585131  0.929758  0.14344  2.231265  0.094
Ni  Ni1  1  0.00000509  0.49999795  0.49999996  1  0.584758  0.925799  -0.141498  2.237309  -0.092
H  H2  1  0.70628813  0.42247965  0.61639413  1  0.295401  0.388288  0.000253  0.953633  0.0
H  H3  1  0.29371628  0.57751908  0.38360579  1  0.295438  0.38832  0.000253  0.953582  0.0
H  H4  1  0.50937405  0.42524707  0.65509623  1  0.322855  0.403832  0.000761  0.881923  0.0
H  H5  1  0.49063033  0.57474952  0.34490397  1  0.322877  0.403887  0.000761  0.881868  0.0
H  H6  1  0.25985256  0.32736749  0.45306466  1  0.292673  0.374445  0.000118  0.978303  0.0
H  H7  1  0.74015178  0.67262696  0.54693518  1  0.292617  0.374308  0.000118  0.978521  0.0
H  H8  1  0.23477847  0.39134350  0.56705175  1  0.292814  0.3749  -0.000146  0.978067  0.0
H  H9  1  0.76522197  0.60865521  0.43294880  1  0.292816  0.374854  -0.000145  0.978112  0.0
H  H10  1  0.98644688  0.25718417  0.36983292  1  0.322425  0.403813  -0.000678  0.883359  0.0
H  H11  1  0.01354953  0.74281030  0.63016560  1  0.322453  0.403843  -0.000678  0.883301  0.0
H  H12  1  0.79018558  0.29591821  0.40582968  1  0.294739  0.388805  -0.000245  0.951588  0.0
H  H13  1  0.20981489  0.70408264  0.59417060  1  0.29474  0.388776  -0.000245  0.951619  0.0
H  H14  1  0.82394851  0.82676923  0.25015204  1  0.09591  0.106982  4e-06  1.051735  0.0
H  H15  1  0.17604261  0.17322529  0.74984323  1  0.095933  0.107034  4e-06  1.051767  0.0
H  H16  1  0.63720121  0.04448535  0.05876226  1  0.09441  0.100355  2.7e-05  1.02843  0.0
H  H17  1  0.36280337  0.95552408  0.94123756  1  0.09435  0.100295  2.7e-05  1.02834  0.0
H  H18  1  0.68053200  0.87778578  0.39765398  1  0.092643  0.141417  7e-05  1.006602  0.0
H  H19  1  0.31945784  0.12221080  0.60234553  1  0.092652  0.141435  7e-05  1.006595  0.0
H  H20  1  0.55140974  0.03346022  0.43721213  1  0.091336  0.128147  3.1e-05  1.020091  0.0
H  H21  1  0.44858271  0.96653430  0.56278380  1  0.091327  0.128139  3.1e-05  1.020019  0.0
H  H22  1  0.78425453  0.04849068  0.43412792  1  0.09265  0.136534  -0.000198  1.013413  0.0
H  H23  1  0.21573261  0.95150268  0.56587168  1  0.092613  0.136436  -0.000198  1.013454  0.0
H  H24  1  0.98039639  0.88544825  0.06530383  1  0.091543  0.131544  5.9e-05  0.989938  0.0
H  H25  1  0.01960939  0.11455372  0.93469471  1  0.091544  0.13156  5.9e-05  0.989964  0.0
H  H26  1  0.78547851  0.80300905  0.01049590  1  0.085838  0.113739  3e-05  1.036538  0.0
H  H27  1  0.21452195  0.19699082  0.98950032  1  0.085822  0.113765  3e-05  1.036604  0.0
H  H28  1  0.89207148  0.73384984  0.09350451  1  0.090147  0.128194  -6e-06  1.031952  0.0
H  H29  1  0.10793035  0.26615318  0.90649484  1  0.09014  0.128214  -6e-06  1.032023  0.0
H  H30  1  0.43612339  0.23482183  0.10032911  1  0.089711  0.125476  0.0  1.037967  0.0
H  H31  1  0.56387845  0.76518115  0.89967218  1  0.089699  0.125481  0.0  1.037963  0.0
H  H32  1  0.48499796  0.35032631  0.20728345  1  0.089929  0.124638  -5e-06  1.004087  0.0
H  H33  1  0.51500516  0.64967455  0.79271683  1  0.089937  0.124674  -5e-06  1.004074  0.0
H  H34  1  0.29924926  0.23464287  0.19368920  1  0.091381  0.131857  5e-05  1.010553  0.0
H  H35  1  0.70074998  0.76536337  0.80630940  1  0.091404  0.131902  5e-05  1.010587  0.0
H  H36  1  0.65161341  0.12810101  0.80135547  1  0.095519  0.104837  8e-06  1.042228  0.0
H  H37  1  0.34838707  0.87189985  0.19864480  1  0.095489  0.104792  8e-06  1.04213  0.0
H  H38  1  0.83296143  0.53448420  0.96557587  1  0.095338  0.10237  -1.1e-05  1.034782  0.0
H  H39  1  0.16702851  0.46551878  0.03442473  1  0.095354  0.102352  -1.1e-05  1.034837  0.0
H  H40  1  0.77681765  0.03107173  0.65592975  1  0.088151  0.136007  -3.8e-05  1.035454  0.0
H  H41  1  0.22318415  0.96892909  0.34407247  1  0.08809  0.135969  -3.8e-05  1.035435  0.0
H  H42  1  0.95045534  0.12233320  0.61574083  1  0.090578  0.130167  -5.5e-05  1.009425  0.0
H  H43  1  0.04954116  0.87766657  0.38425990  1  0.090599  0.130213  -5.5e-05  1.009288  0.0
H  H44  1  0.72806343  0.16588491  0.60088890  1  0.092117  0.139209  0.000139  1.015113  0.0
H  H45  1  0.27193702  0.83411378  0.39911295  1  0.092106  0.139175  0.000139  1.015127  0.0
H  H46  1  0.51021360  0.23941834  0.94759418  1  0.087513  0.123743  -1.3e-05  1.046045  0.0
H  H47  1  0.48978024  0.76058038  0.05240570  1  0.087496  0.123729  -1.3e-05  1.046013  0.0
H  H48  1  0.59296461  0.40423786  0.01777017  1  0.090765  0.128552  -1.3e-05  1.00319  0.0
H  H49  1  0.40703058  0.59576295  0.98223202  1  0.090751  0.128522  -1.3e-05  1.00322  0.0
H  H50  1  0.71089805  0.24505761  0.00781544  1  0.088419  0.118846  -8.3e-05  1.030113  0.0
H  H51  1  0.28910376  0.75494437  0.99218244  1  0.088447  0.118875  -8.3e-05  1.030154  0.0
H  H52  1  0.17840852  0.58942021  0.83088786  1  0.092062  0.131847  -6.3e-05  1.003544  0.0
H  H53  1  0.82158945  0.41058914  0.16911580  1  0.092096  0.131894  -6.3e-05  1.003535  0.0
H  H54  1  0.02106569  0.68504808  0.90790449  1  0.091263  0.128843  6e-06  1.021617  0.0
H  H55  1  0.97892959  0.31495805  0.09209927  1  0.091258  0.128831  6e-06  1.021631  0.0
H  H56  1  0.99848148  0.67049996  0.79120707  1  0.089623  0.123266  7e-06  1.011142  0.0
H  H57  1  0.00151119  0.32950830  0.20879704  1  0.089625  0.123259  7e-06  1.01119  0.0
C  C58  1  0.47013658  0.22343223  0.35595288  1  0.229792  0.61643  0.000702  4.144032  0.0
C  C59  1  0.52986390  0.77656859  0.64404934  1  0.2298  0.616468  0.000702  4.144102  0.0
C  C60  1  0.55932994  0.11515589  0.28270642  1  -0.028011  -0.189389  0.00237  3.942859  0.002
C  C61  1  0.44066789  0.88484499  0.71729255  1  -0.02798  -0.189334  0.00237  3.942896  0.002
C  C62  1  0.65824130  0.00664874  0.30398700  1  -0.007224  0.160662  0.000574  3.989372  0.001
C  C63  1  0.34175519  0.99335110  0.69601050  1  -0.007256  0.160667  0.000574  3.989435  0.001
C  C64  1  0.74991542  0.91330354  0.23486615  1  -0.099648  -0.216298  -0.000199  3.919295  0.0
C  C65  1  0.25008238  0.08669525  0.76512987  1  -0.099665  -0.216442  -0.000199  3.919382  0.0
C  C66  1  0.74781952  0.92780333  0.14714325  1  -0.01423  0.177124  0.001012  4.02488  0.001
C  C67  1  0.25217826  0.07219437  0.85285388  1  -0.014223  0.17726  0.001012  4.024701  0.001
C  C68  1  0.64402080  0.03475855  0.12766380  1  -0.10772  -0.237344  -0.00011  3.96983  0.0
C  C69  1  0.35598365  0.96524233  0.87233520  1  -0.107625  -0.237281  -0.000109  3.96979  0.0
C  C70  1  0.54820782  0.12881654  0.19415807  1  -0.013254  0.152464  0.000937  4.006862  0.001
C  C71  1  0.45179802  0.87118968  0.80584184  1  -0.013259  0.152458  0.000937  4.00699  0.001
C  C72  1  0.66834936  0.99047896  0.39826092  1  -0.242716  -0.423167  -0.000207  3.941968  0.0
C  C73  1  0.33164309  0.00951547  0.60173888  1  -0.242668  -0.423065  -0.000207  3.941936  0.0
C  C74  1  0.85601625  0.83182070  0.07530824  1  -0.241183  -0.417661  1.8e-05  3.970259  0.0
C  C75  1  0.14398296  0.16818338  0.92469129  1  -0.241195  -0.417776  1.8e-05  3.970307  0.0
C  C76  1  0.43637167  0.24266249  0.17241002  1  -0.24157  -0.414552  4.2e-05  3.966131  0.0
C  C77  1  0.56363015  0.75733943  0.82759044  1  -0.241583  -0.414648  4.2e-05  3.966195  0.0
C  C78  1  0.02055353  0.40034768  0.66903581  1  0.230408  0.619682  -0.000785  4.137109  0.0
C  C79  1  0.97945476  0.59964571  0.33096386  1  0.230376  0.619586  -0.000785  4.136926  0.0
C  C80  1  0.92491345  0.37304911  0.74785866  1  -0.030249  -0.195899  -0.002453  3.948074  -0.002
C  C81  1  0.07509358  0.62694860  0.25213915  1  -0.0302  -0.195796  -0.002453  3.947887  -0.002
C  C82  1  0.82552263  0.24592611  0.73639980  1  -0.007855  0.158736  -0.000718  3.996356  -0.001
C  C83  1  0.17448578  0.75407466  0.26360502  1  -0.007815  0.158831  -0.000718  3.99648  -0.001
C  C84  1  0.72934492  0.22620324  0.80948153  1  -0.100541  -0.216248  0.000237  3.921116  0.0
C  C85  1  0.27064363  0.77379550  0.19051705  1  -0.100549  -0.216354  0.000237  3.921264  0.0
C  C86  1  0.73016460  0.32906039  0.89203359  1  -0.014941  0.177657  -0.001236  4.026689  -0.001
C  C87  1  0.26983193  0.67094153  0.10796686  1  -0.014922  0.177761  -0.001236  4.026668  -0.001
C  C88  1  0.83077213  0.45406892  0.90123085  1  -0.106747  -0.235375  0.00015  3.965167  0.0
C  C89  1  0.16922044  0.54593305  0.09876700  1  -0.106735  -0.23539  0.00015  3.965256  0.0
C  C90  1  0.92929019  0.47815488  0.83013977  1  -0.012989  0.152832  -0.001028  4.005682  -0.001
C  C91  1  0.07071425  0.52184601  0.16985923  1  -0.013038  0.152838  -0.001028  4.005745  -0.001
C  C92  1  0.82023914  0.13499018  0.64775092  1  -0.247464  -0.425389  0.000187  3.938667  0.0
C  C93  1  0.17975995  0.86500638  0.35224991  1  -0.247403  -0.42536  0.000187  3.938649  0.0
C  C94  1  0.62996944  0.30374858  0.97025218  1  -0.241859  -0.418861  -4.6e-05  3.967253  0.0
C  C95  1  0.37002709  0.69625341  0.02974504  1  -0.241869  -0.418851  -4.6e-05  3.967124  0.0
C  C96  1  0.03711269  0.61291275  0.84093330  1  -0.2407  -0.413756  -3e-05  3.967293  0.0
C  C97  1  0.96288258  0.38709232  0.15907028  1  -0.240715  -0.413809  -3e-05  3.967331  0.0
O  O98  1  0.57410314  0.32227636  0.40228402  1  -0.300034  -0.557544  0.024235  2.355563  0.027
O  O99  1  0.42590003  0.67772780  0.59771165  1  -0.300123  -0.557652  0.024234  2.355642  0.027
O  O100  1  0.30589698  0.21585289  0.36863124  1  -0.300762  -0.523558  0.001251  2.167836  0.002
O  O101  1  0.69411141  0.78414683  0.63137275  1  -0.300722  -0.523554  0.001252  2.167862  0.002
O  O102  1  0.57854364  0.39827418  0.60043522  1  -0.559758  -0.741366  0.032864  2.117901  0.035
O  O103  1  0.42146202  0.60172028  0.39956398  1  -0.559838  -0.741515  0.032867  2.117808  0.035
O  O104  1  0.24861147  0.41774309  0.50636772  1  -0.549807  -0.764561  3e-06  2.409833  0.0
O  O105  1  0.75139157  0.58225241  0.49363294  1  -0.549755  -0.764361  -4e-06  2.409933  0.0
O  O106  1  0.92264317  0.44958637  0.61541463  1  -0.299778  -0.556356  -0.025555  2.359518  -0.029
O  O107  1  0.07736124  0.55041231  0.38458788  1  -0.299816  -0.556387  -0.025554  2.359651  -0.029
O  O108  1  0.18372499  0.37603165  0.65860986  1  -0.303224  -0.527696  -0.001271  2.160965  -0.002
O  O109  1  0.81628084  0.62397335  0.34139762  1  -0.303209  -0.527627  -0.001272  2.160734  -0.002
O  O110  1  0.91738407  0.29198107  0.42396156  1  -0.560607  -0.738982  -0.031923  2.10364  -0.034
O  O111  1  0.08261765  0.70801443  0.57603910  1  -0.560654  -0.739001  -0.031925  2.103682  -0.034
