# generated using pymatgen
data_ZnH18PdC18(N3O)2
_symmetry_space_group_name_H-M   'P 1'
_cell_length_a   8.15585541
_cell_length_b   8.19311709
_cell_length_c   9.00023179
_cell_angle_alpha   115.78286722
_cell_angle_beta   105.17581191
_cell_angle_gamma   99.61168036
_symmetry_Int_Tables_number   1
_chemical_formula_structural   ZnH18PdC18(N3O)2
_chemical_formula_sum   'Zn1 H18 Pd1 C18 N6 O2'
_cell_volume   494.61390427
_cell_formula_units_Z   1
loop_
 _symmetry_equiv_pos_site_id
 _symmetry_equiv_pos_as_xyz
  1  'x, y, z'
loop_
 _atom_site_type_symbol
 _atom_site_label
 _atom_site_symmetry_multiplicity
 _atom_site_fract_x
 _atom_site_fract_y
 _atom_site_fract_z
 _atom_site_occupancy
 _atom_site_hle17_bader_spin_density
 _atom_site_hle17_ddec_charge
 _atom_site_hle17_ddec_spin_density
 _atom_site_hle17_ddec_sum_bond_order
 _atom_site_hle17_magmom
 _atom_site_hse06_10hf_bader_spin_density
 _atom_site_hse06_10hf_ddec_charge
 _atom_site_hse06_10hf_ddec_spin_density
 _atom_site_hse06_10hf_ddec_sum_bond_order
 _atom_site_hse06_10hf_magmom
 _atom_site_hse06_bader_spin_density
 _atom_site_hse06_ddec_charge
 _atom_site_hse06_ddec_spin_density
 _atom_site_hse06_ddec_sum_bond_order
 _atom_site_hse06_magmom
 _atom_site_pbe_bader_spin_density
 _atom_site_pbe_cm5_charge
 _atom_site_pbe_ddec_charge
 _atom_site_pbe_ddec_spin_density
 _atom_site_pbe_ddec_sum_bond_order
 _atom_site_pbe_magmom
Zn  Zn0  1  0.50000022  0.99999959  0.49999912  1  0  1.012746  0  1.916947  0  0  0.829016  0  2.365433  0  0  0.87234  0  2.317478  0  0  0.715775  0.799112  0  2.39812  0
H  H1  1  0.22036538  0.67375676  0.39951887  1  0  0.377178  0  0.929746  0  0  0.343387  0  1.014066  0  0  0.354758  0  0.997733  0  0  0.293331  0.335455  0  1.023362  0
H  H2  1  0.77963531  0.32624432  0.60048191  1  0  0.377136  0  0.929806  0  0  0.343347  0  1.014123  0  0  0.354718  0  0.997791  0  0  0.293317  0.335414  0  1.023426  0
H  H3  1  0.50862511  0.38305434  0.54469443  1  0  0.073284  0  0.967901  0  0  0.081045  0  1.036502  0  0  0.083099  0  1.034616  0  0  0.115819  0.079541  0  1.03784  0
H  H4  1  0.49137515  0.61694532  0.45530457  1  0  0.073303  0  0.967884  0  0  0.081062  0  1.036488  0  0  0.083117  0  1.034601  0  0  0.115821  0.079557  0  1.037825  0
H  H5  1  0.41678662  0.66569259  0.70267508  1  0  0.108057  0  0.964151  0  0  0.117093  0  1.025669  0  0  0.120136  0  1.025206  0  0  0.106622  0.114843  0  1.026285  0
H  H6  1  0.58321237  0.33430707  0.29732362  1  0  0.108047  0  0.964159  0  0  0.117082  0  1.025674  0  0  0.120125  0  1.025213  0  0  0.106625  0.114833  0  1.026295  0
H  H7  1  0.25787039  0.65833047  0.90821295  1  0  0.094095  0  0.95027  0  0  0.106472  0  1.007614  0  0  0.108062  0  1.00713  0  0  0.105533  0.105329  0  1.007929  0
H  H8  1  0.74213114  0.34166918  0.09178857  1  0  0.094065  0  0.950301  0  0  0.106459  0  1.007632  0  0  0.108048  0  1.007148  0  0  0.105535  0.105311  0  1.007943  0
H  H9  1  0.20077545  0.37055192  0.94155297  1  0  0.112524  0  0.959368  0  0  0.12212  0  1.019686  0  0  0.12457  0  1.020305  0  0  0.103971  0.120416  0  1.019381  0
H  H10  1  0.79922651  0.62944917  0.05844700  1  0  0.112522  0  0.959329  0  0  0.122114  0  1.019652  0  0  0.124565  0  1.020269  0  0  0.103961  0.12041  0  1.019343  0
H  H11  1  0.42309447  0.03542180  0.84128394  1  0  0.104899  0  0.926632  0  0  0.123697  0  0.9808  0  0  0.124734  0  0.981419  0  0  0.102917  0.122926  0  0.98044  0
H  H12  1  0.57690452  0.96457786  0.15871476  1  0  0.104896  0  0.926648  0  0  0.123689  0  0.980819  0  0  0.124726  0  0.981439  0  0  0.102914  0.122919  0  0.980463  0
H  H13  1  0.22523428  0.07244811  0.87597691  1  0  0.072424  0  0.997529  0  0  0.074367  0  1.087833  0  0  0.077581  0  1.083501  0  0  0.071482  0.072069  0  1.090766  0
H  H14  1  0.77476598  0.92755154  0.12402319  1  0  0.072428  0  0.997528  0  0  0.074366  0  1.08783  0  0  0.077582  0  1.083497  0  0  0.071481  0.07207  0  1.090759  0
H  H15  1  0.12756893  0.75557597  0.63495679  1  0  0.046261  0  0.931442  0  0  0.060503  0  0.997385  0  0  0.060407  0  0.997996  0  0  0.095208  0.06053  0  0.996992  0
H  H16  1  0.87243006  0.24442369  0.36504302  1  0  0.046265  0  0.931419  0  0  0.060509  0  0.997363  0  0  0.060413  0  0.997975  0  0  0.095218  0.060538  0  0.996969  0
H  H17  1  0.06676746  0.88918440  0.53020416  1  0  0.041202  0  0.921193  0  0  0.056292  0  0.984915  0  0  0.056974  0  0.984628  0  0  0.092367  0.055671  0  0.985291  0
H  H18  1  0.93323196  0.11081668  0.46979742  1  0  0.041189  0  0.92121  0  0  0.056295  0  0.984919  0  0  0.05698  0  0.984631  0  0  0.092356  0.055676  0  0.985295  0
Pd  Pd19  1  0.00000043  0.00000143  0.00000067  1  0  0.149874  0  3.614529  0  0  0.163735  0  4.142514  0  0  0.164035  0  4.109059  0  0  0.658719  0.165676  0  4.164991  0
C  C20  1  0.44154105  0.38752989  0.63551502  1  0  0.140501  0  3.711018  0  0  0.107493  0  3.962596  0  0  0.114813  0  3.982099  0  0  0.0452  0.102895  0  3.949176  0
C  C21  1  0.55846005  0.61246833  0.36448472  1  0  0.140508  0  3.710946  0  0  0.1075  0  3.962524  0  0  0.11482  0  3.982024  0  0  0.045213  0.102902  0  3.949109  0
C  C22  1  0.38963246  0.54436462  0.72387201  1  0  -0.130886  0  3.728618  0  0  -0.142556  0  3.979583  0  0  -0.151178  0  4.002006  0  0  -0.08852  -0.137033  0  3.964501  0
C  C23  1  0.61036569  0.45563645  0.27613039  1  0  -0.130892  0  3.72858  0  0  -0.142561  0  3.979564  0  0  -0.151184  0  4.001988  0  0  -0.088533  -0.137043  0  3.964493  0
C  C24  1  0.30197914  0.53967267  0.83636116  1  0  0.016282  0  3.726809  0  0  -0.003766  0  3.975442  0  0  0.001319  0  3.993911  0  0  -0.065946  -0.006762  0  3.962687  0
C  C25  1  0.69802238  0.46032698  0.16364036  1  0  0.016355  0  3.726706  0  0  -0.003715  0  3.975342  0  0  0.001371  0  3.99381  0  0  -0.065932  -0.006703  0  3.962572  0
C  C26  1  0.27000172  0.37888422  0.85543093  1  0  -0.166087  0  3.694227  0  0  -0.181931  0  3.936862  0  0  -0.190782  0  3.959609  0  0  -0.085516  -0.176285  0  3.921623  0
C  C27  1  0.72999813  0.62111830  0.14457133  1  0  -0.166099  0  3.694208  0  0  -0.181939  0  3.936844  0  0  -0.190792  0  3.95959  0  0  -0.085505  -0.176297  0  3.921604  0
C  C28  1  0.32887840  0.22747711  0.76490632  1  0  0.267242  0  3.702839  0  0  0.269637  0  3.944719  0  0  0.277635  0  3.966622  0  0  0.122758  0.264347  0  3.929845  0
C  C29  1  0.67112058  0.77252255  0.23509349  1  0  0.267249  0  3.702873  0  0  0.269656  0  3.94473  0  0  0.277654  0  3.966634  0  0  0.122749  0.264362  0  3.929859  0
C  C30  1  0.29488654  0.05232383  0.78290854  1  0  -0.231051  0  3.711667  0  0  -0.274151  0  3.965572  0  0  -0.277959  0  3.976984  0  0  -0.166767  -0.271301  0  3.957567  0
C  C31  1  0.70511244  0.94767582  0.21709126  1  0  -0.231042  0  3.711652  0  0  -0.274136  0  3.965553  0  0  -0.277946  0  3.976967  0  0  -0.166754  -0.271286  0  3.95755  0
C  C32  1  0.18178774  0.86752641  0.60774438  1  0  0.171351  0  3.61522  0  0  0.112174  0  3.888392  0  0  0.119721  0  3.894192  0  0  -0.071902  0.107105  0  3.884248  0
C  C33  1  0.81821040  0.13247467  0.39225580  1  0  0.171356  0  3.615152  0  0  0.112162  0  3.888323  0  0  0.119706  0  3.894129  0  0  -0.071904  0.107092  0  3.884177  0
C  C34  1  0.19690696  0.98287924  0.16958405  1  0  0.077366  0  3.482934  0  0  0.051721  0  3.814867  0  0  0.062128  0  3.822907  0  0  -0.015967  0.044402  0  3.809114  0
C  C35  1  0.80307933  0.01712041  0.83040385  1  0  0.077498  0  3.48408  0  0  0.051868  0  3.815954  0  0  0.062265  0  3.824001  0  0  -0.015763  0.044547  0  3.810202  0
C  C36  1  0.07638404  0.28089979  0.15853252  1  0  0.041099  0  3.537054  0  0  0.015823  0  3.881499  0  0  0.023532  0  3.890323  0  0  -0.025564  0.009383  0  3.87657  0
C  C37  1  0.92361495  0.71909987  0.84146507  1  0  0.041125  0  3.536898  0  0  0.015857  0  3.88133  0  0  0.023561  0  3.890159  0  0  -0.025552  0.009423  0  3.876399  0
N  N38  1  0.41451481  0.23333990  0.65610418  1  0  -0.370595  0  3.207566  0  0  -0.294781  0  3.461041  0  0  -0.314063  0  3.47807  0  0  -0.319041  -0.281762  0  3.449303  0
N  N39  1  0.58548418  0.76665976  0.34389562  1  0  -0.370665  0  3.207533  0  0  -0.294855  0  3.460997  0  0  -0.314136  0  3.478023  0  0  -0.319075  -0.281838  0  3.449268  0
N  N40  1  0.31390177  0.97227973  0.26905788  1  0  -0.42556  0  3.051081  0  0  -0.363032  0  3.34733  0  0  -0.380855  0  3.357596  0  0  -0.359568  -0.351054  0  3.340251  0
N  N41  1  0.68610821  0.02771849  0.73095064  1  0  -0.425609  0  3.052403  0  0  -0.363084  0  3.348631  0  0  -0.380904  0  3.358901  0  0  -0.359713  -0.35112  0  3.34156  0
N  N42  1  0.11982526  0.44738933  0.24803656  1  0  -0.408821  0  2.88903  0  0  -0.358137  0  3.142604  0  0  -0.373105  0  3.155509  0  0  -0.342546  -0.347505  0  3.133319  0
N  N43  1  0.88017329  0.55260890  0.75196147  1  0  -0.408834  0  2.888924  0  0  -0.358146  0  3.142487  0  0  -0.373114  0  3.155392  0  0  -0.342547  -0.347521  0  3.13321  0
O  O44  1  0.29150137  0.80526152  0.50726139  1  0  -0.592117  0  2.226031  0  0  -0.519899  0  2.493032  0  0  -0.539764  0  2.47555  0  0  -0.401146  -0.505647  0  2.502814  0
O  O45  1  0.70849848  0.19474100  0.49273976  1  0  -0.592067  0  2.226007  0  0  -0.51985  0  2.493032  0  0  -0.53971  0  2.475538  0  0  -0.401128  -0.505596  0  2.502819  0
