# generated using pymatgen
data_ErP4H20Ru2(CO5)4
_symmetry_space_group_name_H-M   'P 1'
_cell_length_a   9.45443943
_cell_length_b   9.45696893
_cell_length_c   15.45100000
_cell_angle_alpha   92.88788641
_cell_angle_beta   92.88865971
_cell_angle_gamma   99.03598623
_symmetry_Int_Tables_number   1
_chemical_formula_structural   ErP4H20Ru2(CO5)4
_chemical_formula_sum   'Er2 P8 H40 Ru4 C8 O40'
_cell_volume   1360.21918809
_cell_formula_units_Z   2
loop_
 _symmetry_equiv_pos_site_id
 _symmetry_equiv_pos_as_xyz
  1  'x, y, z'
loop_
 _atom_site_type_symbol
 _atom_site_label
 _atom_site_symmetry_multiplicity
 _atom_site_fract_x
 _atom_site_fract_y
 _atom_site_fract_z
 _atom_site_occupancy
 _atom_site_hle17_bader_charge
 _atom_site_hle17_bader_spin_density
 _atom_site_hle17_ddec_charge
 _atom_site_hle17_ddec_spin_density
 _atom_site_hle17_ddec_sum_bond_order
 _atom_site_hle17_magmom
 _atom_site_pbe_bader_charge
 _atom_site_pbe_bader_spin_density
 _atom_site_pbe_cm5_charge
 _atom_site_pbe_ddec_charge
 _atom_site_pbe_ddec_spin_density
 _atom_site_pbe_ddec_sum_bond_order
 _atom_site_pbe_magmom
Er  Er0  1  0.99230574  0.00756601  0.74995456  1  2.291836  -0.000185  2.364187  -0.000426  1.551451  0.0  2.21303  -0.000176  1.5211  2.276192  -0.000438  1.888417  0.0
Er  Er1  1  0.00768747  0.99243297  0.25003989  1  2.291925  -0.000185  2.36422  -0.000423  1.551396  0.0  2.213117  -0.000175  1.52112  2.276227  -0.000433  1.888344  0.0
P  P2  1  0.05980232  0.34443567  0.64195798  1  3.218338  0.001279  1.348226  -0.001054  4.920873  0.003  3.243156  0.003132  0.31712  1.159318  0.0024  5.455289  0.005
P  P3  1  0.65549276  0.94014557  0.85800377  1  3.218932  0.001264  1.348588  -0.001063  4.920576  0.003  3.243002  0.003138  0.317051  1.159821  0.002399  5.45525  0.005
P  P4  1  0.94019553  0.65555258  0.35804081  1  3.218615  0.001266  1.348316  -0.00106  4.920812  0.003  3.243416  0.003132  0.317107  1.15942  0.002401  5.455354  0.005
P  P5  1  0.34451253  0.05987593  0.14199110  1  3.218605  0.00128  1.348242  -0.001051  4.921408  0.003  3.243118  0.003139  0.31688  1.159268  0.0024  5.455905  0.005
P  P6  1  0.99497657  0.65053396  0.65956108  1  3.271619  0.001342  1.369505  -0.000956  4.896424  0.003  3.300889  0.003192  0.325998  1.1852  0.002593  5.42777  0.005
P  P7  1  0.34937531  0.00502291  0.84045927  1  3.270535  0.001361  1.369065  -0.000932  4.896636  0.003  3.302026  0.003187  0.325628  1.184818  0.002594  5.428054  0.005
P  P8  1  0.00502088  0.34946501  0.34044450  1  3.271567  0.001362  1.369492  -0.000934  4.89644  0.003  3.300874  0.003192  0.326027  1.185182  0.002592  5.427754  0.005
P  P9  1  0.65062766  0.99500395  0.15953052  1  3.269964  0.001339  1.369294  -0.00096  4.896697  0.003  3.301909  0.003188  0.325775  1.18486  0.002593  5.428079  0.005
H  H10  1  0.82324194  0.44074512  0.72287994  1  0.625014  5.3e-05  0.383508  2.5e-05  0.824991  0.0  0.615774  0.000322  0.33171  0.362505  0.000263  0.884531  0.0
H  H11  1  0.55913725  0.17666316  0.77710690  1  0.625644  4.7e-05  0.383605  1.8e-05  0.825102  0.0  0.614973  0.000321  0.331739  0.362596  0.000263  0.884567  0.0
H  H12  1  0.17676991  0.55923133  0.27712669  1  0.625493  4.7e-05  0.383663  1.9e-05  0.824806  0.0  0.61552  0.00032  0.331669  0.362464  0.000262  0.884566  0.0
H  H13  1  0.44085942  0.82335083  0.22288877  1  0.625792  5.4e-05  0.383659  2.5e-05  0.825116  0.0  0.61515  0.00032  0.331751  0.362716  0.000262  0.884521  0.0
H  H14  1  0.41956073  0.68934327  0.53679874  1  0.643111  0.000377  0.426055  -1.9e-05  0.812699  0.0  0.633959  0.000574  0.333176  0.409206  0.000123  0.866461  0.001
H  H15  1  0.31056033  0.58048350  0.96332638  1  0.642998  0.000371  0.425643  -1.8e-05  0.812901  0.0  0.633887  0.000574  0.332889  0.408693  0.000123  0.866809  0.001
H  H16  1  0.58032764  0.31069539  0.46323189  1  0.642364  0.000372  0.426318  -1.8e-05  0.812435  0.0  0.634828  0.000573  0.333253  0.409323  0.000122  0.866346  0.001
H  H17  1  0.68944511  0.41950582  0.03674194  1  0.642659  0.000378  0.426067  -1.9e-05  0.812769  0.0  0.63334  0.000574  0.333112  0.409124  0.000123  0.866677  0.001
H  H18  1  0.39959665  0.52369984  0.54089204  1  0.64868  0.000301  0.436254  -4e-05  0.806568  0.0  0.638782  0.0006  0.324016  0.407899  0.000155  0.879025  0.0
H  H19  1  0.47623144  0.60053868  0.95911053  1  0.649574  0.000294  0.436014  -4.5e-05  0.807115  0.0  0.639843  0.0006  0.324062  0.407797  0.000155  0.879247  0.0
H  H20  1  0.60052934  0.47632810  0.45898378  1  0.648439  0.000295  0.436531  -4.4e-05  0.806487  0.0  0.635354  0.000602  0.324175  0.408235  0.000157  0.878782  0.0
H  H21  1  0.52377867  0.39935411  0.04102291  1  0.650016  0.000302  0.435929  -3.8e-05  0.807355  0.0  0.635604  0.000601  0.323984  0.40764  0.000156  0.879618  0.0
H  H22  1  0.82990835  0.13962362  0.61931669  1  0.669614  -0.000116  0.443548  -0.000344  0.84928  0.0  0.655693  5.8e-05  0.30073  0.409296  -0.000141  0.915882  0.0
H  H23  1  0.86038553  0.16995629  0.88065016  1  0.670717  -0.000115  0.44349  -0.000341  0.849421  0.0  0.656689  5.7e-05  0.300498  0.409034  -0.000141  0.91627  0.0
H  H24  1  0.17009105  0.86037429  0.38068439  1  0.669578  -0.000115  0.443594  -0.000342  0.849212  0.0  0.655593  5.7e-05  0.300731  0.409317  -0.000142  0.915845  0.0
H  H25  1  0.13964194  0.83003839  0.11935622  1  0.670182  -0.000116  0.443337  -0.000345  0.849612  0.0  0.657328  5.7e-05  0.30046  0.408971  -0.000142  0.916352  0.0
H  H26  1  0.71294574  0.07459500  0.68310795  1  0.655983  6e-06  0.423383  -3e-06  0.879869  0.0  0.643849  2.5e-05  0.29455  0.384806  1.5e-05  0.955053  0.0
H  H27  1  0.92538937  0.28687974  0.81683558  1  0.656911  6e-06  0.423544  -3e-06  0.879659  0.0  0.644447  2.5e-05  0.294678  0.384881  1.5e-05  0.954885  0.0
H  H28  1  0.28704902  0.92541363  0.31689915  1  0.65604  6e-06  0.423395  -3e-06  0.87986  0.0  0.643956  2.5e-05  0.294502  0.384754  1.5e-05  0.955169  0.0
H  H29  1  0.07464111  0.71311387  0.18317410  1  0.657558  7e-06  0.423563  -3e-06  0.879619  0.0  0.644821  2.5e-05  0.294671  0.384943  1.5e-05  0.954826  0.0
H  H30  1  0.11958703  0.89821826  0.91337535  1  0.663407  6.6e-05  0.441413  -9.1e-05  0.84779  0.0  0.650899  0.000141  0.307634  0.406948  -8e-05  0.914573  0.0
H  H31  1  0.10171516  0.88026965  0.58660122  1  0.663019  5.2e-05  0.441916  -0.000104  0.847063  0.0  0.649562  0.00014  0.308011  0.407541  -8e-05  0.9137  0.0
H  H32  1  0.88041394  0.10174317  0.08659553  1  0.663595  5e-05  0.441372  -0.000106  0.847868  0.0  0.649067  0.000141  0.307708  0.406798  -7.9e-05  0.91476  0.0
H  H33  1  0.89826291  0.11972075  0.41338926  1  0.663076  6.4e-05  0.441949  -9.3e-05  0.847015  0.0  0.649931  0.000141  0.307988  0.407584  -7.9e-05  0.913668  0.0
H  H34  1  0.94927334  0.86752842  0.91418624  1  0.627218  7e-06  0.449042  2e-06  0.800317  0.0  0.618207  1.4e-05  0.33308  0.426223  -3e-06  0.858451  0.0
H  H35  1  0.13223045  0.05053372  0.58567404  1  0.629309  5e-06  0.448821  0.0  0.799807  0.0  0.620163  1.5e-05  0.332992  0.425953  -3e-06  0.858113  0.0
H  H36  1  0.05071539  0.13236973  0.08574542  1  0.627326  5e-06  0.449136  0.0  0.799994  0.0  0.618237  1.5e-05  0.333022  0.426283  -3e-06  0.858191  0.0
H  H37  1  0.86774396  0.94944702  0.41431085  1  0.629079  7e-06  0.448983  2e-06  0.799863  0.0  0.619893  1.5e-05  0.332991  0.426113  -3e-06  0.858148  0.0
H  H38  1  0.17025597  0.43871901  0.82280704  1  0.018572  0.000163  0.125415  6.7e-05  0.926383  0.0  0.077323  0.000298  0.101762  0.144969  0.00012  0.985341  0.0
H  H39  1  0.56111724  0.82974022  0.67719025  1  0.019917  0.00016  0.12564  6.5e-05  0.926567  0.0  0.078437  0.000298  0.101626  0.14496  0.00012  0.985735  0.0
H  H40  1  0.82975156  0.56127674  0.17719034  1  0.01864  0.000161  0.125356  6.5e-05  0.92639  0.0  0.077472  0.000297  0.101702  0.1449  0.000119  0.98536  0.0
H  H41  1  0.43888135  0.17027914  0.32281017  1  0.020258  0.000163  0.12566  6.7e-05  0.926358  0.0  0.078321  0.000298  0.101608  0.144961  0.000119  0.985577  0.0
H  H42  1  0.14154371  0.62343835  0.82844040  1  -0.012107  1.6e-05  0.126496  -3.6e-05  0.936237  0.0  0.083877  0.000165  0.097779  0.142228  2.1e-05  1.001802  0.0
H  H43  1  0.37633619  0.85847152  0.67157370  1  -0.014251  1.8e-05  0.126608  -3.5e-05  0.936164  0.0  0.084237  0.000165  0.097745  0.14222  2.1e-05  1.001784  0.0
H  H44  1  0.85846914  0.37655097  0.17155825  1  -0.012218  1.8e-05  0.126547  -3.4e-05  0.936179  0.0  0.083878  0.000166  0.097809  0.142235  2.2e-05  1.001759  0.0
H  H45  1  0.62366896  0.14154247  0.32842611  1  -0.01433  1.7e-05  0.12652  -3.6e-05  0.936114  0.0  0.0842  0.000166  0.097729  0.142174  2.1e-05  1.00176  0.0
H  H46  1  0.25813590  0.56331573  0.75257576  1  -0.039343  7.8e-05  0.116372  1.7e-05  0.943727  0.0  0.059146  0.000301  0.099128  0.138234  0.000149  1.002451  0.0
H  H47  1  0.43648643  0.74190417  0.74744061  1  -0.039205  8.3e-05  0.116453  2e-05  0.943874  0.0  0.058783  0.000301  0.099259  0.138401  0.000149  1.002421  0.0
H  H48  1  0.74187043  0.43667252  0.24742265  1  -0.039361  8.2e-05  0.116438  1.9e-05  0.943684  0.0  0.059406  0.000303  0.09916  0.138339  0.00015  1.002354  0.0
H  H49  1  0.56351889  0.25811089  0.25256313  1  -0.039216  7.8e-05  0.11639  1.7e-05  0.943866  0.0  0.05855  0.000303  0.099242  0.138291  0.00015  1.002517  0.0
Ru  Ru50  1  0.12226344  0.54244110  0.49755255  1  1.322144  1.383701  0.988693  1.445775  3.191229  1.36  1.276284  1.331514  0.78054  0.89058  1.401545  3.800315  1.312
Ru  Ru51  1  0.45751651  0.87778018  0.00245901  1  1.319354  1.390025  0.989558  1.452987  3.190572  1.367  1.276323  1.331692  0.780313  0.890127  1.401702  3.800886  1.312
Ru  Ru52  1  0.87773988  0.45754822  0.50245162  1  1.320399  1.389594  0.990408  1.452572  3.190088  1.367  1.272843  1.331602  0.780552  0.89059  1.401731  3.80036  1.311
Ru  Ru53  1  0.54247476  0.12221987  0.99753348  1  1.321911  1.383318  0.988996  1.445186  3.19121  1.36  1.273231  1.331382  0.78029  0.890171  1.401446  3.80067  1.311
C  C54  1  0.03314903  0.49428959  0.71838864  1  -0.372538  -0.001292  -0.176882  -0.001823  3.65711  -0.002  -0.391495  4.3e-05  0.050623  -0.136029  -0.000896  3.908365  -0.001
C  C55  1  0.50559585  0.96682610  0.78159140  1  -0.371834  -0.00131  -0.17651  -0.001846  3.656689  -0.002  -0.393094  4.8e-05  0.050868  -0.136368  -0.000892  3.909096  -0.001
C  C56  1  0.96685145  0.50570188  0.28160969  1  -0.37202  -0.001309  -0.176811  -0.001845  3.657007  -0.002  -0.391471  4.3e-05  0.050681  -0.136062  -0.000896  3.908405  -0.001
C  C57  1  0.49441259  0.03320184  0.21840183  1  -0.371795  -0.00129  -0.177106  -0.001819  3.657832  -0.002  -0.392794  4.6e-05  0.050939  -0.136133  -0.000893  3.90886  -0.001
C  C58  1  0.15869920  0.53251648  0.78536379  1  0.155037  0.000799  -0.300464  0.000594  3.694764  0.001  -0.124686  0.001249  -0.235715  -0.386442  0.000919  3.936113  0.001
C  C59  1  0.46729460  0.84129838  0.71463342  1  0.155196  0.000778  -0.300927  0.000581  3.695176  0.001  -0.125133  0.001249  -0.235609  -0.386454  0.00092  3.936594  0.001
C  C60  1  0.84130746  0.46747391  0.21463211  1  0.154729  0.00078  -0.300643  0.000582  3.694691  0.001  -0.125099  0.001251  -0.235727  -0.386512  0.000921  3.935975  0.001
C  C61  1  0.53270666  0.15871775  0.28536764  1  0.154922  0.000802  -0.300459  0.000595  3.694906  0.001  -0.124953  0.001251  -0.235585  -0.386277  0.000921  3.936278  0.001
O  O62  1  0.18137788  0.39953001  0.58196808  1  -1.350232  0.02404  -0.731369  0.012755  2.034699  0.015  -1.338412  0.037786  -0.368955  -0.649338  0.022842  2.315295  0.024
O  O63  1  0.60040334  0.81862717  0.91801048  1  -1.348941  0.025176  -0.730508  0.013531  2.034012  0.016  -1.33834  0.037769  -0.368732  -0.649241  0.022836  2.315433  0.024
O  O64  1  0.81861789  0.60045180  0.41802786  1  -1.349464  0.025069  -0.730852  0.013448  2.034119  0.016  -1.338619  0.037776  -0.369029  -0.649501  0.02284  2.315524  0.024
O  O65  1  0.39959786  0.18140183  0.08198903  1  -1.349751  0.023889  -0.731484  0.012655  2.035215  0.015  -1.338878  0.037742  -0.36863  -0.649234  0.022818  2.315666  0.024
O  O66  1  0.91328646  0.30505682  0.58611356  1  -1.358816  0.030951  -0.769054  0.017678  2.120847  0.022  -1.347544  0.037146  -0.367169  -0.680862  0.02308  2.404176  0.023
O  O67  1  0.69496738  0.08660579  0.91385396  1  -1.35915  0.030177  -0.769523  0.017179  2.121652  0.021  -1.347084  0.037148  -0.366988  -0.680611  0.023063  2.40411  0.023
O  O68  1  0.08670009  0.69493357  0.41388689  1  -1.359162  0.030259  -0.769618  0.017229  2.121563  0.021  -1.34773  0.037126  -0.367089  -0.680879  0.023062  2.404181  0.023
O  O69  1  0.30504161  0.91341892  0.08614177  1  -1.358694  0.030992  -0.768578  0.017708  2.121172  0.022  -1.346972  0.037142  -0.36698  -0.680419  0.023059  2.404449  0.023
O  O70  1  0.09052155  0.22138991  0.69393392  1  -1.459806  -0.002799  -0.872126  -0.003534  2.02218  -0.003  -1.446207  -0.001074  -0.432451  -0.788843  -0.001777  2.294102  -0.001
O  O71  1  0.77851321  0.90938279  0.80598299  1  -1.459893  -0.002816  -0.872364  -0.003556  2.022017  -0.003  -1.446244  -0.001075  -0.432531  -0.789225  -0.001777  2.294186  -0.001
O  O72  1  0.90948157  0.77860478  0.30606394  1  -1.459935  -0.002815  -0.872248  -0.003556  2.021996  -0.003  -1.446198  -0.001076  -0.432483  -0.788908  -0.001778  2.293867  -0.001
O  O73  1  0.22147857  0.09062047  0.19401478  1  -1.459729  -0.0028  -0.872176  -0.003534  2.021939  -0.003  -1.446434  -0.001076  -0.432577  -0.789125  -0.001778  2.294174  -0.001
O  O74  1  0.12090198  0.69160427  0.59833124  1  -1.356667  0.024571  -0.765552  0.013468  2.093424  0.016  -1.346186  0.034073  -0.363861  -0.679114  0.020861  2.37476  0.021
O  O75  1  0.30829937  0.87914879  0.90169700  1  -1.355745  0.025313  -0.764739  0.013962  2.09273  0.017  -1.346228  0.034107  -0.36378  -0.678756  0.020887  2.374711  0.021
O  O76  1  0.87909247  0.30839577  0.40167170  1  -1.356017  0.025218  -0.765066  0.013898  2.092846  0.017  -1.346121  0.03409  -0.363903  -0.679115  0.020875  2.37486  0.021
O  O77  1  0.69170042  0.12087807  0.09829657  1  -1.356671  0.024527  -0.765509  0.013447  2.093504  0.016  -1.346874  0.034115  -0.363999  -0.678889  0.020883  2.374811  0.021
O  O78  1  0.85252022  0.59450968  0.60431366  1  -1.337525  0.032512  -0.72238  0.018322  2.011909  0.023  -1.327382  0.041505  -0.367865  -0.646908  0.025397  2.293354  0.027
O  O79  1  0.40543304  0.14743417  0.89569986  1  -1.337994  0.031434  -0.723205  0.017614  2.012936  0.022  -1.327331  0.041512  -0.367742  -0.646854  0.025404  2.293499  0.027
O  O80  1  0.14747585  0.40548071  0.39568967  1  -1.337918  0.031525  -0.723071  0.017674  2.012806  0.022  -1.327558  0.041497  -0.367864  -0.646872  0.025387  2.293451  0.027
O  O81  1  0.59456515  0.85259591  0.10429506  1  -1.337129  0.032626  -0.722097  0.018394  2.012224  0.023  -1.327114  0.041509  -0.367679  -0.646698  0.025395  2.293766  0.027
O  O82  1  0.98199954  0.77050891  0.72470768  1  -1.452876  -0.002859  -0.881046  -0.003614  2.02194  -0.003  -1.441023  -0.001198  -0.452023  -0.808114  -0.001912  2.304719  -0.002
O  O83  1  0.22937208  0.01802477  0.77531127  1  -1.452665  -0.002849  -0.880683  -0.003604  2.022166  -0.003  -1.441791  -0.001197  -0.451869  -0.80784  -0.001912  2.305136  -0.002
O  O84  1  0.01800303  0.22948899  0.27529414  1  -1.452982  -0.002851  -0.88109  -0.003607  2.021821  -0.003  -1.440944  -0.001199  -0.452071  -0.808176  -0.001912  2.304625  -0.002
O  O85  1  0.77063204  0.98198278  0.22468249  1  -1.452553  -0.002862  -0.880834  -0.003618  2.022066  -0.003  -1.441601  -0.001199  -0.451906  -0.807929  -0.001913  2.305029  -0.002
O  O86  1  0.90540743  0.44469009  0.76467129  1  -1.106615  0.002197  -0.494097  0.00139  2.046275  0.002  -1.086912  0.003631  -0.360086  -0.429959  0.002237  2.240748  0.003
O  O87  1  0.55520596  0.09453540  0.73530484  1  -1.106871  0.002218  -0.494308  0.001405  2.04636  0.002  -1.085796  0.003629  -0.3603  -0.430042  0.002236  2.241056  0.003
O  O88  1  0.09460542  0.55529923  0.23533512  1  -1.107159  0.002215  -0.494105  0.001403  2.045993  0.002  -1.08677  0.003628  -0.36003  -0.429855  0.002236  2.240733  0.003
O  O89  1  0.44480002  0.90549038  0.26468242  1  -1.106687  0.002193  -0.494408  0.001387  2.046801  0.002  -1.085754  0.003626  -0.3603  -0.430232  0.002234  2.241182  0.003
O  O90  1  0.38314497  0.60012037  0.50290697  1  -1.238759  0.001743  -0.747372  -0.001517  1.80735  -0.004  -1.214987  0.005862  -0.550157  -0.693772  0.002028  1.990631  -0.002
O  O91  1  0.39985649  0.61693312  0.99715931  1  -1.23963  0.001709  -0.746998  -0.001471  1.808038  -0.004  -1.216102  0.005858  -0.549857  -0.693071  0.002023  1.991128  -0.002
O  O92  1  0.61678200  0.39996763  0.49706424  1  -1.238099  0.001731  -0.748266  -0.001466  1.8071  -0.004  -1.212532  0.005857  -0.550392  -0.694269  0.002032  1.990289  -0.002
O  O93  1  0.60012893  0.38310982  0.00291845  1  -1.239674  0.001735  -0.747101  -0.001526  1.807879  -0.004  -1.211191  0.005852  -0.550045  -0.693421  0.002022  1.991307  -0.002
O  O94  1  0.80175515  0.05765890  0.65564918  1  -1.314634  -0.000273  -0.922432  -0.000371  1.84321  0.0  -1.292866  0.000281  -0.645894  -0.875492  9e-05  2.037797  0.0
O  O95  1  0.94231713  0.19807515  0.84426834  1  -1.316401  -0.000259  -0.922622  -0.000355  1.843423  0.0  -1.294539  0.000282  -0.645807  -0.875349  9.1e-05  2.038636  0.0
O  O96  1  0.19824262  0.94234866  0.34435991  1  -1.314705  -0.00026  -0.922438  -0.000356  1.843108  0.0  -1.292889  0.00028  -0.645848  -0.875449  8.9e-05  2.037708  0.0
O  O97  1  0.05772057  0.80192382  0.15574560  1  -1.3165  -0.000274  -0.922496  -0.000372  1.843681  0.0  -1.295525  0.00028  -0.645781  -0.875365  8.9e-05  2.038613  0.0
O  O98  1  0.03040114  0.93561176  0.89805226  1  -1.264431  0.000324  -0.877986  0.000151  1.849421  0.0  -1.244777  0.000476  -0.614264  -0.830643  0.000193  2.047288  0.0
O  O99  1  0.06426031  0.96940137  0.60191362  1  -1.266085  0.000294  -0.878275  0.000133  1.848677  0.0  -1.245422  0.000475  -0.614539  -0.830959  0.000192  2.046456  0.0
O  O100  1  0.96958804  0.06434217  0.10193485  1  -1.26479  0.00029  -0.878129  0.000131  1.849237  0.0  -1.243064  0.000477  -0.614318  -0.830563  0.000194  2.047285  0.0
O  O101  1  0.93571920  0.03058473  0.39808324  1  -1.265824  0.000321  -0.87841  0.000149  1.848669  0.0  -1.245522  0.000477  -0.614517  -0.831163  0.000194  2.046429  0.0
