# generated using pymatgen
data_CdH18C18S2(NO)4
_symmetry_space_group_name_H-M   'P 1'
_cell_length_a   5.93345586
_cell_length_b   10.12904647
_cell_length_c   17.32149119
_cell_angle_alpha   89.99914161
_cell_angle_beta   98.13136934
_cell_angle_gamma   90.00020904
_symmetry_Int_Tables_number   1
_chemical_formula_structural   CdH18C18S2(NO)4
_chemical_formula_sum   'Cd2 H36 C36 S4 N8 O8'
_cell_volume   1030.55985892
_cell_formula_units_Z   2
loop_
 _symmetry_equiv_pos_site_id
 _symmetry_equiv_pos_as_xyz
  1  'x, y, z'
loop_
 _atom_site_type_symbol
 _atom_site_label
 _atom_site_symmetry_multiplicity
 _atom_site_fract_x
 _atom_site_fract_y
 _atom_site_fract_z
 _atom_site_occupancy
 _atom_site_hle17_bader_spin_density
 _atom_site_hle17_ddec_charge
 _atom_site_hle17_ddec_spin_density
 _atom_site_hle17_ddec_sum_bond_order
 _atom_site_hle17_magmom
 _atom_site_hse06_10hf_bader_spin_density
 _atom_site_hse06_10hf_ddec_charge
 _atom_site_hse06_10hf_ddec_spin_density
 _atom_site_hse06_10hf_ddec_sum_bond_order
 _atom_site_hse06_10hf_magmom
 _atom_site_hse06_bader_spin_density
 _atom_site_hse06_ddec_charge
 _atom_site_hse06_ddec_spin_density
 _atom_site_hse06_ddec_sum_bond_order
 _atom_site_hse06_magmom
 _atom_site_pbe_bader_spin_density
 _atom_site_pbe_cm5_charge
 _atom_site_pbe_ddec_charge
 _atom_site_pbe_ddec_spin_density
 _atom_site_pbe_ddec_sum_bond_order
 _atom_site_pbe_magmom
Cd  Cd0  1  0.99999259  0.99999744  0.00000132  1  0  0.94603  0  1.988375  0  0  0.759936  0  2.453839  0  0  0.80447  0  2.418104  0  0  0.724018  0.729357  0  2.478016  0
Cd  Cd1  1  0.00000856  0.50000122  0.50000166  1  0  0.946071  0  1.988442  0  0  0.760002  0  2.453882  0  0  0.804532  0  2.418147  0  0  0.724046  0.729428  0  2.478048  0
H  H2  1  0.75513915  0.05990753  0.15010046  1  0  0.089042  0  0.967392  0  0  0.0951  0  1.034939  0  0  0.097512  0  1.032403  0  0  0.116014  0.093298  0  1.036988  0
H  H3  1  0.24487753  0.55992833  0.34989846  1  0  0.08916  0  0.967326  0  0  0.095119  0  1.034971  0  0  0.097533  0  1.032434  0  0  0.11606  0.093321  0  1.037022  0
H  H4  1  0.24489981  0.94007523  0.84990971  1  0  0.089125  0  0.967329  0  0  0.095043  0  1.035004  0  0  0.097455  0  1.032469  0  0  0.115986  0.093254  0  1.037049  0
H  H5  1  0.75510632  0.44007516  0.65009784  1  0  0.089073  0  0.967352  0  0  0.095052  0  1.034974  0  0  0.097466  0  1.032436  0  0  0.116014  0.093254  0  1.03702  0
H  H6  1  0.32864574  0.22817132  0.07946560  1  0  0.090341  0  0.952064  0  0  0.094772  0  1.021933  0  0  0.097366  0  1.019358  0  0  0.119959  0.092861  0  1.02386  0
H  H7  1  0.67134663  0.72817104  0.42053430  1  0  0.090484  0  0.951928  0  0  0.094863  0  1.021826  0  0  0.097457  0  1.019255  0  0  0.119995  0.092953  0  1.023746  0
H  H8  1  0.67136540  0.77183513  0.92053300  1  0  0.090358  0  0.951916  0  0  0.094746  0  1.021863  0  0  0.097338  0  1.019293  0  0  0.11993  0.092835  0  1.023781  0
H  H9  1  0.32864293  0.27183640  0.57947321  1  0  0.090425  0  0.951877  0  0  0.094722  0  1.021932  0  0  0.097314  0  1.01936  0  0  0.119934  0.092812  0  1.02385  0
H  H10  1  0.79049446  0.19877021  0.27026140  1  0  0.108723  0  0.960306  0  0  0.113715  0  1.027032  0  0  0.116925  0  1.026845  0  0  0.103  0.111321  0  1.027574  0
H  H11  1  0.20950259  0.69880156  0.22973453  1  0  0.108653  0  0.960466  0  0  0.113639  0  1.027189  0  0  0.11685  0  1.027  0  0  0.102905  0.111229  0  1.027735  0
H  H12  1  0.20954440  0.80121748  0.72974702  1  0  0.108851  0  0.960262  0  0  0.113813  0  1.027019  0  0  0.117025  0  1.026826  0  0  0.103016  0.111357  0  1.027618  0
H  H13  1  0.79047265  0.30120686  0.77025967  1  0  0.108764  0  0.960386  0  0  0.113735  0  1.027126  0  0  0.116947  0  1.026936  0  0  0.102954  0.111298  0  1.027701  0
H  H14  1  0.11482696  0.36127602  0.29456284  1  0  0.104231  0  0.952305  0  0  0.110642  0  1.021197  0  0  0.113174  0  1.019068  0  0  0.111465  0.108782  0  1.022694  0
H  H15  1  0.88516266  0.86130167  0.20543256  1  0  0.104365  0  0.952342  0  0  0.110771  0  1.021208  0  0  0.113299  0  1.019084  0  0  0.11159  0.108909  0  1.022701  0
H  H16  1  0.88520310  0.63871562  0.70544002  1  0  0.104034  0  0.952278  0  0  0.11044  0  1.021206  0  0  0.112969  0  1.019079  0  0  0.111403  0.108578  0  1.0227  0
H  H17  1  0.11481293  0.13871268  0.79456801  1  0  0.104267  0  0.952302  0  0  0.110664  0  1.021194  0  0  0.113193  0  1.019067  0  0  0.111527  0.1088  0  1.022693  0
H  H18  1  0.62436232  0.62035120  0.14532135  1  0  0.048929  0  0.951507  0  0  0.060914  0  1.02146  0  0  0.060088  0  1.022085  0  0  0.094275  0.061313  0  1.021365  0
H  H19  1  0.37566363  0.12035091  0.35468453  1  0  0.048944  0  0.951488  0  0  0.060909  0  1.021511  0  0  0.060087  0  1.022146  0  0  0.094297  0.061313  0  1.021424  0
H  H20  1  0.37565573  0.37964340  0.85467928  1  0  0.048942  0  0.951542  0  0  0.060828  0  1.021568  0  0  0.060008  0  1.022202  0  0  0.094239  0.061237  0  1.021472  0
H  H21  1  0.62433399  0.87964072  0.64531524  1  0  0.048888  0  0.951559  0  0  0.060825  0  1.021595  0  0  0.060005  0  1.022228  0  0  0.094245  0.061234  0  1.0215  0
H  H22  1  0.82785253  0.50640946  0.19145884  1  0  0.040956  0  0.961294  0  0  0.053813  0  1.029923  0  0  0.052561  0  1.031926  0  0  0.09404  0.054692  0  1.028466  0
H  H23  1  0.17215895  0.00642027  0.30854473  1  0  0.040867  0  0.96139  0  0  0.053787  0  1.029987  0  0  0.052538  0  1.031996  0  0  0.094084  0.054668  0  1.028529  0
H  H24  1  0.17217718  0.49358613  0.80853766  1  0  0.040901  0  0.961406  0  0  0.053721  0  1.030037  0  0  0.052475  0  1.032046  0  0  0.094043  0.054605  0  1.028581  0
H  H25  1  0.82782345  0.99357828  0.69145613  1  0  0.040953  0  0.961342  0  0  0.053798  0  1.029984  0  0  0.052552  0  1.031992  0  0  0.094109  0.054683  0  1.028524  0
H  H26  1  0.95889358  0.58594544  0.06983014  1  0  0.108513  0  0.961322  0  0  0.130878  0  1.021999  0  0  0.131357  0  1.023248  0  0  0.085489  0.130542  0  1.020994  0
H  H27  1  0.04109627  0.08594369  0.43017186  1  0  0.108554  0  0.961337  0  0  0.130903  0  1.022039  0  0  0.131382  0  1.023288  0  0  0.085499  0.130569  0  1.021039  0
H  H28  1  0.04111548  0.41405608  0.93016144  1  0  0.108528  0  0.961259  0  0  0.130886  0  1.021972  0  0  0.131363  0  1.023223  0  0  0.085511  0.130551  0  1.020975  0
H  H29  1  0.95886725  0.91405585  0.56982531  1  0  0.108497  0  0.961318  0  0  0.130875  0  1.021998  0  0  0.131357  0  1.023243  0  0  0.08551  0.130536  0  1.020999  0
H  H30  1  0.69508841  0.54286946  0.01358847  1  0  0.112681  0  0.953474  0  0  0.131183  0  1.016854  0  0  0.132794  0  1.016709  0  0  0.089295  0.129957  0  1.017018  0
H  H31  1  0.30489287  0.04286348  0.48641731  1  0  0.11271  0  0.953398  0  0  0.131193  0  1.016789  0  0  0.132805  0  1.016644  0  0  0.089263  0.129956  0  1.016968  0
H  H32  1  0.30490565  0.45713797  0.98640826  1  0  0.112634  0  0.95346  0  0  0.131193  0  1.01679  0  0  0.132805  0  1.016641  0  0  0.089312  0.129976  0  1.016947  0
H  H33  1  0.69506920  0.95713705  0.51358442  1  0  0.11257  0  0.953421  0  0  0.131111  0  1.016778  0  0  0.132721  0  1.016635  0  0  0.089275  0.129873  0  1.016955  0
H  H34  1  0.87990717  0.41694733  0.05706517  1  0  0.101032  0  0.972422  0  0  0.116903  0  1.043365  0  0  0.117766  0  1.044975  0  0  0.082575  0.116219  0  1.042332  0
H  H35  1  0.12008649  0.91694389  0.44293531  1  0  0.101029  0  0.972331  0  0  0.11689  0  1.043288  0  0  0.117751  0  1.0449  0  0  0.082578  0.116214  0  1.042244  0
H  H36  1  0.12009511  0.58305320  0.94292670  1  0  0.101048  0  0.972332  0  0  0.116913  0  1.043304  0  0  0.117772  0  1.044917  0  0  0.082622  0.116235  0  1.042264  0
H  H37  1  0.87988550  0.08305367  0.55706165  1  0  0.101053  0  0.972373  0  0  0.116923  0  1.04331  0  0  0.117783  0  1.044923  0  0  0.0826  0.116241  0  1.042275  0
C  C38  1  0.47949253  0.14470298  0.94115812  1  0  0.318254  0  3.990021  0  0  0.298207  0  4.29265  0  0  0.320809  0  4.305167  0  0  0.153823  0.282868  0  4.284067  0
C  C39  1  0.52050758  0.64470276  0.55883759  1  0  0.318146  0  3.989639  0  0  0.298097  0  4.292286  0  0  0.320705  0  4.304809  0  0  0.153746  0.282759  0  4.283685  0
C  C40  1  0.52050689  0.85529162  0.05884345  1  0  0.318287  0  3.989859  0  0  0.298237  0  4.292494  0  0  0.320841  0  4.305016  0  0  0.153823  0.282895  0  4.283899  0
C  C41  1  0.47950180  0.35529974  0.44115978  1  0  0.318193  0  3.989537  0  0  0.298145  0  4.292179  0  0  0.320752  0  4.304702  0  0  0.153768  0.282809  0  4.283583  0
C  C42  1  0.89383927  0.13058542  0.16283453  1  0  0.143701  0  3.661913  0  0  0.106799  0  3.917885  0  0  0.116234  0  3.933456  0  0  0.054424  0.100572  0  3.90736  0
C  C43  1  0.10616603  0.63059937  0.33716512  1  0  0.143644  0  3.661731  0  0  0.106751  0  3.917837  0  0  0.116187  0  3.933406  0  0  0.054329  0.100517  0  3.907305  0
C  C44  1  0.10618755  0.86940918  0.83717109  1  0  0.143552  0  3.662113  0  0  0.10679  0  3.918081  0  0  0.116226  0  3.933656  0  0  0.054385  0.100544  0  3.907554  0
C  C45  1  0.89382311  0.36940806  0.66283486  1  0  0.143635  0  3.662094  0  0  0.106788  0  3.918137  0  0  0.116223  0  3.93371  0  0  0.054381  0.100556  0  3.907599  0
C  C46  1  0.21362751  0.22513734  0.12318259  1  0  0.142827  0  3.653242  0  0  0.099101  0  3.904787  0  0  0.109547  0  3.920346  0  0  0.063568  0.092388  0  3.894264  0
C  C47  1  0.78635949  0.72514620  0.37681251  1  0  0.142618  0  3.653124  0  0  0.09896  0  3.904643  0  0  0.109407  0  3.920206  0  0  0.063513  0.092241  0  3.894121  0
C  C48  1  0.78637837  0.77486022  0.87681290  1  0  0.142946  0  3.653088  0  0  0.099218  0  3.904668  0  0  0.109662  0  3.920232  0  0  0.063652  0.092508  0  3.894137  0
C  C49  1  0.21361607  0.27485432  0.62318748  1  0  0.14273  0  3.653078  0  0  0.099085  0  3.904723  0  0  0.109533  0  3.920284  0  0  0.063554  0.092367  0  3.8942  0
C  C50  1  0.91390539  0.20873474  0.22964360  1  0  -0.110872  0  3.70678  0  0  -0.119797  0  3.957874  0  0  -0.127809  0  3.977774  0  0  -0.07901  -0.114636  0  3.944465  0
C  C51  1  0.08610036  0.70874907  0.27035485  1  0  -0.11079  0  3.706747  0  0  -0.119713  0  3.957795  0  0  -0.127724  0  3.977693  0  0  -0.078898  -0.114535  0  3.944379  0
C  C52  1  0.08612477  0.79126381  0.77036099  1  0  -0.111051  0  3.706842  0  0  -0.119991  0  3.95791  0  0  -0.128007  0  3.977812  0  0  -0.078973  -0.11477  0  3.944531  0
C  C53  1  0.91387667  0.29125343  0.72964116  1  0  -0.110861  0  3.706912  0  0  -0.119795  0  3.957961  0  0  -0.127811  0  3.977865  0  0  -0.078902  -0.114591  0  3.944558  0
C  C54  1  0.24245201  0.30974236  0.18764328  1  0  -0.115162  0  3.751956  0  0  -0.089293  0  3.985609  0  0  -0.102307  0  4.008201  0  0  -0.007525  -0.080982  0  3.970554  0
C  C55  1  0.75754743  0.80975455  0.31235160  1  0  -0.115214  0  3.751692  0  0  -0.089428  0  3.985327  0  0  -0.102454  0  4.007927  0  0  -0.007655  -0.08113  0  3.970279  0
C  C56  1  0.75756746  0.69025817  0.81235220  1  0  -0.115525  0  3.752315  0  0  -0.089643  0  3.985947  0  0  -0.102664  0  4.00855  0  0  -0.007636  -0.081344  0  3.970899  0
C  C57  1  0.24244191  0.19025486  0.68765185  1  0  -0.115219  0  3.752043  0  0  -0.089374  0  3.985748  0  0  -0.102396  0  4.008352  0  0  -0.007537  -0.081074  0  3.970695  0
C  C58  1  0.09185030  0.29904721  0.24271919  1  0  0.00045  0  3.668719  0  0  -0.026659  0  3.911449  0  0  -0.020118  0  3.927978  0  0  -0.052006  -0.030576  0  3.899905  0
C  C59  1  0.90815418  0.79906368  0.25727608  1  0  0.000304  0  3.668479  0  0  -0.026745  0  3.911196  0  0  -0.020205  0  3.927728  0  0  -0.05213  -0.030674  0  3.899671  0
C  C60  1  0.90818830  0.70094542  0.75728461  1  0  0.000949  0  3.668464  0  0  -0.026133  0  3.91117  0  0  -0.019589  0  3.927702  0  0  -0.051905  -0.030063  0  3.899651  0
C  C61  1  0.09182462  0.20093882  0.74272116  1  0  0.000409  0  3.66864  0  0  -0.02662  0  3.91135  0  0  -0.020081  0  3.92789  0  0  -0.052092  -0.030528  0  3.899783  0
C  C62  1  0.42282701  0.41297614  0.19747846  1  0  0.579498  0  3.840225  0  0  0.528221  0  4.135115  0  0  0.561748  0  4.127992  0  0  0.23431  0.505435  0  4.139698  0
C  C63  1  0.57716323  0.91298245  0.30252194  1  0  0.579436  0  3.839996  0  0  0.528346  0  4.134696  0  0  0.561853  0  4.127565  0  0  0.234412  0.505569  0  4.13927  0
C  C64  1  0.57719756  0.58702339  0.80251724  1  0  0.579523  0  3.840344  0  0  0.528304  0  4.135205  0  0  0.561801  0  4.128088  0  0  0.234371  0.505524  0  4.139784  0
C  C65  1  0.42281091  0.08701907  0.69748319  1  0  0.579549  0  3.840092  0  0  0.528219  0  4.135132  0  0  0.56173  0  4.128016  0  0  0.234307  0.505461  0  4.139687  0
C  C66  1  0.70617907  0.52452088  0.13865253  1  0  0.149949  0  3.614048  0  0  0.091596  0  3.886186  0  0  0.101621  0  3.892121  0  0  -0.074607  0.084816  0  3.881969  0
C  C67  1  0.29382076  0.02452746  0.36135316  1  0  0.150022  0  3.613788  0  0  0.091617  0  3.88609  0  0  0.101588  0  3.89206  0  0  -0.07464  0.08483  0  3.881879  0
C  C68  1  0.29384219  0.47547767  0.86134477  1  0  0.150072  0  3.61395  0  0  0.091924  0  3.885986  0  0  0.10189  0  3.891962  0  0  -0.07449  0.085129  0  3.881788  0
C  C69  1  0.70614989  0.97547504  0.63865009  1  0  0.150065  0  3.613751  0  0  0.091732  0  3.886023  0  0  0.101712  0  3.891997  0  0  -0.074591  0.084948  0  3.881814  0
C  C70  1  0.81529728  0.51666942  0.06540070  1  0  -0.325989  0  3.709457  0  0  -0.401421  0  3.955253  0  0  -0.404907  0  3.965049  0  0  -0.253295  -0.398701  0  3.94833  0
C  C71  1  0.18469217  0.01666964  0.43460236  1  0  -0.326043  0  3.709239  0  0  -0.401408  0  3.95504  0  0  -0.404887  0  3.964843  0  0  -0.25328  -0.398679  0  3.948131  0
C  C72  1  0.18471014  0.48333406  0.93459197  1  0  -0.325988  0  3.709206  0  0  -0.401459  0  3.954975  0  0  -0.404937  0  3.964789  0  0  -0.25337  -0.398747  0  3.948055  0
C  C73  1  0.81527497  0.98333384  0.56539901  1  0  -0.325851  0  3.709198  0  0  -0.401303  0  3.955005  0  0  -0.404778  0  3.964803  0  0  -0.253278  -0.398568  0  3.948097  0
S  S74  1  0.72810462  0.19612742  0.92453061  1  0  -0.333404  0  2.129391  0  0  -0.302281  0  2.450418  0  0  -0.317815  0  2.442687  0  0  -0.141171  -0.291443  0  2.455515  0
S  S75  1  0.27190764  0.69612017  0.57546367  1  0  -0.333291  0  2.12969  0  0  -0.302149  0  2.450704  0  0  -0.317683  0  2.442973  0  0  -0.141149  -0.291319  0  2.455781  0
S  S76  1  0.27190158  0.80386718  0.07547067  1  0  -0.333376  0  2.129473  0  0  -0.302262  0  2.450502  0  0  -0.317794  0  2.442772  0  0  -0.141186  -0.291432  0  2.4556  0
S  S77  1  0.72810004  0.30387936  0.42453363  1  0  -0.33332  0  2.12962  0  0  -0.30219  0  2.450628  0  0  -0.317722  0  2.442898  0  0  -0.141155  -0.291362  0  2.455731  0
N  N78  1  0.04354042  0.13715179  0.11141783  1  0  -0.327737  0  3.282323  0  0  -0.248304  0  3.548041  0  0  -0.269477  0  3.567979  0  0  -0.326404  -0.233863  0  3.534266  0
N  N79  1  0.95645118  0.63716258  0.38857883  1  0  -0.327711  0  3.282274  0  0  -0.248239  0  3.547892  0  0  -0.269411  0  3.567829  0  0  -0.32633  -0.233797  0  3.534117  0
N  N80  1  0.95646909  0.86284380  0.88858186  1  0  -0.327758  0  3.282482  0  0  -0.248286  0  3.548115  0  0  -0.269458  0  3.568054  0  0  -0.32641  -0.233837  0  3.534338  0
N  N81  1  0.04353800  0.36284584  0.61142174  1  0  -0.327713  0  3.28243  0  0  -0.248257  0  3.548066  0  0  -0.269428  0  3.568003  0  0  -0.326382  -0.233815  0  3.534289  0
N  N82  1  0.70356886  0.89022487  0.04747212  1  0  -0.546184  0  2.8686  0  0  -0.486489  0  3.140763  0  0  -0.507835  0  3.147192  0  0  -0.393093  -0.472159  0  3.136255  0
N  N83  1  0.29642475  0.39023586  0.45253051  1  0  -0.546233  0  2.868207  0  0  -0.486526  0  3.140361  0  0  -0.507871  0  3.146785  0  0  -0.393097  -0.472198  0  3.135855  0
N  N84  1  0.29644254  0.10976875  0.95253112  1  0  -0.546159  0  2.868854  0  0  -0.486462  0  3.140994  0  0  -0.507806  0  3.147425  0  0  -0.393097  -0.472133  0  3.136495  0
N  N85  1  0.70358797  0.60976960  0.54746584  1  0  -0.546166  0  2.868271  0  0  -0.48647  0  3.140436  0  0  -0.507819  0  3.146863  0  0  -0.393055  -0.472143  0  3.135928  0
O  O86  1  0.53066252  0.42275415  0.13421156  1  0  -0.331442  0  2.279726  0  0  -0.254089  0  2.515395  0  0  -0.277258  0  2.515431  0  0  -0.163695  -0.238182  0  2.514969  0
O  O87  1  0.46932286  0.92274922  0.36579195  1  0  -0.3314  0  2.279403  0  0  -0.254178  0  2.515145  0  0  -0.277274  0  2.515143  0  0  -0.163732  -0.238259  0  2.514701  0
O  O88  1  0.46936391  0.57724242  0.86578711  1  0  -0.331443  0  2.279588  0  0  -0.254199  0  2.515272  0  0  -0.277286  0  2.515275  0  0  -0.163735  -0.238287  0  2.514843  0
O  O89  1  0.53063080  0.07724143  0.63421116  1  0  -0.33152  0  2.279564  0  0  -0.254139  0  2.515261  0  0  -0.277262  0  2.515281  0  0  -0.163724  -0.238245  0  2.514834  0
O  O90  1  0.46507306  0.48287299  0.25551245  1  0  -0.521409  0  1.966269  0  0  -0.483501  0  2.191134  0  0  -0.504246  0  2.186333  0  0  -0.273426  -0.469215  0  2.194208  0
O  O91  1  0.53490445  0.98289146  0.24449499  1  0  -0.521342  0  1.966413  0  0  -0.483532  0  2.191284  0  0  -0.504262  0  2.186452  0  0  -0.273438  -0.469241  0  2.194342  0
O  O92  1  0.53493982  0.51712359  0.74448680  1  0  -0.521378  0  1.966395  0  0  -0.483498  0  2.191276  0  0  -0.504233  0  2.186459  0  0  -0.273474  -0.469211  0  2.194344  0
O  O93  1  0.46507500  0.01711598  0.75551382  1  0  -0.521435  0  1.96615  0  0  -0.483526  0  2.191136  0  0  -0.504251  0  2.1863  0  0  -0.273472  -0.469253  0  2.194202  0
