# generated using pymatgen
data_NaBH16C12(SN2)3
_symmetry_space_group_name_H-M   'P 1'
_cell_length_a   7.95785509
_cell_length_b   10.04968293
_cell_length_c   11.35542411
_cell_angle_alpha   79.67819137
_cell_angle_beta   82.44467281
_cell_angle_gamma   70.58228884
_symmetry_Int_Tables_number   1
_chemical_formula_structural   NaBH16C12(SN2)3
_chemical_formula_sum   'Na2 B2 H32 C24 S6 N12'
_cell_volume   840.08751830
_cell_formula_units_Z   2
loop_
 _symmetry_equiv_pos_site_id
 _symmetry_equiv_pos_as_xyz
  1  'x, y, z'
loop_
 _atom_site_type_symbol
 _atom_site_label
 _atom_site_symmetry_multiplicity
 _atom_site_fract_x
 _atom_site_fract_y
 _atom_site_fract_z
 _atom_site_occupancy
 _atom_site_hle17_bader_spin_density
 _atom_site_hle17_ddec_charge
 _atom_site_hle17_ddec_spin_density
 _atom_site_hle17_ddec_sum_bond_order
 _atom_site_hle17_magmom
 _atom_site_hse06_10hf_bader_spin_density
 _atom_site_hse06_10hf_ddec_charge
 _atom_site_hse06_10hf_ddec_spin_density
 _atom_site_hse06_10hf_ddec_sum_bond_order
 _atom_site_hse06_10hf_magmom
 _atom_site_hse06_bader_spin_density
 _atom_site_hse06_ddec_charge
 _atom_site_hse06_ddec_spin_density
 _atom_site_hse06_ddec_sum_bond_order
 _atom_site_hse06_magmom
 _atom_site_pbe_bader_spin_density
 _atom_site_pbe_cm5_charge
 _atom_site_pbe_ddec_charge
 _atom_site_pbe_ddec_spin_density
 _atom_site_pbe_ddec_sum_bond_order
 _atom_site_pbe_magmom
Na  Na0  1  0.19222913  0.54356560  0.54668006  1  0  0.818068  0  0.421503  0  0  0.754921  0  0.584374  0  0  0.766165  0  0.567703  0  0  0.416874  0.746902  0  0.596246  0
Na  Na1  1  0.80777066  0.45643436  0.45331974  1  0  0.818069  0  0.421495  0  0  0.754912  0  0.584387  0  0  0.766153  0  0.567719  0  0  0.416874  0.746892  0  0.596257  0
B  B2  1  0.25939689  0.36809357  0.28610140  1  0  0.5823  0  3.126613  0  0  0.410222  0  3.431517  0  0  0.431152  0  3.428499  0  0  -0.07594  0.396237  0  3.43315  0
B  B3  1  0.74060162  0.63190640  0.71389851  1  0  0.582256  0  3.126649  0  0  0.410147  0  3.431548  0  0  0.431077  0  3.428529  0  0  -0.075956  0.396168  0  3.433176  0
H  H4  1  0.35399473  0.41686183  0.03415625  1  0  0.096794  0  0.975409  0  0  0.105313  0  1.044842  0  0  0.107667  0  1.044044  0  0  0.115776  0.103406  0  1.04589  0
H  H5  1  0.64600589  0.58313599  0.96584380  1  0  0.096812  0  0.975393  0  0  0.105336  0  1.044819  0  0  0.107694  0  1.044007  0  0  0.115805  0.103443  0  1.045851  0
H  H6  1  0.14999653  0.34296432  0.88963868  1  0  0.113775  0  0.982413  0  0  0.119604  0  1.054248  0  0  0.122937  0  1.052417  0  0  0.110694  0.117217  0  1.055545  0
H  H7  1  0.85000450  0.65703244  0.11036327  1  0  0.113791  0  0.9824  0  0  0.119592  0  1.054266  0  0  0.122947  0  1.052417  0  0  0.110698  0.117208  0  1.055558  0
H  H8  1  0.85607189  0.16208456  0.09793676  1  0  0.100731  0  0.964784  0  0  0.114908  0  1.03809  0  0  0.116351  0  1.03772  0  0  0.098112  0.113711  0  1.038622  0
H  H9  1  0.14392408  0.83791541  0.90206338  1  0  0.100759  0  0.964723  0  0  0.114922  0  1.038045  0  0  0.116364  0  1.037674  0  0  0.098111  0.113725  0  1.03857  0
H  H10  1  0.95134986  0.18402652  0.94489665  1  0  0.100557  0  0.949959  0  0  0.120393  0  1.013048  0  0  0.121287  0  1.012738  0  0  0.103599  0.119476  0  1.013844  0
H  H11  1  0.04864781  0.81597238  0.05510262  1  0  0.100598  0  0.949931  0  0  0.120406  0  1.013051  0  0  0.121299  0  1.012741  0  0  0.103618  0.119482  0  1.013853  0
H  H12  1  0.76943587  0.32413844  0.99969898  1  0  0.094275  0  0.942595  0  0  0.11286  0  1.011417  0  0  0.113145  0  1.011939  0  0  0.098665  0.112548  0  1.011242  0
H  H13  1  0.23056435  0.67586365  0.00030045  1  0  0.09427  0  0.942614  0  0  0.112863  0  1.011435  0  0  0.113147  0  1.011957  0  0  0.098662  0.112548  0  1.011259  0
H  H14  1  0.44455779  0.13262748  0.15447125  1  0  0.100322  0  0.971804  0  0  0.112561  0  1.029047  0  0  0.115063  0  1.028123  0  0  0.115826  0.110892  0  1.029319  0
H  H15  1  0.55544371  0.86737779  0.84552932  1  0  0.100296  0  0.971784  0  0  0.112526  0  1.029044  0  0  0.115029  0  1.02812  0  0  0.115797  0.110855  0  1.029313  0
H  H16  1  0.71304388  0.91883008  0.27744784  1  0  0.111431  0  0.996534  0  0  0.119426  0  1.064157  0  0  0.122615  0  1.061973  0  0  0.105211  0.116999  0  1.06596  0
H  H17  1  0.28696059  0.08117412  0.72255088  1  0  0.111367  0  0.996589  0  0  0.119382  0  1.064185  0  0  0.122569  0  1.062001  0  0  0.105206  0.116953  0  1.065992  0
H  H18  1  0.85491506  0.05015615  0.49984984  1  0  0.097586  0  0.961367  0  0  0.119857  0  1.025497  0  0  0.120594  0  1.025371  0  0  0.098419  0.119218  0  1.025749  0
H  H19  1  0.14508555  0.94984167  0.50015285  1  0  0.097608  0  0.96135  0  0  0.119867  0  1.025479  0  0  0.120604  0  1.025352  0  0  0.098414  0.119227  0  1.025729  0
H  H20  1  0.84070918  0.88606360  0.46691370  1  0  0.106248  0  0.969385  0  0  0.122994  0  1.040913  0  0  0.124494  0  1.040045  0  0  0.098706  0.121634  0  1.041934  0
H  H21  1  0.15928807  0.11393636  0.53308720  1  0  0.10625  0  0.969408  0  0  0.123  0  1.04092  0  0  0.124501  0  1.040052  0  0  0.098704  0.121639  0  1.041941  0
H  H22  1  0.69167328  0.97611676  0.58068808  1  0  0.097277  0  0.980677  0  0  0.112648  0  1.052704  0  0  0.112918  0  1.053907  0  0  0.098296  0.111968  0  1.052645  0
H  H23  1  0.30832397  0.02388320  0.41931282  1  0  0.097287  0  0.980698  0  0  0.112645  0  1.052722  0  0  0.112916  0  1.053924  0  0  0.098276  0.111963  0  1.052662  0
H  H24  1  0.59201102  0.43197119  0.21010251  1  0  0.107994  0  0.993827  0  0  0.110064  0  1.069611  0  0  0.113546  0  1.067956  0  0  0.112349  0.107425  0  1.071036  0
H  H25  1  0.40798749  0.56802877  0.78989740  1  0  0.10793  0  0.993897  0  0  0.110042  0  1.069638  0  0  0.113524  0  1.067984  0  0  0.112334  0.107406  0  1.071053  0
H  H26  1  0.54993018  0.72233842  0.17637074  1  0  0.112594  0  0.960782  0  0  0.124798  0  1.017772  0  0  0.12735  0  1.016575  0  0  0.122039  0.123026  0  1.018475  0
H  H27  1  0.45007298  0.27765940  0.82362821  1  0  0.112595  0  0.96077  0  0  0.124803  0  1.017757  0  0  0.127353  0  1.01656  0  0  0.122026  0.123031  0  1.018461  0
H  H28  1  0.17777534  0.94601716  0.14260616  1  0  0.092533  0  0.927843  0  0  0.117692  0  0.983499  0  0  0.118212  0  0.983281  0  0  0.09987  0.117001  0  0.98377  0
H  H29  1  0.82222572  0.05398279  0.85739264  1  0  0.092541  0  0.927802  0  0  0.117685  0  0.983469  0  0  0.118204  0  0.983253  0  0  0.099859  0.116995  0  0.983738  0
H  H30  1  0.29564806  0.92526435  0.27235056  1  0  0.100876  0  0.972251  0  0  0.117278  0  1.044485  0  0  0.118124  0  1.044873  0  0  0.102314  0.116245  0  1.044653  0
H  H31  1  0.70435217  0.07473774  0.72764622  1  0  0.10085  0  0.972292  0  0  0.117267  0  1.044515  0  0  0.118115  0  1.044891  0  0  0.102317  0.116235  0  1.044684  0
H  H32  1  0.07500978  0.91193879  0.28928375  1  0  0.114665  0  0.957405  0  0  0.130287  0  1.028079  0  0  0.131774  0  1.027683  0  0  0.103504  0.128991  0  1.02844  0
H  H33  1  0.92499255  0.08806116  0.71071406  1  0  0.114651  0  0.95736  0  0  0.130267  0  1.028038  0  0  0.131752  0  1.027644  0  0  0.103504  0.12897  0  1.028401  0
H  H34  1  0.15636194  0.37108518  0.37445745  1  0  -0.264475  0  1.02088  0  0  -0.228945  0  1.129955  0  0  -0.232637  0  1.127935  0  0  0.051099  -0.22641  0  1.13113  0
H  H35  1  0.84363615  0.62891585  0.62554321  1  0  -0.264455  0  1.020889  0  0  -0.228922  0  1.129963  0  0  -0.232615  0  1.127941  0  0  0.051105  -0.226391  0  1.131145  0
C  C36  1  0.24243020  0.37586566  0.05777766  1  0  -0.022592  0  3.751072  0  0  -0.067406  0  4.024066  0  0  -0.064146  0  4.041782  0  0  -0.002007  -0.069526  0  4.012455  0
C  C37  1  0.75757125  0.62413003  0.94222353  1  0  -0.022584  0  3.751142  0  0  -0.067407  0  4.024146  0  0  -0.064145  0  4.04187  0  0  -0.00204  -0.069535  0  4.012522  0
C  C38  1  0.14701644  0.33705636  0.98647267  1  0  -0.071016  0  3.717842  0  0  -0.112867  0  3.982667  0  0  -0.11052  0  4.000225  0  0  -0.009865  -0.114435  0  3.970966  0
C  C39  1  0.85298544  0.66293827  0.01352601  1  0  -0.071053  0  3.717901  0  0  -0.112876  0  3.982754  0  0  -0.11055  0  4.0003  0  0  -0.00983  -0.11445  0  3.971051  0
C  C40  1  0.03574168  0.30004569  0.17935523  1  0  0.328385  0  3.76324  0  0  0.287612  0  4.047381  0  0  0.309625  0  4.057364  0  0  0.218817  0.273146  0  4.039409  0
C  C41  1  0.96425767  0.69995214  0.82064582  1  0  0.328419  0  3.76322  0  0  0.287646  0  4.047356  0  0  0.309665  0  4.057323  0  0  0.218849  0.273172  0  4.039389  0
C  C42  1  0.89162625  0.23666856  0.02379600  1  0  -0.157354  0  3.65694  0  0  -0.259607  0  3.905259  0  0  -0.255685  0  3.913135  0  0  -0.13483  -0.262134  0  3.900447  0
C  C43  1  0.10837269  0.76333034  0.97620404  1  0  -0.157404  0  3.656905  0  0  -0.259642  0  3.905253  0  0  -0.255717  0  3.913126  0  0  -0.134838  -0.262164  0  3.900432  0
C  C44  1  0.49678210  0.12771147  0.23900303  1  0  -0.03807  0  3.763675  0  0  -0.080021  0  4.02743  0  0  -0.077165  0  4.044559  0  0  -0.006048  -0.081079  0  4.015112  0
C  C45  1  0.50322066  0.87229061  0.76099617  1  0  -0.038074  0  3.763608  0  0  -0.080025  0  4.027379  0  0  -0.077172  0  4.04451  0  0  -0.006066  -0.08108  0  4.015053  0
C  C46  1  0.62756877  0.02221252  0.29855762  1  0  -0.062561  0  3.733654  0  0  -0.105087  0  3.99787  0  0  -0.101598  0  4.013928  0  0  -0.006854  -0.107464  0  3.987625  0
C  C47  1  0.37243188  0.97779169  0.70144231  1  0  -0.062459  0  3.733404  0  0  -0.104987  0  3.997637  0  0  -0.101495  0  4.013694  0  0  -0.006795  -0.10737  0  3.987393  0
C  C48  1  0.52096528  0.20290637  0.40864265  1  0  0.348651  0  3.711869  0  0  0.309305  0  3.98932  0  0  0.330707  0  3.999102  0  0  0.2238  0.295037  0  3.982137  0
C  C49  1  0.47903280  0.79709465  0.59135978  1  0  0.348666  0  3.712017  0  0  0.309293  0  3.989499  0  0  0.330698  0  3.999278  0  0  0.22385  0.295031  0  3.982303  0
C  C50  1  0.76446306  0.99045581  0.49311628  1  0  -0.161035  0  3.63268  0  0  -0.265716  0  3.877534  0  0  -0.262  0  3.885321  0  0  -0.139187  -0.267915  0  3.872631  0
C  C51  1  0.23553545  0.00954415  0.50688539  1  0  -0.1611  0  3.632751  0  0  -0.265734  0  3.877525  0  0  -0.262026  0  3.885323  0  0  -0.139159  -0.267932  0  3.872611  0
C  C52  1  0.47275480  0.52373211  0.21732647  1  0  -0.02405  0  3.731505  0  0  -0.066087  0  4.000463  0  0  -0.062901  0  4.016704  0  0  0.004315  -0.068249  0  3.989968  0
C  C53  1  0.52724709  0.47626571  0.78267347  1  0  -0.024045  0  3.731719  0  0  -0.066142  0  4.000651  0  0  -0.062961  0  4.016894  0  0  0.004284  -0.068308  0  3.99015  0
C  C54  1  0.45354967  0.66573592  0.20199483  1  0  -0.06332  0  3.717968  0  0  -0.100534  0  3.975031  0  0  -0.098023  0  3.992399  0  0  -0.00276  -0.10202  0  3.96304  0
C  C55  1  0.54645180  0.33426297  0.79800499  1  0  -0.06324  0  3.718045  0  0  -0.100466  0  3.975124  0  0  -0.097949  0  3.992491  0  0  -0.002733  -0.101953  0  3.963134  0
C  C56  1  0.18570435  0.63934451  0.26983713  1  0  0.306193  0  3.773055  0  0  0.264176  0  4.060132  0  0  0.28511  0  4.070405  0  0  0.213386  0.250267  0  4.052791  0
C  C57  1  0.81429629  0.36065651  0.73016243  1  0  0.306354  0  3.773004  0  0  0.264237  0  4.060161  0  0  0.285174  0  4.070435  0  0  0.213378  0.250323  0  4.052827  0
C  C58  1  0.20191297  0.88915378  0.23412546  1  0  -0.163925  0  3.649089  0  0  -0.269243  0  3.899808  0  0  -0.265697  0  3.907763  0  0  -0.134492  -0.271048  0  3.893799  0
C  C59  1  0.79808768  0.11084724  0.76587233  1  0  -0.163829  0  3.649095  0  0  -0.269134  0  3.899763  0  0  -0.265583  0  3.907725  0  0  -0.134464  -0.270939  0  3.893756  0
S  S60  1  0.90505939  0.25322997  0.29765238  1  0  -0.547257  0  1.976552  0  0  -0.530852  0  2.306788  0  0  -0.545513  0  2.301786  0  0  -0.253083  -0.519312  0  2.308747  0
S  S61  1  0.09493913  0.74676999  0.70234753  1  0  -0.54727  0  1.976518  0  0  -0.530846  0  2.306699  0  0  -0.54552  0  2.301691  0  0  -0.253074  -0.519306  0  2.308655  0
S  S62  1  0.50125039  0.30089614  0.51964955  1  0  -0.591575  0  1.897452  0  0  -0.5738  0  2.224436  0  0  -0.588424  0  2.218909  0  0  -0.263749  -0.56411  0  2.230354  0
S  S63  1  0.49874812  0.69910382  0.48035300  1  0  -0.591635  0  1.897538  0  0  -0.573873  0  2.224563  0  0  -0.588494  0  2.219036  0  0  -0.263806  -0.56419  0  2.230477  0
S  S64  1  0.96764849  0.67613112  0.32393309  1  0  -0.587121  0  1.944116  0  0  -0.570965  0  2.274523  0  0  -0.583787  0  2.264932  0  0  -0.236012  -0.561249  0  2.280253  0
S  S65  1  0.03235173  0.32387096  0.67606634  1  0  -0.587117  0  1.944087  0  0  -0.570957  0  2.274548  0  0  -0.583772  0  2.264949  0  0  -0.235998  -0.561241  0  2.280288  0
N  N66  1  0.17458121  0.35306767  0.17624162  1  0  -0.317027  0  3.446625  0  0  -0.214068  0  3.680287  0  0  -0.233336  0  3.699341  0  0  -0.230385  -0.201236  0  3.666947  0
N  N67  1  0.82541899  0.64693122  0.82375918  1  0  -0.317028  0  3.446635  0  0  -0.214043  0  3.680264  0  0  -0.23331  0  3.699308  0  0  -0.230389  -0.201218  0  3.666934  0
N  N68  1  0.02103069  0.28930446  0.06212590  1  0  -0.084689  0  3.563003  0  0  0.017717  0  3.777852  0  0  0.00117  0  3.803455  0  0  -0.254237  0.028771  0  3.760347  0
N  N69  1  0.97897203  0.71069122  0.93787430  1  0  -0.084728  0  3.563045  0  0  0.017675  0  3.777903  0  0  0.001126  0  3.803504  0  0  -0.254333  0.028734  0  3.760385  0
N  N70  1  0.42996709  0.23873171  0.30714659  1  0  -0.316884  0  3.442559  0  0  -0.20911  0  3.669867  0  0  -0.228263  0  3.689076  0  0  -0.229657  -0.196051  0  3.656222  0
N  N71  1  0.57003186  0.76127038  0.69285471  1  0  -0.316855  0  3.442672  0  0  -0.209065  0  3.669987  0  0  -0.228218  0  3.689197  0  0  -0.229629  -0.19601  0  3.656331  0
N  N72  1  0.63998493  0.06876819  0.40335756  1  0  -0.063793  0  3.542944  0  0  0.038931  0  3.754169  0  0  0.022987  0  3.779131  0  0  -0.248577  0.049048  0  3.737315  0
N  N73  1  0.36001570  0.93123282  0.59664376  1  0  -0.063762  0  3.542892  0  0  0.038923  0  3.754179  0  0  0.022978  0  3.779139  0  0  -0.248613  0.049039  0  3.737319  0
N  N74  1  0.30735362  0.50824406  0.25840280  1  0  -0.317693  0  3.485464  0  0  -0.214409  0  3.717514  0  0  -0.232398  0  3.735557  0  0  -0.232589  -0.20267  0  3.705299  0
N  N75  1  0.69264490  0.49175590  0.74159799  1  0  -0.317688  0  3.485474  0  0  -0.2143  0  3.717461  0  0  -0.232288  0  3.735503  0  0  -0.232561  -0.202562  0  3.705251  0
N  N76  1  0.27633560  0.73650304  0.23371267  1  0  -0.076816  0  3.570939  0  0  0.025173  0  3.785  0  0  0.009125  0  3.810916  0  0  -0.251383  0.035785  0  3.767016  0
N  N77  1  0.72366587  0.26349585  0.76628627  1  0  -0.077046  0  3.57109  0  0  0.024957  0  3.785212  0  0  0.0089  0  3.81113  0  0  -0.251404  0.035569  0  3.767234  0
