# generated using pymatgen
data_CoH12C14S3(NO)6
_symmetry_space_group_name_H-M   'P 1'
_cell_length_a   8.44725333
_cell_length_b   9.71862365
_cell_length_c   12.92227226
_cell_angle_alpha   109.43793371
_cell_angle_beta   92.32372649
_cell_angle_gamma   107.11351758
_symmetry_Int_Tables_number   1
_chemical_formula_structural   CoH12C14S3(NO)6
_chemical_formula_sum   'Co2 H24 C28 S6 N12 O12'
_cell_volume   944.74954626
_cell_formula_units_Z   2
loop_
 _symmetry_equiv_pos_site_id
 _symmetry_equiv_pos_as_xyz
  1  'x, y, z'
loop_
 _atom_site_type_symbol
 _atom_site_label
 _atom_site_symmetry_multiplicity
 _atom_site_fract_x
 _atom_site_fract_y
 _atom_site_fract_z
 _atom_site_occupancy
 _atom_site_hle17_ddec_charge
 _atom_site_hle17_ddec_spin_density
 _atom_site_hle17_ddec_sum_bond_order
 _atom_site_hle17_magmom
 _atom_site_hse06_10hf_ddec_charge
 _atom_site_hse06_10hf_ddec_spin_density
 _atom_site_hse06_10hf_ddec_sum_bond_order
 _atom_site_hse06_10hf_magmom
 _atom_site_hse06_ddec_charge
 _atom_site_hse06_ddec_spin_density
 _atom_site_hse06_ddec_sum_bond_order
 _atom_site_hse06_magmom
 _atom_site_pbe_cm5_charge
 _atom_site_pbe_ddec_charge
 _atom_site_pbe_ddec_spin_density
 _atom_site_pbe_ddec_sum_bond_order
 _atom_site_pbe_magmom
Co  Co0  1  0.82397942  0.81777578  0.66660715  1  0.863182  -2.837186  2.042351  -2.529  0.797171  -2.820406  2.488189  -2.585  0.894843  -2.868605  2.398418  -2.679  0.663492  0.721975  -2.774812  2.554936  -2.496
Co  Co1  1  0.17602273  0.18223378  0.33339588  1  0.863322  -2.837178  2.042158  -2.529  0.797233  -2.820392  2.488057  -2.585  0.894901  -2.868597  2.398293  -2.679  0.663543  0.72203  -2.774792  2.554809  -2.496
H  H2  1  0.99396664  0.78734591  0.47925927  1  0.084602  -0.001021  0.971024  -0.002  0.084421  -0.001076  1.052065  -0.002  0.08723  -0.00075  1.04875  -0.001  0.11156  0.082289  -0.001403  1.054621  -0.002
H  H3  1  0.00602947  0.21265675  0.52074267  1  0.084618  -0.001023  0.970951  -0.002  0.084419  -0.001076  1.052022  -0.002  0.087221  -0.00075  1.048723  -0.001  0.111556  0.082284  -0.001403  1.054577  -0.002
H  H4  1  0.16059740  0.98392165  0.65411978  1  0.086692  -0.00069  0.964045  -0.002  0.0911  -0.000766  1.035456  -0.002  0.093126  -0.000536  1.033492  -0.001  0.114128  0.089539  -0.000997  1.037163  -0.002
H  H5  1  0.83940050  0.01607287  0.34587789  1  0.086696  -0.00069  0.964036  -0.002  0.091126  -0.000765  1.035432  -0.002  0.093157  -0.000536  1.033457  -0.001  0.114141  0.08956  -0.000997  1.037145  -0.002
H  H6  1  0.95105353  0.82443521  0.89487389  1  0.076021  -0.000383  0.968779  -0.001  0.078335  -0.000316  1.042693  -0.001  0.080297  -0.000166  1.041345  -0.001  0.109777  0.07682  -0.000462  1.043951  -0.001
H  H7  1  0.04895467  0.17556156  0.10512462  1  0.076088  -0.000382  0.96881  -0.001  0.078426  -0.000316  1.042635  -0.001  0.080398  -0.000166  1.041282  -0.001  0.109832  0.076904  -0.000462  1.043915  -0.001
H  H8  1  0.80075958  0.31781518  0.25144987  1  0.106028  -7.4e-05  0.962279  -0.001  0.114018  5.9e-05  1.029416  0.0  0.116283  6.8e-05  1.028294  0.0  0.10716  0.112078  4.8e-05  1.031013  0.0
H  H9  1  0.19922699  0.68218412  0.74855639  1  0.105933  -7.3e-05  0.962398  -0.001  0.113925  5.8e-05  1.029532  0.0  0.116185  6.8e-05  1.028415  0.0  0.107152  0.111984  4.8e-05  1.031129  0.0
H  H10  1  0.64453411  0.46642565  0.57327157  1  0.092201  -0.000454  0.942164  -0.002  0.098469  -0.000328  1.007087  -0.001  0.100873  -0.00017  1.005009  -0.001  0.118327  0.09657  -0.0005  1.009014  -0.002
H  H11  1  0.35547152  0.53358047  0.42673845  1  0.092174  -0.000454  0.942213  -0.002  0.098435  -0.000328  1.007144  -0.001  0.100846  -0.00017  1.005053  -0.001  0.118295  0.096535  -0.000501  1.009071  -0.002
H  H12  1  0.22717955  0.93468753  0.01788137  1  0.11826  -0.000253  0.942195  0.0  0.123443  -0.000217  1.007231  0.0  0.127404  -0.000119  1.005269  0.0  0.11021  0.120268  -0.000321  1.009318  0.0
H  H13  1  0.77283025  0.06531037  0.98211514  1  0.118176  -0.000253  0.942193  0.0  0.12339  -0.000217  1.007221  0.0  0.127349  -0.000119  1.005258  0.0  0.110211  0.120218  -0.000321  1.009311  0.0
H  H14  1  0.48082169  0.07747317  0.95325781  1  0.11095  -0.000104  0.960434  0.0  0.117947  -3.5e-05  1.028489  0.0  0.121163  -1.3e-05  1.025311  0.0  0.110411  0.11555  -5.4e-05  1.03132  0.0
H  H15  1  0.51918276  0.92253285  0.04673899  1  0.110944  -0.000103  0.960473  0.0  0.117948  -3.5e-05  1.028523  0.0  0.121162  -1.4e-05  1.025349  0.0  0.110417  0.115551  -5.4e-05  1.031352  0.0
H  H16  1  0.05066899  0.50230119  0.21801765  1  0.122778  -0.000126  0.935505  0.0  0.132376  -4.5e-05  1.00296  0.0  0.134116  -1.2e-05  1.002238  0.0  0.106605  0.130964  -9.5e-05  1.003687  0.0
H  H17  1  0.94931139  0.49768427  0.78198580  1  0.122543  -0.000126  0.935595  0.0  0.1323  -4.5e-05  1.002878  0.0  0.134042  -1.2e-05  1.002158  0.0  0.1066  0.130886  -9.5e-05  1.003602  0.0
H  H18  1  0.15165287  0.68480146  0.32595283  1  0.11146  -2.1e-05  0.948918  0.0  0.121878  -2e-06  1.016233  0.0  0.123663  5e-06  1.015377  0.0  0.101703  0.120195  1.1e-05  1.017415  0.0
H  H19  1  0.84833711  0.31519080  0.67404405  1  0.111334  -2.1e-05  0.948944  0.0  0.121761  -2e-06  1.016264  0.0  0.123545  5e-06  1.015406  0.0  0.101654  0.120075  1.1e-05  1.017447  0.0
H  H20  1  0.62653560  0.25557731  0.39447006  1  0.119637  -0.000186  0.958218  0.0  0.128366  -0.000153  1.01823  0.0  0.13125  -5.9e-05  1.018008  0.0  0.109338  0.126041  -0.000267  1.018801  -0.001
H  H21  1  0.37345695  0.74442544  0.60554032  1  0.119562  -0.000185  0.958252  0.0  0.128279  -0.000153  1.01827  0.0  0.131163  -5.9e-05  1.018049  0.0  0.109331  0.125952  -0.000267  1.018837  -0.001
H  H22  1  0.46460596  0.06470273  0.65954239  1  0.119184  2e-06  0.952115  0.0  0.12765  4e-06  1.020667  0.0  0.129958  1.9e-05  1.018976  0.0  0.102761  0.125846  -2.4e-05  1.022009  0.0
H  H23  1  0.53538646  0.93529297  0.34045309  1  0.119174  3e-06  0.952176  0.0  0.127672  4e-06  1.020708  0.0  0.12998  1.9e-05  1.019017  0.0  0.10274  0.125867  -2.4e-05  1.022051  0.0
H  H24  1  0.60233775  0.09617072  0.78044611  1  0.126387  -5.4e-05  0.941118  0.0  0.134961  4.8e-05  1.00998  0.0  0.137646  9.8e-05  1.007988  0.0  0.106663  0.133495  -1.4e-05  1.010304  0.0
H  H25  1  0.39766155  0.90383417  0.21954950  1  0.126389  -5.4e-05  0.941137  0.0  0.135014  4.8e-05  1.009983  0.0  0.1377  9.8e-05  1.007989  0.0  0.106627  0.133541  -1.4e-05  1.010328  0.0
C  C26  1  0.91491251  0.55694755  0.35625580  1  0.06929  -0.006746  3.734933  -0.01  0.095399  -0.002006  3.966995  -0.004  0.090215  -0.001508  3.990868  -0.003  -0.003054  0.098851  -0.002646  3.951325  -0.005
C  C27  1  0.08507449  0.44305288  0.64374765  1  0.06938  -0.006763  3.734654  -0.01  0.095357  -0.002005  3.96686  -0.004  0.090174  -0.001507  3.99073  -0.003  -0.003086  0.098809  -0.002646  3.951189  -0.005
C  C28  1  0.91408564  0.66787904  0.45781175  1  0.068712  0.012619  3.65762  0.008  0.031336  0.000254  3.915548  -0.001  0.039722  0.00048  3.934882  0.0  0.039493  0.02469  0.000457  3.903088  -0.001
C  C29  1  0.08590851  0.33212480  0.54219119  1  0.068586  0.012647  3.657571  0.008  0.031233  0.000249  3.915507  -0.001  0.039618  0.000477  3.934837  0.0  0.03945  0.024595  0.000452  3.90304  -0.001
C  C30  1  0.34097855  0.03895828  0.79748150  1  0.066777  -0.005699  3.733743  -0.008  0.092363  -0.001734  3.968879  -0.003  0.087691  -0.001197  3.992421  -0.002  -0.003664  0.095605  -0.0024  3.953503  -0.004
C  C31  1  0.65902152  0.96104547  0.20251617  1  0.066761  -0.005696  3.73372  -0.008  0.092366  -0.001732  3.968911  -0.003  0.087698  -0.001196  3.992451  -0.002  -0.003668  0.09561  -0.0024  3.95353  -0.004
C  C32  1  0.18051095  0.97644218  0.73560759  1  0.066635  0.008984  3.667825  0.006  0.030033  -0.001691  3.926358  -0.002  0.038139  -0.001299  3.945647  -0.001  0.040206  0.023949  -0.001777  3.914425  -0.002
C  C33  1  0.81948940  0.02355580  0.26439099  1  0.066571  0.008982  3.66764  0.006  0.02992  -0.001693  3.926226  -0.002  0.038029  -0.0013  3.945511  -0.001  0.040121  0.023838  -0.001776  3.914287  -0.002
C  C34  1  0.66073154  0.39227908  0.91172503  1  0.070735  0.000146  3.802286  0.0  0.069518  -4.8e-05  4.109372  0.0  0.079754  -3.1e-05  4.124545  0.0  0.11213  0.06249  -8.2e-05  4.098744  0.0
C  C35  1  0.33926408  0.60771883  0.08826180  1  0.070791  0.000142  3.802166  0.0  0.069664  -4.8e-05  4.109121  0.0  0.079902  -3.1e-05  4.124295  0.0  0.112197  0.062637  -8.2e-05  4.098494  0.0
C  C36  1  0.06256150  0.88926671  0.87086788  1  0.118065  0.010822  3.694692  0.007  0.088423  0.000477  3.953994  0.0  0.097411  0.000593  3.97297  0.0  0.040696  0.082056  0.000779  3.94163  0.0
C  C37  1  0.93744315  0.11073008  0.12912976  1  0.117808  0.010812  3.694875  0.007  0.088179  0.000478  3.954193  0.0  0.097157  0.000594  3.973166  0.0  0.040647  0.081811  0.000779  3.941828  0.0
C  C38  1  0.80781221  0.40603756  0.33157735  1  -0.036741  0.013726  3.648367  0.009  -0.067002  0.002751  3.897359  0.001  -0.061897  0.001819  3.914311  0.001  -0.06506  -0.071342  0.004549  3.887378  0.003
C  C39  1  0.19217673  0.59396171  0.66842742  1  -0.03668  0.013747  3.648337  0.009  -0.066884  0.002745  3.897315  0.001  -0.061773  0.001815  3.914268  0.001  -0.065085  -0.071226  0.004544  3.887336  0.003
C  C40  1  0.71807607  0.48855217  0.50972923  1  0.127318  0.012763  3.666935  0.008  0.098339  0.001498  3.920664  0.0  0.107128  0.001417  3.940201  0.0  0.044169  0.091547  0.001993  3.908304  0.0
C  C41  1  0.28192240  0.51145052  0.49027742  1  0.127279  0.012788  3.667067  0.008  0.098309  0.001494  3.920734  0.0  0.107096  0.001415  3.940277  0.0  0.04423  0.091519  0.001989  3.908376  0.0
C  C42  1  0.21722494  0.95119477  0.93882797  1  -0.100825  -0.006025  3.714292  -0.009  -0.113783  -0.001543  3.97022  -0.002  -0.120852  -0.001011  3.988793  -0.002  -0.080218  -0.109246  -0.002198  3.959699  -0.003
C  C43  1  0.78278249  0.04880314  0.06116847  1  -0.100427  -0.006022  3.714399  -0.008  -0.113391  -0.001543  3.97024  -0.002  -0.120479  -0.001011  3.988879  -0.002  -0.080106  -0.108859  -0.002198  3.959723  -0.003
C  C44  1  0.35790068  0.02689086  0.90210962  1  -0.036066  0.009483  3.643402  0.006  -0.068406  -5.5e-05  3.894852  0.0  -0.062626  -0.000292  3.909694  0.0  -0.062765  -0.073438  0.001036  3.887225  0.001
C  C45  1  0.64210370  0.97311169  0.09788633  1  -0.036176  0.009476  3.643689  0.006  -0.068496  -5.8e-05  3.895095  0.0  -0.062722  -0.000292  3.909937  0.0  -0.062787  -0.073524  0.001037  3.887455  0.001
C  C46  1  0.03014484  0.60236471  0.27925998  1  -0.182054  -0.000146  3.639343  0.0  -0.219224  -0.000264  3.884177  0.0  -0.218128  -0.000145  3.893976  0.0  -0.139537  -0.219677  -0.000393  3.877709  0.0
C  C47  1  0.96984153  0.39762413  0.72073751  1  -0.181768  -0.000145  3.639218  0.0  -0.219004  -0.000264  3.88403  0.0  -0.21791  -0.000144  3.893831  0.0  -0.139409  -0.219451  -0.000393  3.87755  0.0
C  C48  1  0.70998470  0.37175036  0.40980993  1  -0.107979  -0.006824  3.708614  -0.01  -0.120716  -0.001771  3.960616  -0.003  -0.128233  -0.001262  3.981309  -0.002  -0.084972  -0.115908  -0.002353  3.948112  -0.004
C  C49  1  0.29001022  0.62825236  0.59019818  1  -0.107813  -0.00684  3.708592  -0.01  -0.120551  -0.00177  3.960579  -0.003  -0.128069  -0.001261  3.981274  -0.002  -0.084903  -0.11574  -0.002353  3.948067  -0.004
C  C50  1  0.48838744  0.11252861  0.75071831  1  -0.193163  -0.000247  3.637644  0.0  -0.230313  -0.00027  3.88452  0.0  -0.229988  -0.000135  3.894302  0.0  -0.145113  -0.230266  -0.000461  3.876721  -0.001
C  C51  1  0.51160901  0.88747167  0.24927531  1  -0.193223  -0.00025  3.637686  0.0  -0.230489  -0.00027  3.884664  0.0  -0.230166  -0.000135  3.894448  0.0  -0.145134  -0.230441  -0.000461  3.876858  -0.001
C  C52  1  0.83613737  0.55061989  0.08610671  1  0.076152  -3.2e-05  3.817097  0.0  0.072451  -6.2e-05  4.128024  0.0  0.083582  -2.7e-05  4.14188  0.0  0.110128  0.065037  -9.9e-05  4.117993  0.0
C  C53  1  0.16385894  0.44937345  0.91388597  1  0.076098  -2.9e-05  3.816977  0.0  0.072366  -6.3e-05  4.127972  0.0  0.083495  -2.8e-05  4.141829  0.0  0.11002  0.064954  -9.9e-05  4.117942  0.0
S  S54  1  0.95518474  0.70437649  0.20261916  1  0.052733  -0.000624  2.427458  -0.001  0.043455  1.6e-05  2.77693  0.0  0.037097  0.000165  2.779031  0.0  0.030709  0.047467  -0.000283  2.776368  -0.001
S  S55  1  0.04481234  0.29561568  0.79737249  1  0.052706  -0.000626  2.427488  -0.001  0.043404  1.6e-05  2.777037  0.0  0.037048  0.000165  2.779141  0.0  0.030683  0.047415  -0.000283  2.776471  -0.001
S  S56  1  0.72797381  0.59034475  0.98801082  1  0.088086  -9.6e-05  2.52313  0.0  0.086123  -8.1e-05  2.858025  0.0  0.087389  -2.4e-05  2.857601  0.0  0.09258  0.084855  -0.000165  2.859397  0.0
S  S57  1  0.27202654  0.40965318  0.01198156  1  0.088108  -9.5e-05  2.523203  0.0  0.086125  -8.1e-05  2.858079  0.0  0.087389  -2.4e-05  2.857654  0.0  0.092627  0.08486  -0.000165  2.859449  0.0
S  S58  1  0.53299905  0.31933398  0.78370460  1  0.054834  -0.000731  2.394557  -0.001  0.045274  -0.0002  2.73655  0.0  0.041148  -6.3e-05  2.735968  0.0  0.035332  0.049183  -0.000445  2.735652  0.0
S  S59  1  0.46699859  0.68066626  0.21628595  1  0.05478  -0.00073  2.394317  -0.001  0.045217  -0.0002  2.736323  0.0  0.041088  -6.2e-05  2.73574  0.0  0.035326  0.049127  -0.000445  2.735423  0.0
N  N60  1  0.81798711  0.63548528  0.53296834  1  -0.324227  -0.048697  3.397115  -0.075  -0.269927  -0.032232  3.695867  -0.042  -0.302844  -0.024922  3.717352  -0.032  -0.344456  -0.245507  -0.038863  3.681053  -0.051
N  N61  1  0.18201219  0.36451971  0.46703812  1  -0.324176  -0.048706  3.397124  -0.075  -0.269833  -0.032229  3.695844  -0.042  -0.302749  -0.024919  3.717328  -0.032  -0.344453  -0.245412  -0.038861  3.68103  -0.051
N  N62  1  0.61694340  0.73063232  0.79249812  1  0.664596  0.017321  4.113566  0.015  0.699147  0.005705  4.409841  0.005  0.731024  0.004103  4.418628  0.003  0.097774  0.688358  0.008063  4.385721  0.008
N  N63  1  0.38306063  0.26937258  0.20750149  1  0.664387  0.017317  4.113651  0.015  0.698924  0.0057  4.40991  0.005  0.730799  0.004101  4.4187  0.003  0.097742  0.688163  0.008058  4.385744  0.008
N  N64  1  0.81777406  0.40352917  0.06040059  1  -0.218832  -9.8e-05  3.032381  0.0  -0.198582  -3.4e-05  3.324984  0.0  -0.208539  -1.6e-05  3.341556  0.0  -0.223423  -0.19128  -0.000132  3.313859  0.0
N  N65  1  0.18221947  0.59646300  0.93958786  1  -0.218793  -0.0001  3.032704  0.0  -0.198471  -3.4e-05  3.325166  0.0  -0.20843  -1.6e-05  3.341748  0.0  -0.223346  -0.191167  -0.000132  3.314035  0.0
N  N66  1  0.04382275  0.90242240  0.77058039  1  -0.330042  -0.047339  3.379286  -0.076  -0.278484  -0.031617  3.680161  -0.044  -0.310148  -0.02478  3.699576  -0.034  -0.345434  -0.256001  -0.037484  3.667781  -0.051
N  N67  1  0.95618274  0.09757672  0.22942016  1  -0.329916  -0.047339  3.379089  -0.076  -0.278338  -0.031616  3.679977  -0.044  -0.310002  -0.024779  3.699394  -0.034  -0.345397  -0.25585  -0.037484  3.667589  -0.051
N  N68  1  0.72784500  0.96456190  0.54412807  1  0.680771  0.012346  4.102917  0.011  0.712786  0.003017  4.397458  0.003  0.743461  0.002353  4.405259  0.002  0.101224  0.690601  0.004065  4.391451  0.004
N  N69  1  0.27216966  0.03544305  0.45588656  1  0.681111  0.012339  4.102615  0.011  0.712722  0.003013  4.397642  0.003  0.743397  0.002352  4.405437  0.002  0.101436  0.690536  0.00406  4.39163  0.004
N  N70  1  0.71636906  0.31291775  0.96068079  1  -0.228806  -0.000283  3.066665  0.0  -0.205085  -9.6e-05  3.358856  0.0  -0.215089  -4.2e-05  3.375471  0.0  -0.220609  -0.197761  -0.00019  3.347717  0.0
N  N71  1  0.28362732  0.68707901  0.03930654  1  -0.228851  -0.000281  3.066947  0.0  -0.205165  -9.6e-05  3.359122  0.0  -0.215158  -4.2e-05  3.375708  0.0  -0.220674  -0.197841  -0.00019  3.347982  0.0
O  O72  1  0.71728105  0.06461059  0.50684200  1  -0.400724  -0.002182  1.788602  -0.005  -0.388294  -0.004381  1.997276  -0.008  -0.402091  -0.002406  1.991721  -0.004  -0.144747  -0.377796  -0.007011  2.001134  -0.012
O  O73  1  0.28271039  0.93537592  0.49315816  1  -0.400889  -0.002184  1.7886  -0.005  -0.38832  -0.004382  1.997443  -0.008  -0.402108  -0.002405  1.991873  -0.004  -0.144864  -0.37782  -0.007013  2.001297  -0.012
O  O74  1  0.86519865  0.99359441  0.61127511  1  -0.490138  -0.048485  1.874859  -0.084  -0.479432  -0.036448  2.143093  -0.058  -0.512465  -0.027851  2.133572  -0.045  -0.211769  -0.453145  -0.044623  2.148306  -0.07
O  O75  1  0.13482881  0.00641956  0.38872429  1  -0.490482  -0.048499  1.874824  -0.084  -0.479536  -0.036456  2.143079  -0.058  -0.512573  -0.027859  2.133552  -0.045  -0.211897  -0.45324  -0.04463  2.148292  -0.07
O  O76  1  0.70966421  0.64740820  0.75839541  1  -0.461418  -0.023041  1.836002  -0.044  -0.456661  -0.021873  2.079363  -0.04  -0.482709  -0.015962  2.074329  -0.031  -0.167174  -0.440947  -0.028439  2.076688  -0.05
O  O77  1  0.29034219  0.35259660  0.24159496  1  -0.461248  -0.023029  1.835961  -0.044  -0.456528  -0.021865  2.079396  -0.04  -0.482576  -0.015956  2.074368  -0.031  -0.167124  -0.440817  -0.028428  2.076698  -0.05
O  O78  1  0.61575337  0.83692775  0.52262449  1  -0.420571  -0.00866  1.768877  -0.017  -0.416966  -0.011351  1.987671  -0.02  -0.435469  -0.007966  1.982912  -0.015  -0.154362  -0.402393  -0.015381  1.990592  -0.026
O  O79  1  0.38426726  0.16308088  0.47742062  1  -0.420592  -0.008641  1.768778  -0.017  -0.416853  -0.011335  1.987698  -0.02  -0.435349  -0.007954  1.982942  -0.015  -0.154375  -0.40229  -0.015362  1.990638  -0.026
O  O80  1  0.51085737  0.70734694  0.85244678  1  -0.347461  0.002248  1.809568  -0.001  -0.344084  -0.003093  2.02308  -0.006  -0.356716  -0.001051  2.020169  -0.003  -0.122149  -0.339169  -0.00552  2.020105  -0.01
O  O81  1  0.48914715  0.29264290  0.14754837  1  -0.347395  0.00224  1.809629  -0.001  -0.343983  -0.003096  2.023128  -0.006  -0.356612  -0.001051  2.020217  -0.003  -0.122116  -0.339077  -0.005525  2.02016  -0.01
O  O82  1  0.64284092  0.84702176  0.75803585  1  -0.462952  -0.053965  1.857939  -0.092  -0.457828  -0.039635  2.123727  -0.063  -0.493823  -0.028707  2.116642  -0.046  -0.198077  -0.432452  -0.051113  2.121469  -0.081
O  O83  1  0.35716839  0.15299127  0.24197365  1  -0.462977  -0.053969  1.857743  -0.092  -0.457863  -0.03964  2.123594  -0.063  -0.493858  -0.02871  2.116506  -0.046  -0.198147  -0.432493  -0.051117  2.121329  -0.081
