# generated using pymatgen
data_NiMo4H20C15N15O13
_symmetry_space_group_name_H-M   'P 1'
_cell_length_a   10.63173809
_cell_length_b   11.93216511
_cell_length_c   13.84518767
_cell_angle_alpha   72.72104032
_cell_angle_beta   79.76253673
_cell_angle_gamma   81.14952916
_symmetry_Int_Tables_number   1
_chemical_formula_structural   NiMo4H20C15N15O13
_chemical_formula_sum   'Ni2 Mo8 H40 C30 N30 O26'
_cell_volume   1640.85486898
_cell_formula_units_Z   2
loop_
 _symmetry_equiv_pos_site_id
 _symmetry_equiv_pos_as_xyz
  1  'x, y, z'
loop_
 _atom_site_type_symbol
 _atom_site_label
 _atom_site_symmetry_multiplicity
 _atom_site_fract_x
 _atom_site_fract_y
 _atom_site_fract_z
 _atom_site_occupancy
 _atom_site_pbe_bader_charge
 _atom_site_pbe_bader_spin_density
 _atom_site_pbe_cm5_charge
 _atom_site_pbe_ddec_charge
 _atom_site_pbe_ddec_spin_density
 _atom_site_pbe_ddec_sum_bond_order
 _atom_site_pbe_magmom
Ni  Ni0  1  0.00000011  0.49999942  0.50000041  1  1.199527  1.546056  0.69093  0.816038  1.753877  2.66032  1.533
Ni  Ni1  1  0.00000000  0.00000000  0.00000000  1  1.230937  1.566637  0.684114  0.820235  1.775545  2.581277  1.554
Mo  Mo2  1  0.84710829  0.98659174  0.46903460  1  2.573406  0.000724  1.494725  2.157902  0.000417  4.650134  0.001
Mo  Mo3  1  0.15289241  0.01340724  0.53096454  1  2.573408  0.000724  1.494742  2.157931  0.000417  4.650071  0.001
Mo  Mo4  1  0.88041253  0.22309290  0.26139478  1  2.584761  -0.000372  1.522105  2.041245  -0.000659  4.71704  0.0
Mo  Mo5  1  0.11958510  0.77690784  0.73860505  1  2.584865  -0.000372  1.522077  2.041236  -0.000659  4.717056  0.0
Mo  Mo6  1  0.87495923  0.21668076  0.54520726  1  2.61441  0.015167  1.522685  2.16181  0.009099  4.630764  0.021
Mo  Mo7  1  0.12503840  0.78331998  0.45479186  1  2.614572  0.015168  1.522688  2.161822  0.0091  4.630753  0.021
Mo  Mo8  1  0.09547027  0.99827260  0.25109477  1  2.601274  0.006021  1.509509  2.141142  0.001252  4.625492  0.012
Mo  Mo9  1  0.90452926  0.00172814  0.74890408  1  2.601218  0.006021  1.509527  2.141126  0.001253  4.625562  0.012
H  H10  1  0.27008549  0.61163203  0.35266652  1  0.166863  0.000209  0.131597  0.105073  -5.9e-05  1.02818  0.0
H  H11  1  0.72991510  0.38836783  0.64733314  1  0.166855  0.000209  0.13159  0.105047  -5.9e-05  1.028213  0.0
H  H12  1  0.07249611  0.33529569  0.34482497  1  0.186707  0.00043  0.143801  0.130946  4.6e-05  1.01437  0.0
H  H13  1  0.92750258  0.66470417  0.65517567  1  0.186743  0.00043  0.143797  0.130926  4.6e-05  1.014329  0.0
H  H14  1  0.86762488  0.78370921  0.97253021  1  0.135925  0.000327  0.145457  0.112422  -1.7e-05  0.987645  0.0
H  H15  1  0.13237476  0.21629065  0.02746958  1  0.135936  0.000327  0.145449  0.112395  -1.7e-05  0.987646  0.0
H  H16  1  0.36295320  0.37185736  0.13374849  1  0.099044  0.00028  0.127695  0.115449  0.00014  0.950465  0.0
H  H17  1  0.63704549  0.62814250  0.86625215  1  0.099022  0.00028  0.127675  0.11541  0.00014  0.950486  0.0
H  H18  1  0.21179978  0.31077347  0.16487080  1  0.091214  1.6e-05  0.121237  0.118634  4e-06  0.984029  0.0
H  H19  1  0.78819890  0.68922639  0.83512984  1  0.091197  1.6e-05  0.121242  0.118639  4e-06  0.984034  0.0
H  H20  1  0.28320239  0.16930054  0.32449126  1  0.140115  1.3e-05  0.126983  0.121699  -1e-06  0.991749  0.0
H  H21  1  0.71679820  0.83069932  0.67550840  1  0.140099  1.3e-05  0.126983  0.12171  -1e-06  0.991721  0.0
H  H22  1  0.37616580  0.14643162  0.21139508  1  0.101137  5.4e-05  0.124332  0.125496  2.8e-05  0.97909  0.0
H  H23  1  0.62383479  0.85356825  0.78860530  1  0.101138  5.4e-05  0.12433  0.1255  2.8e-05  0.979107  0.0
H  H24  1  0.61814218  0.19304316  0.17557569  1  0.210182  -4e-06  0.152023  0.1335  -1.1e-05  0.976542  0.0
H  H25  1  0.38185735  0.80695758  0.82442532  1  0.210404  -4e-06  0.152042  0.133516  -1.1e-05  0.976506  0.0
H  H26  1  0.46395588  0.25706346  0.72934275  1  0.11666  0.000312  0.129285  0.122566  0.000161  0.943788  0.0
H  H27  1  0.53604482  0.74293552  0.27065712  1  0.116663  0.000312  0.129285  0.122572  0.000161  0.943753  0.0
H  H28  1  0.48799046  0.24815949  0.60198782  1  0.127713  6.5e-05  0.123106  0.124065  2.1e-05  0.985731  0.0
H  H29  1  0.51201013  0.75184037  0.39801255  1  0.127713  6.5e-05  0.123114  0.124068  2.1e-05  0.985689  0.0
H  H30  1  0.04439207  0.42975117  0.74144061  1  0.141009  0.000297  0.129917  0.093212  -2e-06  1.033555  0.0
H  H31  1  0.95560938  0.57024958  0.25855943  1  0.141003  0.000297  0.129891  0.093172  -3e-06  1.033593  0.0
H  H32  1  0.28220854  0.31288078  0.50520245  1  0.183851  0.0003  0.137654  0.104861  -3.4e-05  1.042709  0.0
H  H33  1  0.71779301  0.68711909  0.49479780  1  0.183684  0.0003  0.137649  0.104852  -3.4e-05  1.042729  0.0
H  H34  1  0.86486229  0.56645003  0.98872115  1  0.087128  7.3e-05  0.1211  0.102973  3.6e-05  0.980207  0.0
H  H35  1  0.13513820  0.43355072  0.01127830  1  0.087125  7.3e-05  0.121118  0.103019  3.6e-05  0.980229  0.0
H  H36  1  0.91550370  0.47711681  0.10605049  1  0.166831  -2.2e-05  0.117123  0.119975  -2.1e-05  1.025638  0.0
H  H37  1  0.08449584  0.52288394  0.89394909  1  0.166821  -2.2e-05  0.117116  0.119972  -2.1e-05  1.02564  0.0
H  H38  1  0.16452500  0.04963013  0.77684055  1  0.212908  0.000326  0.139877  0.136674  -1.1e-05  1.032611  0.0
H  H39  1  0.83547559  0.95036974  0.22315911  1  0.212898  0.000326  0.139896  0.136705  -1.1e-05  1.032532  0.0
H  H40  1  0.38572852  0.05900714  0.65853553  1  0.116954  5.8e-05  0.120177  0.11279  1.9e-05  0.983942  0.0
H  H41  1  0.61427208  0.94099272  0.34146413  1  0.116953  5.8e-05  0.120164  0.112798  1.9e-05  0.983942  0.0
H  H42  1  0.52575450  0.05258118  0.71624093  1  0.121826  0.00026  0.126225  0.133728  0.000141  0.970864  0.0
H  H43  1  0.47424610  0.94741868  0.28375873  1  0.121829  0.00026  0.126231  0.133754  0.000141  0.970836  0.0
H  H44  1  0.18670405  0.75492004  0.12229438  1  0.13383  0.000197  0.142193  0.110934  -4e-05  0.961091  0.0
H  H45  1  0.81329549  0.24508070  0.87770519  1  0.133828  0.000197  0.142198  0.110956  -4e-05  0.961081  0.0
H  H46  1  0.31261844  0.98589620  0.05393503  1  0.1603  0.000172  0.129397  0.105205  -3.8e-05  1.027137  0.0
H  H47  1  0.68738226  0.01410278  0.94606628  1  0.16033  0.000172  0.12939  0.105202  -3.8e-05  1.027123  0.0
H  H48  1  0.62011973  0.26051296  0.45660398  1  0.197013  6e-06  0.136934  0.112302  -8e-06  1.033681  0.0
H  H49  1  0.37988076  0.73948779  0.54339691  1  0.197116  6e-06  0.136939  0.112303  -8e-06  1.033651  0.0
C  C50  1  0.24340411  0.53867312  0.33171977  1  0.948633  -0.001051  0.144973  0.141254  -0.001522  3.969379  0.0
C  C51  1  0.75659563  0.46132586  0.66828095  1  0.948581  -0.001051  0.144954  0.141231  -0.001522  3.969401  0.0
C  C52  1  0.14056074  0.39922562  0.32952562  1  1.013259  -0.002706  0.16844  0.105418  -0.003689  3.842772  -0.002
C  C53  1  0.85943720  0.60077248  0.67047485  1  1.013308  -0.002705  0.168401  0.105409  -0.003688  3.842881  -0.002
C  C54  1  0.94957928  0.75042442  0.01347248  1  1.029246  -0.002573  0.169344  0.100973  -0.0035  3.900802  -0.002
C  C55  1  0.05042036  0.24957545  0.98652731  1  1.029252  -0.002573  0.169335  0.101001  -0.003499  3.900766  -0.002
C  C56  1  0.29299511  0.32713230  0.19602963  1  0.318135  0.000916  -0.037279  -0.110332  0.000558  3.877978  0.001
C  C57  1  0.70700474  0.67286580  0.80397130  1  0.318098  0.000917  -0.037253  -0.110246  0.000558  3.877896  0.001
C  C58  1  0.35178145  0.20833356  0.25841234  1  0.29758  -4.1e-05  -0.04061  -0.120835  -7.7e-05  3.857557  0.0
C  C59  1  0.64821914  0.79166631  0.74158731  1  0.297607  -4.1e-05  -0.040631  -0.120923  -7.7e-05  3.857527  0.0
C  C60  1  0.58818718  0.21024221  0.24934055  1  0.97361  -2e-06  0.171995  0.098131  -2e-06  3.881035  0.0
C  C61  1  0.41181321  0.78975942  0.75065941  1  0.973665  -2e-06  0.172006  0.098127  -2e-06  3.880919  0.0
C  C62  1  0.42511247  0.22564000  0.67507095  1  0.277769  0.001063  -0.03892  -0.103577  0.000646  3.860537  0.001
C  C63  1  0.57488813  0.77435987  0.32492943  1  0.277787  0.001063  -0.038916  -0.103538  0.000646  3.860416  0.001
C  C64  1  0.12304331  0.38702628  0.69960393  1  1.008193  -0.001394  0.145037  0.167954  -0.001979  3.961343  -0.001
C  C65  1  0.87695813  0.61297447  0.30039611  1  1.00819  -0.001394  0.145061  0.168009  -0.001979  3.961332  -0.001
C  C66  1  0.24099290  0.33091092  0.57737590  1  0.996315  -0.001476  0.16587  0.102236  -0.00223  3.852116  0.0
C  C67  1  0.75900855  0.66908983  0.42262413  1  0.996493  -0.001476  0.165903  0.102258  -0.00223  3.852124  0.0
C  C68  1  0.94811488  0.53393535  0.02987204  1  0.245936  0.000755  -0.041227  -0.112243  0.000502  3.849983  0.001
C  C69  1  0.05188572  0.46606452  0.97012762  1  0.279719  0.000747  -0.041248  -0.112324  0.000502  3.850081  0.001
C  C70  1  0.22554202  0.04024086  0.83439629  1  0.994189  -0.002664  0.159821  0.094067  -0.003697  3.867788  -0.002
C  C71  1  0.77445752  0.95975989  0.16560473  1  0.994169  -0.002663  0.159809  0.09409  -0.003697  3.867775  -0.002
C  C72  1  0.42565344  0.09137785  0.71194335  1  0.281257  0.000705  -0.040975  -0.114666  0.000419  3.851616  0.001
C  C73  1  0.57434620  0.90862201  0.28805716  1  0.281242  0.000705  -0.040974  -0.114748  0.000419  3.851588  0.001
C  C74  1  0.11234624  0.73316568  0.08867635  1  0.992095  -0.000752  0.154035  0.163264  -0.001316  3.957003  0.0
C  C75  1  0.88765435  0.26683419  0.91132331  1  0.992097  -0.000752  0.15403  0.163266  -0.001316  3.957004  0.0
C  C76  1  0.30425243  0.00684613  0.97319346  1  0.947756  -0.000382  0.139131  0.129412  -0.000759  3.974421  0.001
C  C77  1  0.69574848  0.99315108  0.02680828  1  0.947759  -0.000382  0.139182  0.129553  -0.000759  3.974444  0.001
C  C78  1  0.58591437  0.24637409  0.39221324  1  0.943547  -1.7e-05  0.15675  0.17122  -2.1e-05  3.934461  0.0
C  C79  1  0.41408697  0.75362754  0.60778731  1  0.943146  -1.7e-05  0.156744  0.17119  -2.1e-05  3.934391  0.0
N  N80  1  0.46341105  0.24266554  0.38736297  1  -0.6403  4.5e-05  -0.208273  -0.243431  3.3e-05  3.071609  0.0
N  N81  1  0.53659135  0.75733521  0.61263694  1  -0.640218  4.5e-05  -0.208268  -0.243413  3.3e-05  3.071538  0.0
N  N82  1  0.10071849  0.62306299  0.09076041  1  -0.691102  0.00611  -0.225908  -0.27427  0.003373  3.093634  0.005
N  N83  1  0.89928200  0.37693776  0.90923903  1  -0.691078  0.00611  -0.225924  -0.274292  0.003373  3.093575  0.005
N  N84  1  0.40426811  0.03168989  0.90043764  1  -0.677239  0.006673  -0.232239  -0.27964  0.003629  3.080079  0.005
N  N85  1  0.59573354  0.96830909  0.09956210  1  -0.677219  0.006673  -0.232262  -0.279694  0.003628  3.080184  0.005
N  N86  1  0.12915426  0.39325510  0.59877587  1  -1.19581  0.072863  -0.331392  -0.295332  0.041996  3.492006  0.065
N  N87  1  0.87084718  0.60674565  0.40122417  1  -1.195831  0.072863  -0.331404  -0.295349  0.041996  3.492037  0.065
N  N88  1  0.31330004  0.49445176  0.25932689  1  -0.673985  0.00613  -0.239488  -0.294996  0.003392  3.095644  0.004
N  N89  1  0.68669875  0.50554722  0.74067396  1  -0.674029  0.006129  -0.239404  -0.294881  0.003392  3.095605  0.004
N  N90  1  0.24560401  0.40649141  0.25901437  1  -0.83112  0.001728  -0.139401  0.163221  0.000756  3.776141  0.001
N  N91  1  0.75439680  0.59350669  0.74098571  1  -0.831064  0.001728  -0.139494  0.163082  0.000757  3.776246  0.001
N  N92  1  0.99632782  0.63610959  0.04202765  1  -0.814031  0.002258  -0.132544  0.171569  0.001077  3.728096  0.002
N  N93  1  0.00367171  0.36389116  0.95797192  1  -0.814058  0.002258  -0.13252  0.171586  0.001078  3.727997  0.002
N  N94  1  0.22414086  0.32543875  0.74152803  1  -0.68543  0.005826  -0.238372  -0.291878  0.003208  3.083358  0.004
N  N95  1  0.77585963  0.67456200  0.25847214  1  -0.685382  0.005826  -0.238385  -0.291915  0.003208  3.083385  0.004
N  N96  1  0.29869024  0.29041141  0.66224965  1  -0.840085  0.00199  -0.136261  0.157167  0.000819  3.739133  0.002
N  N97  1  0.70131036  0.70958846  0.33775001  1  -0.84011  0.00199  -0.136272  0.157154  0.000819  3.739146  0.002
N  N98  1  0.35182703  0.05184387  0.81277778  1  -0.82536  0.001847  -0.140113  0.152584  0.00088  3.76441  0.002
N  N99  1  0.64817367  0.94815511  0.18722209  1  -0.825363  0.001847  -0.140116  0.152591  0.00088  3.764386  0.002
N  N100  1  0.19206763  0.01087760  0.93558636  1  -1.211988  0.070729  -0.343312  -0.313467  0.040872  3.53953  0.063
N  N101  1  0.80793392  0.98912227  0.06441461  1  -1.21199  0.07073  -0.343344  -0.313589  0.040873  3.539606  0.063
N  N102  1  0.02112200  0.81450880  0.04191698  1  -1.18059  0.07184  -0.333613  -0.298586  0.041431  3.527225  0.064
N  N103  1  0.97887754  0.18549194  0.95808259  1  -1.180596  0.071838  -0.333606  -0.298617  0.041429  3.527262  0.064
N  N104  1  0.13594201  0.48244856  0.37696743  1  -1.192293  0.068532  -0.340166  -0.306804  0.039667  3.540327  0.061
N  N105  1  0.86405869  0.51755042  0.62303388  1  -1.192289  0.068531  -0.340101  -0.306727  0.039666  3.540326  0.061
N  N106  1  0.46725131  0.21829993  0.29638173  1  -0.840046  1.3e-05  -0.127587  0.181962  -2e-06  3.727001  0.0
N  N107  1  0.53274928  0.78169993  0.70361937  1  -0.840355  1.3e-05  -0.12762  0.181959  -2e-06  3.726967  0.0
N  N108  1  0.66618317  0.22726888  0.30831998  1  -1.226905  -3.7e-05  -0.366871  -0.364748  -4.3e-05  3.55463  0.0
N  N109  1  0.33381827  0.77273187  0.69168006  1  -1.226659  -3.7e-05  -0.366847  -0.364689  -4.3e-05  3.554515  0.0
O  O110  1  0.90279626  0.83525864  0.50036205  1  -0.939137  0.00062  -0.549884  -0.774633  0.000139  1.882874  0.001
O  O111  1  0.09720072  0.16473945  0.49963783  1  -0.939089  0.00062  -0.549882  -0.77464  0.000139  1.882907  0.001
O  O112  1  0.09711010  0.97737016  0.41755501  1  -1.156473  0.007898  -0.619944  -1.051346  0.004396  2.215914  0.007
O  O113  1  0.90288858  0.02262970  0.58244490  1  -1.156431  0.007898  -0.61993  -1.051308  0.004396  2.215877  0.007
O  O114  1  0.71201974  0.23998014  0.58461767  1  -0.858844  -0.000297  -0.520826  -0.690073  -0.001418  1.700206  -0.001
O  O115  1  0.28797884  0.76002060  0.41538131  1  -0.858977  -0.000296  -0.520851  -0.690098  -0.001417  1.700184  -0.001
O  O116  1  0.25998195  0.99312366  0.22387413  1  -0.821525  0.001962  -0.513878  -0.669376  0.000506  1.69123  0.002
O  O117  1  0.74001865  0.00687620  0.77612553  1  -0.821456  0.001961  -0.513877  -0.669357  0.000506  1.691252  0.002
O  O118  1  0.83547017  0.22644036  0.14705875  1  -0.824208  5.8e-05  -0.515852  -0.670881  -0.000141  1.769901  0.0
O  O119  1  0.16452745  0.77356038  0.85293963  1  -0.824251  5.8e-05  -0.515827  -0.670871  -0.000141  1.769934  0.0
O  O120  1  0.04700365  0.00093231  0.13596616  1  -0.89273  0.050606  -0.517432  -0.727368  0.029311  2.0587  0.05
O  O121  1  0.95299514  0.99906667  0.86403397  1  -0.892726  0.050607  -0.517416  -0.727365  0.029312  2.058749  0.05
O  O122  1  0.92193972  0.35883417  0.49985948  1  -0.88558  0.048574  -0.52839  -0.72451  0.028058  2.085674  0.046
O  O123  1  0.07805790  0.64116658  0.50014108  1  -0.885575  0.048573  -0.528381  -0.724508  0.028057  2.085715  0.046
O  O124  1  0.68348840  0.99227317  0.49797174  1  -0.81623  0.000347  -0.52265  -0.65662  0.000145  1.633645  0.0
O  O125  1  0.31651295  0.00772846  0.50202737  1  -0.816281  0.000347  -0.522684  -0.656679  0.000145  1.633602  0.0
O  O126  1  0.05833062  0.16688200  0.24321398  1  -1.031579  -0.000359  -0.592648  -0.856203  -0.000729  1.999459  0.0
O  O127  1  0.94166797  0.83311874  0.75678428  1  -1.031628  -0.000359  -0.592655  -0.856201  -0.000729  1.999484  0.0
O  O128  1  0.86574382  0.17526160  0.42280891  1  -1.116391  0.00227  -0.622549  -0.979704  0.00109  2.247825  0.002
O  O129  1  0.13425571  0.82473915  0.57719066  1  -1.116382  0.00227  -0.622566  -0.979745  0.00109  2.247817  0.002
O  O130  1  0.92834717  0.16313239  0.67924736  1  -0.990662  -0.000684  -0.586771  -0.827509  -0.001302  1.94164  -0.001
O  O131  1  0.07165130  0.83686924  0.32075214  1  -0.990671  -0.000683  -0.586761  -0.827494  -0.001301  1.941635  -0.001
O  O132  1  0.87958970  0.02797742  0.32462405  1  -1.082782  0.000332  -0.600459  -0.956736  0.000102  2.076985  0.0
O  O133  1  0.12040983  0.97202332  0.67537552  1  -1.082771  0.000332  -0.600443  -0.956692  0.000101  2.076947  0.0
O  O134  1  0.88728535  0.36833466  0.25476448  1  -0.828343  0.000491  -0.512223  -0.653384  0.000246  1.717829  0.0
O  O135  1  0.11271228  0.63166608  0.74523607  1  -0.82833  0.000491  -0.512215  -0.653391  0.000246  1.717831  0.0
