# generated using pymatgen
data_CuH22C26N2(O4F)2
_symmetry_space_group_name_H-M   'P 1'
_cell_length_a   6.62322127
_cell_length_b   8.01867919
_cell_length_c   11.44007807
_cell_angle_alpha   83.70379761
_cell_angle_beta   83.04779598
_cell_angle_gamma   85.27437333
_symmetry_Int_Tables_number   1
_chemical_formula_structural   CuH22C26N2(O4F)2
_chemical_formula_sum   'Cu1 H22 C26 N2 O8 F2'
_cell_volume   597.99925636
_cell_formula_units_Z   1
loop_
 _symmetry_equiv_pos_site_id
 _symmetry_equiv_pos_as_xyz
  1  'x, y, z'
loop_
 _atom_site_type_symbol
 _atom_site_label
 _atom_site_symmetry_multiplicity
 _atom_site_fract_x
 _atom_site_fract_y
 _atom_site_fract_z
 _atom_site_occupancy
 _atom_site_hle17_ddec_charge
 _atom_site_hle17_ddec_spin_density
 _atom_site_hle17_ddec_sum_bond_order
 _atom_site_hle17_magmom
 _atom_site_hse06_10hf_ddec_charge
 _atom_site_hse06_10hf_ddec_spin_density
 _atom_site_hse06_10hf_ddec_sum_bond_order
 _atom_site_hse06_10hf_magmom
 _atom_site_hse06_ddec_charge
 _atom_site_hse06_ddec_spin_density
 _atom_site_hse06_ddec_sum_bond_order
 _atom_site_hse06_magmom
 _atom_site_pbe_cm5_charge
 _atom_site_pbe_ddec_charge
 _atom_site_pbe_ddec_spin_density
 _atom_site_pbe_ddec_sum_bond_order
 _atom_site_pbe_magmom
Cu  Cu0  1  0.50000069  0.49999750  0.50000123  1  0.863974  0.707512  1.801591  0.527  0.837226  0.791056  2.183923  0.643  0.926815  0.856496  2.121692  0.729  0.741334  0.780919  0.744235  2.228251  0.586
H  H1  1  0.38106814  0.25006342  0.39514806  1  0.368888  -0.000132  0.935899  0.0  0.341672  -0.000128  1.013927  0.0  0.353452  -0.000141  0.997762  0.0  0.286125  0.333443  -8.9e-05  1.023377  0.0
H  H2  1  0.61893418  0.74993663  0.60485133  1  0.368831  -0.000132  0.935985  0.0  0.341655  -0.000128  1.013958  0.0  0.353435  -0.000141  0.99779  0.0  0.286128  0.333422  -8.9e-05  1.023419  0.0
H  H3  1  0.62844841  0.15191043  0.16695504  1  0.376455  -7e-06  0.908583  0.0  0.348482  2e-06  0.986052  0.0  0.360009  -3e-06  0.973564  0.0  0.296975  0.34035  1.3e-05  0.994789  0.0
H  H4  1  0.37154656  0.84808704  0.83304512  1  0.376483  -8e-06  0.908536  0.0  0.348532  2e-06  0.985972  0.0  0.360052  -3e-06  0.973488  0.0  0.297014  0.340429  1.3e-05  0.994653  0.0
H  H5  1  0.06546854  0.13300699  0.95110085  1  0.116195  0.000135  0.960352  0.0  0.124573  0.0001  1.022819  0.0  0.127943  5.1e-05  1.021654  0.0  0.10404  0.122221  0.00015  1.023682  0.0
H  H6  1  0.93452279  0.86699675  0.04889914  1  0.116141  0.000134  0.960403  0.0  0.124534  9.9e-05  1.022845  0.0  0.127915  5.1e-05  1.021666  0.0  0.104053  0.122183  0.000151  1.023706  0.0
H  H7  1  0.35884694  0.30580027  0.96402090  1  0.127067  -9e-06  0.937631  0.0  0.133298  -5e-06  1.00081  0.0  0.137252  -4e-06  0.997418  0.0  0.10838  0.130434  -5e-06  1.003338  0.0
H  H8  1  0.64115050  0.69420227  0.03597606  1  0.127035  -7e-06  0.937662  0.0  0.133267  -4e-06  1.000848  0.0  0.1372  -4e-06  0.997481  0.0  0.108365  0.130401  -5e-06  1.003372  0.0
H  H9  1  0.03014628  0.52241489  0.26446665  1  0.127139  0.000118  0.950137  0.0  0.133193  7.1e-05  1.016836  0.0  0.13635  2.9e-05  1.015215  0.0  0.10768  0.130982  0.000122  1.017953  0.0
H  H10  1  0.96984636  0.47759013  0.73553051  1  0.127168  0.000119  0.950196  0.0  0.133251  7.1e-05  1.016841  0.0  0.136408  2.9e-05  1.015219  0.0  0.107728  0.131044  0.000122  1.017965  0.0
H  H11  1  0.45207295  0.27832226  0.72715937  1  0.092017  0.000751  0.94355  0.002  0.102469  0.000606  1.002385  0.001  0.104756  0.000411  1.000109  0.001  0.121718  0.100547  0.000771  1.004389  0.002
H  H12  1  0.54793583  0.72167530  0.27284406  1  0.091919  0.000751  0.94364  0.002  0.102382  0.000607  1.002488  0.001  0.104678  0.000411  1.000204  0.001  0.121685  0.100459  0.000771  1.004487  0.002
H  H13  1  0.67160634  0.05990830  0.83860900  1  0.11587  0.000537  0.93238  0.001  0.129458  0.000473  0.983566  0.001  0.132131  0.000332  0.983509  0.0  0.114251  0.127421  0.000588  0.983921  0.001
H  H14  1  0.32839931  0.94009049  0.16139545  1  0.115854  0.000537  0.932262  0.001  0.129444  0.000474  0.98345  0.001  0.132118  0.000332  0.983395  0.0  0.114241  0.127403  0.000588  0.983808  0.001
H  H15  1  0.03195859  0.99613116  0.75276114  1  0.094115  0.00029  0.987523  0.001  0.104197  1.8e-05  1.051523  0.0  0.10623  -4e-05  1.050987  0.0  0.105154  0.102597  8.2e-05  1.05212  0.0
H  H16  1  0.96804657  0.00387267  0.24724298  1  0.094159  0.000291  0.987306  0.001  0.104182  1.8e-05  1.051371  0.0  0.106193  -4e-05  1.050861  0.0  0.105149  0.102604  8.2e-05  1.051945  0.0
H  H17  1  0.92736454  0.37080484  0.46353193  1  0.099501  0.000774  0.970354  0.002  0.104123  0.000649  1.039022  0.001  0.10657  0.000437  1.036688  0.001  0.120255  0.102186  0.000824  1.040828  0.002
H  H18  1  0.07263375  0.62918890  0.53646563  1  0.099539  0.000775  0.970291  0.002  0.104148  0.000649  1.039  0.001  0.106595  0.000437  1.036661  0.001  0.120251  0.102209  0.000825  1.040811  0.002
H  H19  1  0.32510356  0.10697488  0.60829795  1  0.042634  0.000392  0.946  0.001  0.053887  0.000181  1.017333  0.0  0.054211  9.6e-05  1.016377  0.0  0.092085  0.053634  0.000285  1.018162  0.0
H  H20  1  0.67490185  0.89302395  0.39169866  1  0.042651  0.000392  0.945992  0.001  0.053902  0.000181  1.017334  0.0  0.054228  9.6e-05  1.016376  0.0  0.092113  0.053645  0.000286  1.018172  0.0
H  H21  1  0.22157371  0.03062814  0.49098594  1  0.04621  0.000227  0.948557  0.0  0.063526  7.1e-05  1.009466  0.0  0.062139  6e-05  1.011663  0.0  0.097923  0.064663  8e-05  1.00788  0.0
H  H22  1  0.77842866  0.96937067  0.50901092  1  0.046214  0.000227  0.94863  0.0  0.06356  7.1e-05  1.009507  0.0  0.062174  6e-05  1.011703  0.0  0.097921  0.064691  8e-05  1.007926  0.0
C  C23  1  0.69263711  0.34811745  0.28172474  1  0.662568  -0.005304  3.8613  -0.006  0.610498  -0.000246  4.168251  -0.001  0.649915  -0.000768  4.158452  -0.001  0.212787  0.583657  0.000211  4.174131  -0.001
C  C24  1  0.30736387  0.65188132  0.71827660  1  0.662533  -0.005306  3.861408  -0.006  0.61046  -0.000246  4.168351  -0.001  0.649874  -0.000768  4.158554  -0.001  0.212798  0.583606  0.00021  4.174263  -0.001
C  C25  1  0.87229008  0.33995609  0.19091169  1  -0.200322  0.009524  3.783613  0.01  -0.183985  0.004974  4.029536  0.006  -0.197742  0.003419  4.052243  0.004  -0.040555  -0.174891  0.006338  4.014292  0.007
C  C26  1  0.12770438  0.66004641  0.80908726  1  -0.200281  0.009546  3.7836  0.01  -0.183922  0.004973  4.029481  0.006  -0.197678  0.003425  4.052191  0.004  -0.040555  -0.174825  0.006339  4.014237  0.007
C  C27  1  0.88203501  0.23008218  0.10100168  1  0.309439  0.000462  3.814136  0.001  0.290855  0.000593  4.082541  0.001  0.304163  0.000228  4.098158  0.0  0.080083  0.281784  0.000926  4.071743  0.001
C  C28  1  0.11795722  0.76992662  0.89899348  1  0.309407  0.000434  3.814255  0.001  0.290856  0.000598  4.082631  0.001  0.304158  0.000219  4.098256  0.0  0.080062  0.281784  0.000926  4.071832  0.001
C  C29  1  0.05691184  0.21924628  0.01890566  1  -0.169247  0.000744  3.726367  0.001  -0.187739  0.000322  3.984706  0.0  -0.194713  0.000254  4.004981  0.0  -0.103548  -0.183092  0.000402  3.970942  0.0
C  C30  1  0.94307734  0.78076250  0.98108975  1  -0.16909  0.000772  3.726247  0.001  -0.187606  0.000319  3.984581  0.0  -0.194589  0.00026  4.00485  0.0  -0.103481  -0.182951  0.000402  3.970786  0.0
C  C31  1  0.22068399  0.31422851  0.02579194  1  -0.134044  -0.000732  3.746152  0.0  -0.164288  -0.000184  4.012881  0.0  -0.163269  -0.000334  4.029396  0.0  -0.089878  -0.164672  -5.6e-05  4.001764  0.0
C  C32  1  0.77931056  0.68577275  0.97420623  1  -0.13411  -0.000777  3.746114  -0.001  -0.164357  -0.00018  4.012881  0.0  -0.16332  -0.000346  4.029405  0.0  -0.089916  -0.164737  -5.6e-05  4.001755  0.0
C  C33  1  0.20715415  0.42226949  0.11429752  1  0.288328  0.000647  3.791109  0.001  0.269111  4e-06  4.085931  0.0  0.275738  5.7e-05  4.098067  0.0  0.08256  0.264093  -9e-06  4.078106  0.0
C  C34  1  0.79284147  0.57773556  0.88569765  1  0.288432  0.000672  3.790798  0.001  0.269209  2e-06  4.085636  0.0  0.275837  6.2e-05  4.09777  0.0  0.082623  0.264191  -9e-06  4.077817  0.0
C  C35  1  0.03731003  0.43729335  0.19604198  1  -0.15323  -0.002217  3.746576  -0.002  -0.190791  -0.000349  4.008523  0.0  -0.18864  -0.00044  4.025178  0.0  -0.096391  -0.192045  -0.000305  3.997346  0.0
C  C36  1  0.96268550  0.56271296  0.80395398  1  -0.153344  -0.002259  3.746627  -0.002  -0.190927  -0.000349  4.008578  0.0  -0.188777  -0.00045  4.025234  0.0  -0.096462  -0.192187  -0.000305  3.997417  0.0
C  C37  1  0.60902231  0.24418994  0.69336252  1  0.115691  -0.009906  3.697011  -0.006  0.080088  -0.002287  3.963838  -0.001  0.089933  -0.003974  3.980174  -0.002  0.043746  0.073637  -0.00101  3.953473  0.0
C  C38  1  0.39098841  0.75580385  0.30664278  1  0.1158  -0.009908  3.696813  -0.006  0.080139  -0.002288  3.963705  -0.001  0.089977  -0.003974  3.980048  -0.002  0.043717  0.07369  -0.001011  3.953328  0.0
C  C39  1  0.73200844  0.12381868  0.75419217  1  -0.09645  0.009455  3.718373  0.01  -0.108938  0.003691  3.97011  0.005  -0.115146  0.003309  3.989226  0.004  -0.076799  -0.105085  0.003989  3.957674  0.005
C  C40  1  0.26799261  0.87618132  0.24581519  1  -0.096324  0.009455  3.718311  0.01  -0.108795  0.003691  3.970041  0.005  -0.115003  0.003309  3.989158  0.004  -0.076684  -0.104946  0.00399  3.95761  0.005
C  C41  1  0.93300209  0.08968515  0.70674818  1  -0.057478  -0.013053  3.692724  -0.008  -0.080622  -0.004941  3.932445  -0.003  -0.077478  -0.005403  3.950882  -0.003  -0.06519  -0.082675  -0.00455  3.920377  -0.003
C  C42  1  0.06701152  0.91030993  0.29325592  1  -0.057634  -0.013047  3.693034  -0.008  -0.080722  -0.004939  3.932764  -0.003  -0.077564  -0.0054  3.951213  -0.003  -0.065301  -0.082794  -0.004549  3.920678  -0.003
C  C43  1  0.00704492  0.17686584  0.59958620  1  0.019545  0.009279  3.720562  0.01  0.043497  0.003649  3.957249  0.005  0.037534  0.003209  3.980275  0.004  -0.004449  0.046952  0.004018  3.942069  0.005
C  C44  1  0.99295743  0.82313421  0.40041405  1  0.019453  0.009279  3.720423  0.01  0.043424  0.00365  3.957095  0.005  0.037467  0.003209  3.980112  0.004  -0.004447  0.046877  0.00402  3.941917  0.005
C  C45  1  0.87505404  0.29754619  0.54550806  1  0.079256  -0.009981  3.648994  -0.006  0.044221  -0.002355  3.901286  -0.001  0.052914  -0.004026  3.918298  -0.003  0.042312  0.038629  -0.001117  3.890382  0.0
C  C46  1  0.12495353  0.70244760  0.45449400  1  0.079273  -0.009981  3.648778  -0.006  0.044218  -0.002357  3.901092  -0.001  0.052912  -0.004025  3.918105  -0.003  0.042298  0.038626  -0.001118  3.890189  0.0
C  C47  1  0.21984795  0.14181071  0.54031936  1  0.12129  0.000424  3.693457  0.0  0.063572  0.000365  3.954759  0.0  0.072415  0.000183  3.960478  0.0  -0.069788  0.057644  0.000533  3.950573  0.0
C  C48  1  0.78015601  0.85818809  0.45967998  1  0.121304  0.000426  3.693549  0.0  0.063551  0.000364  3.954888  0.0  0.0724  0.000183  3.960591  0.0  -0.069795  0.057637  0.000533  3.950698  0.0
N  N49  1  0.67998254  0.32930690  0.59047797  1  -0.287846  0.077351  3.336123  0.1  -0.242203  0.051108  3.636161  0.071  -0.272944  0.040891  3.65914  0.061  -0.344201  -0.223567  0.057097  3.622491  0.075
N  N50  1  0.32002181  0.67068937  0.40952591  1  -0.287829  0.077357  3.336276  0.1  -0.242165  0.051113  3.636344  0.071  -0.272907  0.040893  3.659328  0.061  -0.344123  -0.223528  0.057103  3.622665  0.075
O  O51  1  0.67995384  0.46661717  0.34911788  1  -0.592388  0.076611  2.114821  0.106  -0.563016  0.048883  2.403449  0.074  -0.604107  0.036101  2.395076  0.059  -0.316519  -0.53514  0.057916  2.408828  0.083
O  O52  1  0.32004130  0.53337903  0.65088411  1  -0.592369  0.076622  2.114786  0.106  -0.563037  0.048889  2.403486  0.074  -0.604128  0.036105  2.395115  0.059  -0.316538  -0.535155  0.057921  2.408875  0.083
O  O53  1  0.56419248  0.23509888  0.28844789  1  -0.616246  0.000122  2.004659  0.001  -0.561717  6.8e-05  2.227551  0.001  -0.587754  -0.000624  2.216747  0.0  -0.306461  -0.543818  0.000703  2.234336  0.002
O  O54  1  0.43580587  0.76489485  0.71155142  1  -0.616236  0.000124  2.004786  0.001  -0.561714  6.7e-05  2.227661  0.001  -0.587745  -0.000623  2.216858  0.0  -0.306458  -0.54382  0.000702  2.23445  0.002
O  O55  1  0.27937446  0.28375520  0.46257755  1  -0.579498  -0.000337  2.157654  0.002  -0.534087  -0.000766  2.408919  0.001  -0.55437  -0.001378  2.393495  0.0  -0.410784  -0.519477  -5.8e-05  2.417983  0.002
O  O56  1  0.72062325  0.71624482  0.53742045  1  -0.579448  -0.000337  2.157759  0.002  -0.53408  -0.000765  2.409025  0.001  -0.554372  -0.001378  2.39362  0.0  -0.410804  -0.519468  -5.8e-05  2.418097  0.002
O  O57  1  0.72755751  0.13123910  0.09437546  1  -0.52122  0.000101  2.075667  0.0  -0.478892  -4.7e-05  2.292602  0.0  -0.497865  -0.000135  2.282787  0.0  -0.35992  -0.465108  7.4e-05  2.298887  0.0
O  O58  1  0.27243725  0.86876088  0.90562541  1  -0.521266  9.9e-05  2.075806  0.0  -0.478977  -5e-05  2.29275  0.0  -0.497942  -0.000136  2.282934  0.0  -0.359982  -0.465216  7.4e-05  2.298982  0.0
F  F59  1  0.36809060  0.51704651  0.11980317  1  -0.22624  -1.5e-05  1.220952  0.0  -0.163036  -5.3e-05  1.378558  0.0  -0.173016  -4.2e-05  1.370961  0.0  -0.102257  -0.155748  -5e-05  1.383811  0.0
F  F60  1  0.63190753  0.48294973  0.88019684  1  -0.226236  -1.4e-05  1.220757  0.0  -0.163042  -5.2e-05  1.378391  0.0  -0.173022  -4.2e-05  1.3708  0.0  -0.102267  -0.155749  -5e-05  1.383648  0.0
