# generated using pymatgen
data_ZnH17C24NCl7O4
_symmetry_space_group_name_H-M   'P 1'
_cell_length_a   14.64857831
_cell_length_b   15.14168869
_cell_length_c   15.87447778
_cell_angle_alpha   91.70213259
_cell_angle_beta   89.56809986
_cell_angle_gamma   89.93597352
_symmetry_Int_Tables_number   1
_chemical_formula_structural   ZnH17C24NCl7O4
_chemical_formula_sum   'Zn2 H34 C48 N2 Cl14 O8'
_cell_volume   3519.36924823
_cell_formula_units_Z   2
loop_
 _symmetry_equiv_pos_site_id
 _symmetry_equiv_pos_as_xyz
  1  'x, y, z'
loop_
 _atom_site_type_symbol
 _atom_site_label
 _atom_site_symmetry_multiplicity
 _atom_site_fract_x
 _atom_site_fract_y
 _atom_site_fract_z
 _atom_site_occupancy
 _atom_site_pbe_bader_charge
 _atom_site_pbe_bader_spin_density
 _atom_site_pbe_cm5_charge
 _atom_site_pbe_ddec_charge
 _atom_site_pbe_ddec_spin_density
 _atom_site_pbe_ddec_sum_bond_order
 _atom_site_pbe_magmom
Zn  Zn0  1  0.39500320  0.49632296  0.50282404  1  1.332401  0  0.675507  0.904105  0  2.309816  0
Zn  Zn1  1  0.60256130  0.49940735  0.49801054  1  1.319024  0  0.67429  0.906399  0  2.294505  0
H  H2  1  0.93629369  0.52380582  0.62471921  1  0.092289  0  0.120874  0.148367  0  0.970252  0
H  H3  1  0.64413285  0.16881195  0.32556859  1  0.018444  0  0.087276  0.119842  0  1.003791  0
H  H4  1  0.68778161  0.64106776  0.92592762  1  0.035263  0  0.085856  0.140499  0  0.996129  0
H  H5  1  0.57671948  0.68655110  0.92071638  1  0.082354  0  0.073067  0.133676  0  1.081157  0
H  H6  1  0.61643050  0.61277935  0.83896692  1  0.035336  0  0.084818  0.143394  0  1.006295  0
H  H7  1  0.32503035  0.55180803  0.83708420  1  0.086089  0  0.091265  0.148456  0  1.003477  0
H  H8  1  0.28074094  0.48259314  0.91569433  1  0.051218  0  0.077929  0.129533  0  1.064412  0
H  H9  1  0.26535197  0.59876261  0.92531748  1  0.065896  0  0.089982  0.141314  0  0.991333  0
H  H10  1  0.71825780  0.58100569  0.08169334  1  0.038021  0  0.088115  0.140647  0  0.996214  0
H  H11  1  0.65161815  0.54731250  0.16878664  1  0.050608  0  0.085591  0.137058  0  1.020874  0
H  H12  1  0.69118829  0.46839310  0.09147602  1  0.042428  0  0.083885  0.135229  0  1.054662  0
H  H13  1  0.06109026  0.62944502  0.53809775  1  0.111657  0  0.12141  0.148782  0  0.970511  0
H  H14  1  0.24870364  0.54261871  0.06274660  1  0.054989  0  0.091112  0.14242  0  0.992164  0
H  H15  1  0.29761956  0.43869443  0.03644146  1  0.051763  0  0.079543  0.120413  0  1.077513  0
H  H16  1  0.30804937  0.48535771  0.14114026  1  0.082118  0  0.0954  0.148811  0  0.987159  0
H  H17  1  0.43336296  0.27338797  0.06836677  1  0.044718  0  0.089066  0.129336  0  1.002114  0
H  H18  1  0.44586208  0.33763733  0.16279506  1  0.05759  0  0.09328  0.138779  0  0.995997  0
H  H19  1  0.35360473  0.35698938  0.09479340  1  0.071547  0  0.085539  0.129474  0  1.055972  0
H  H20  1  0.64221938  0.37530937  0.03455202  1  0.069689  0  0.07344  0.115809  0  1.092236  0
H  H21  1  0.59879458  0.37240369  0.14042266  1  0.023771  0  0.092466  0.138175  0  0.993537  0
H  H22  1  0.57598784  0.28558844  0.06643561  1  0.053545  0  0.089179  0.133333  0  0.996906  0
H  H23  1  0.40639720  0.01546356  0.38466947  1  0.038822  0  0.090646  0.131871  0  1.013995  0
H  H24  1  0.42255739  0.07160657  0.61732749  1  0.069389  0  0.100015  0.106712  0  1.00194  0
H  H25  1  0.46481400  0.94518959  0.31043865  1  0.039952  0  0.091424  0.13025  0  0.990026  0
H  H26  1  0.35890676  0.91163628  0.35170826  1  0.063667  0  0.087493  0.126813  0  1.00567  0
H  H27  1  0.59408408  0.02447280  0.64083078  1  0.034867  0  0.092672  0.135798  0  1.012883  0
H  H28  1  0.52925690  0.95704967  0.70847343  1  0.03095  0  0.09226  0.130409  0  0.987483  0
H  H29  1  0.64005619  0.92347430  0.67750591  1  0.047769  0  0.085503  0.12379  0  1.015335  0
H  H30  1  0.59557913  0.04648179  0.39811982  1  0.059424  0  0.099772  0.106278  0  1.001742  0
H  H31  1  0.36697666  0.28746219  0.61183260  1  0.062823  0  0.085182  0.130082  0  1.020706  0
H  H32  1  0.39690617  0.20592282  0.68564725  1  0.003117  0  0.087162  0.121522  0  1.003952  0
H  H33  1  0.47076032  0.29615007  0.66657803  1  0.05758  0  0.091758  0.138455  0  0.991304  0
H  H34  1  0.59218155  0.27416033  0.34447339  1  0.044966  0  0.08954  0.131008  0  0.996607  0
H  H35  1  0.69113675  0.24639764  0.39999048  1  0.042675  0  0.089313  0.131347  0  1.001558  0
C  C36  1  0.52015731  0.66504002  0.50348707  1  1.629045  0  0.211147  0.627699  0  4.173643  0
C  C37  1  0.54180801  0.81380265  0.57669671  1  0.007537  0  0.010038  0.068359  0  4.007733  0
C  C38  1  0.51366990  0.76425264  0.50585005  1  0.036971  0  -0.028859  -0.143257  0  4.001413  0
C  C39  1  0.50417737  0.94983712  0.50969615  1  0.008245  0  -0.007336  -0.033589  0  3.921953  0
C  C40  1  0.46336146  0.10195440  0.56818859  1  -0.061663  0  -0.098318  -0.214425  0  3.969643  0
C  C41  1  0.56035918  0.08803305  0.44546506  1  -0.02439  0  -0.097826  -0.211566  0  3.961573  0
C  C42  1  0.47407810  0.49742269  0.66101952  1  1.731457  0  0.221724  0.678112  0  4.222568  0
C  C43  1  0.47044417  0.19403307  0.56796925  1  -0.013512  0  -0.005327  0.164184  0  3.969957  0
C  C44  1  0.56976219  0.17976671  0.44286129  1  -0.054987  0  -0.006222  0.162321  0  3.976818  0
C  C45  1  0.52408018  0.23257071  0.50452514  1  -0.018677  0  -0.021777  -0.159609  0  3.88234  0
C  C46  1  0.50789673  0.04797080  0.50769778  1  -0.045699  0  -0.010515  0.093967  0  4.057464  0
C  C47  1  0.49277320  0.40154443  0.05070393  1  0.041372  0  -0.000416  0.151457  0  3.593245  0
C  C48  1  0.90061662  0.51372393  0.56535960  1  0.083248  0  -0.084596  -0.232847  0  3.929339  0
C  C49  1  0.09726830  0.56867892  0.52095165  1  0.05062  0  -0.08485  -0.234439  0  3.931766  0
C  C50  1  0.80552847  0.51711245  0.56354594  1  0.662575  0  0.152973  0.302235  0  4.066316  0
C  C51  1  0.19216513  0.56523795  0.52626685  1  0.619857  0  0.154133  0.304392  0  4.063407  0
C  C52  1  0.80328709  0.48612571  0.42053361  1  0.727959  0  0.150578  0.240374  0  4.046903  0
C  C53  1  0.19586274  0.42048260  0.47693747  1  0.651845  0  0.150347  0.242236  0  4.043938  0
C  C54  1  0.89933295  0.48505477  0.41553575  1  0.067943  0  0.009959  -0.012479  0  4.030396  0
C  C55  1  0.09993754  0.41655928  0.47271442  1  0.18352  0  0.010429  -0.011026  0  4.028863  0
C  C56  1  0.94881938  0.49651611  0.49056130  1  0.059534  0  0.00788  0.086266  0  3.99017  0
C  C57  1  0.04990116  0.49359351  0.49321662  1  0.012849  0  0.007794  0.084596  0  3.992001  0
C  C58  1  0.47856521  0.40249090  0.95196492  1  0.233525  0  0.081356  0.173851  0  3.526379  0
C  C59  1  0.52926240  0.33123156  0.50087775  1  1.567857  0  0.219898  0.630287  0  4.126384  0
C  C60  1  0.46837462  0.49956186  0.34141458  1  1.692551  0  0.218076  0.679281  0  4.231126  0
C  C61  1  0.40299794  0.56203404  0.95213831  1  0.114094  0  0.042698  0.175188  0  3.541121  0
C  C62  1  0.58475024  0.54526018  0.95328138  1  0.121183  0  0.043767  0.181034  0  3.517201  0
C  C63  1  0.57734872  0.55641228  0.05291584  1  0.115438  0  0.039849  0.171429  0  3.552914  0
C  C64  1  0.39435932  0.54997637  0.05084547  1  0.125934  0  0.036089  0.165863  0  3.579453  0
C  C65  1  0.47290905  0.50259254  0.25061418  1  0.229131  0  -0.041895  -0.18273  0  3.919141  0
C  C66  1  0.48991853  0.50205477  0.91872455  1  0.17317  0  0.00688  -0.010311  0  3.696638  0
C  C67  1  0.48711592  0.50512945  0.08376277  1  0.092136  0  0.009293  -0.001273  0  3.666102  0
C  C68  1  0.42359856  0.24859867  0.63653569  1  -0.042214  0  -0.243693  -0.411996  0  3.965349  0
C  C69  1  0.48270992  0.50531087  0.17474205  1  -0.485412  0  -0.033651  -0.013229  0  4.092036  0
C  C70  1  0.62723886  0.21916519  0.37439064  1  -0.034794  0  -0.241597  -0.409564  0  3.984424  0
C  C71  1  0.61720745  0.62777477  0.90698718  1  -0.018  0  -0.27178  -0.464484  0  3.969879  0
C  C72  1  0.31259035  0.54603938  0.90481010  1  -0.077091  0  -0.264821  -0.450641  0  3.942029  0
C  C73  1  0.66505838  0.53505641  0.10141707  1  -0.016947  0  -0.264283  -0.455422  0  3.961223  0
C  C74  1  0.30702211  0.49941663  0.07386090  1  -0.085468  0  -0.258967  -0.435542  0  3.92618  0
C  C75  1  0.42547952  0.33997508  0.09656894  1  -0.098885  0  -0.254855  -0.426008  0  3.918289  0
C  C76  1  0.58442365  0.35726651  0.07384196  1  -0.08666  0  -0.257863  -0.424621  0  3.906984  0
C  C77  1  0.42241974  0.94648607  0.36799760  1  -0.051419  0  -0.244839  -0.407687  0  4.00624  0
C  C78  1  0.57808280  0.95599281  0.65535510  1  -0.028474  0  -0.245074  -0.406623  0  4.001347  0
C  C79  1  0.48879233  0.49948138  0.82782518  1  -0.223299  0  -0.046584  -0.041833  0  4.138213  0
C  C80  1  0.48038019  0.49838711  0.75187251  1  -0.115311  0  -0.035666  -0.159995  0  3.917741  0
C  C81  1  0.46906646  0.90181857  0.43935120  1  0.05207  0  -0.016212  0.061926  0  3.966976  0
C  C82  1  0.54009331  0.90651184  0.57994926  1  0.152444  0  -0.015036  0.065013  0  3.960242  0
C  C83  1  0.47697146  0.80942142  0.43830165  1  -0.021862  0  0.010263  0.065919  0  4.014719  0
N  N84  1  0.75743814  0.50204320  0.49297063  1  -1.181178  0  -0.295363  -0.296029  0  3.41189  0
N  N85  1  0.24092737  0.49325209  0.50335724  1  -1.197073  0  -0.296615  -0.295148  0  3.409727  0
Cl  Cl86  1  0.37002022  0.65345173  0.10820875  1  -0.221445  0  -0.051011  -0.143613  0  1.565281  0
Cl  Cl87  1  0.68213596  0.47320717  0.92423699  1  -0.241992  0  -0.028224  -0.11778  0  1.552584  0
Cl  Cl88  1  0.36945797  0.35510793  0.92073090  1  -0.208958  0  0.003222  -0.080056  0  1.568141  0
Cl  Cl89  1  0.55220012  0.32499975  0.89539933  1  -0.179249  0  -0.023827  -0.104908  0  1.573277  0
Cl  Cl90  1  0.44189941  0.74888240  0.34964652  1  -0.206982  0  -0.00497  -0.059365  0  1.530147  0
Cl  Cl91  1  0.57903763  0.75735583  0.66405665  1  -0.217711  0  -0.012631  -0.072436  0  1.516136  0
Cl  Cl92  1  0.56965653  0.67415914  0.08172869  1  -0.229672  0  -0.034273  -0.116167  0  1.560121  0
Cl  Cl93  1  0.74716893  0.54084162  0.65490194  1  -0.119383  0  0.05762  -0.011683  0  1.537886  0
Cl  Cl94  1  0.24929651  0.65624014  0.56365281  1  -0.120017  0  0.056717  -0.009005  0  1.504857  0
Cl  Cl95  1  0.74090387  0.46686687  0.33184194  1  -0.106112  0  0.068538  0.01617  0  1.614996  0
Cl  Cl96  1  0.25904670  0.32979176  0.44874945  1  -0.104943  0  0.066469  0.011018  0  1.602939  0
Cl  Cl97  1  0.95394164  0.47317501  0.32021935  1  -0.154385  0  0.015868  -0.036165  0  1.582016  0
Cl  Cl98  1  0.04599829  0.31946714  0.44680222  1  -0.154004  0  0.015749  -0.036121  0  1.58719  0
Cl  Cl99  1  0.42080014  0.67629451  0.92424414  1  -0.219009  0  -0.01875  -0.102034  0  1.584896  0
O  O100  1  0.44526218  0.62398708  0.50715780  1  -1.184136  0  -0.315287  -0.574048  0  2.4265  0
O  O101  1  0.60005481  0.63170987  0.49831240  1  -1.132539  0  -0.321496  -0.544199  0  2.304  0
O  O102  1  0.39373270  0.49496782  0.63007955  1  -1.134084  0  -0.319761  -0.545466  0  2.251812  0
O  O103  1  0.54932212  0.49897168  0.62135447  1  -1.163273  0  -0.311311  -0.570667  0  2.362315  0
O  O104  1  0.45353505  0.37182093  0.49957716  1  -1.177956  0  -0.317116  -0.580556  0  2.420978  0
O  O105  1  0.60825403  0.36729243  0.49846656  1  -1.147495  0  -0.3209  -0.547175  0  2.289684  0
O  O106  1  0.38924953  0.49757853  0.37572307  1  -1.13749  0  -0.321916  -0.549153  0  2.25807  0
O  O107  1  0.54492331  0.49844131  0.37800008  1  -1.167017  0  -0.314671  -0.574398  0  2.368663  0
