# generated using pymatgen
data_Zn2H24C26S3N2O17
_symmetry_space_group_name_H-M   'P 1'
_cell_length_a   9.91126862
_cell_length_b   10.61243125
_cell_length_c   11.21880018
_cell_angle_alpha   85.02170157
_cell_angle_beta   88.80370264
_cell_angle_gamma   88.93463999
_symmetry_Int_Tables_number   1
_chemical_formula_structural   Zn2H24C26S3N2O17
_chemical_formula_sum   'Zn2 H24 C26 S3 N2 O17'
_cell_volume   1175.14867120
_cell_formula_units_Z   1
loop_
 _symmetry_equiv_pos_site_id
 _symmetry_equiv_pos_as_xyz
  1  'x, y, z'
loop_
 _atom_site_type_symbol
 _atom_site_label
 _atom_site_symmetry_multiplicity
 _atom_site_fract_x
 _atom_site_fract_y
 _atom_site_fract_z
 _atom_site_occupancy
 _atom_site_pbe_bader_charge
 _atom_site_pbe_bader_spin_density
 _atom_site_pbe_cm5_charge
 _atom_site_pbe_ddec_charge
 _atom_site_pbe_ddec_spin_density
 _atom_site_pbe_ddec_sum_bond_order
 _atom_site_pbe_magmom
Zn  Zn0  1  0.34316185  0.50173150  0.51184337  1  1.292434  0  0.702168  0.863931  0  2.321078  0
Zn  Zn1  1  0.64521070  0.49718646  0.49048042  1  1.297824  0  0.691201  0.842345  0  2.395877  0
H  H2  1  0.28124778  0.12487156  0.41053097  1  0.04481  0  0.091108  0.091478  0  0.984698  0
H  H3  1  0.65074882  0.88058529  0.61441992  1  0.046183  0  0.092988  0.093096  0  0.982766  0
H  H4  1  0.65350697  0.12441895  0.33197507  1  0.063466  0  0.093582  0.096066  0  0.984805  0
H  H5  1  0.68468286  0.90738991  0.38783190  1  0.040684  0  0.093357  0.0961  0  0.981217  0
H  H6  1  0.71147436  0.52107780  0.83487329  1  0.126909  0  0.113207  0.125152  0  0.989209  0
H  H7  1  0.75227614  0.55410426  0.04682191  1  0.147292  0  0.11443  0.126838  0  0.994271  0
H  H8  1  0.27073097  0.36278510  0.17500619  1  0.102624  0  0.110712  0.145278  0  0.962064  0
H  H9  1  0.22089059  0.52427241  0.13974275  1  0.108856  0  0.102649  0.1158  0  1.060684  0
H  H10  1  0.85343653  0.66425666  0.37538021  1  0.174571  0  0.139134  0.12797  0  0.977982  0
H  H11  1  0.30530388  0.09892075  0.56660105  1  0.012825  0  0.091433  0.08924  0  0.992746  0
H  H12  1  0.13151930  0.21448918  0.55036270  1  0.087672  0  0.111638  0.133966  0  0.995181  0
H  H13  1  0.15195219  0.29217739  0.68423170  1  0.167713  0  0.108303  0.152664  0  1.023921  0
H  H14  1  0.88020490  0.21135598  0.58836336  1  0.107377  0  0.1107  0.130355  0  0.979154  0
H  H15  1  0.90090163  0.30059802  0.71592280  1  0.099608  0  0.117275  0.1486  0  0.958061  0
H  H16  1  0.28202933  0.88500325  0.53872892  1  0.047179  0  0.093414  0.100615  0  0.981272  0
H  H17  1  0.30751067  0.90956736  0.38337724  1  0.06276  0  0.090972  0.10176  0  0.996457  0
H  H18  1  0.49085787  0.10170780  0.27522593  1  0.01235  0  0.087419  0.087548  0  0.987043  0
H  H19  1  0.54846336  0.88624488  0.29283736  1  0.020236  0  0.091941  0.092376  0  0.974519  0
H  H20  1  0.67857394  0.09695577  0.55855188  1  0.029784  0  0.089861  0.083929  0  1.003987  0
H  H21  1  0.53799850  0.11997044  0.65442233  1  0.032878  0  0.091455  0.09145  0  0.977567  0
H  H22  1  0.48525654  0.90482576  0.67222028  1  0.030489  0  0.094727  0.095549  0  0.970632  0
H  H23  1  0.41134617  0.16309002  0.00542602  1  0.643141  0  0.358588  0.40658  0  0.829659  0
H  H24  1  0.02945760  0.58130163  0.07364194  1  0.676268  0  0.312265  0.400155  0  0.930461  0
H  H25  1  0.38193036  0.59886205  0.26732159  1  0.682495  0  0.316773  0.397099  0  0.938348  0
C  C26  1  0.48429155  0.46418770  0.72942031  1  1.600712  0  0.220135  0.598642  0  4.175337  0
C  C27  1  0.49244062  0.88024830  0.48211076  1  0.090156  0  -0.015894  0.024036  0  3.801893  0
C  C28  1  0.57799652  0.93214789  0.37231174  1  -0.011719  0  -0.157173  -0.171607  0  3.854422  0
C  C29  1  0.55347876  0.92870437  0.59527080  1  -0.04957  0  -0.155642  -0.174104  0  3.854021  0
C  C30  1  0.40101922  0.45818118  0.94843997  1  -0.033506  0  -0.008458  0.012163  0  3.921535  0
C  C31  1  0.50229742  0.47408688  0.86041282  1  0.00932  0  0.002551  -0.036407  0  3.92063  0
C  C32  1  0.62935934  0.50881324  0.90068688  1  -0.045996  0  -0.071619  -0.08672  0  3.920237  0
C  C33  1  0.65219369  0.52842112  0.01979251  1  -0.032148  0  -0.062991  -0.060308  0  3.918119  0
C  C34  1  0.54748899  0.51566973  0.10658957  1  -0.023077  0  -0.012736  -0.096828  0  3.996766  0
C  C35  1  0.42300868  0.47882674  0.06740579  1  0.015295  0  -0.001089  0.081529  0  3.898451  0
C  C36  1  0.28139278  0.44530566  0.10982580  1  -0.050276  0  -0.1528  -0.243246  0  3.856717  0
C  C37  1  0.49286112  0.27034105  0.45981975  1  1.559043  0  0.232128  0.602368  0  4.073004  0
C  C38  1  0.25569693  0.41900700  0.97564270  1  -0.173508  0  0.003544  -0.205535  0  3.719934  0
C  C39  1  0.93215383  0.41166944  0.54358693  1  0.549292  0  0.147562  0.206654  0  3.854957  0
C  C40  1  0.91586980  0.59134102  0.42227905  1  0.524825  0  0.072222  0.059946  0  3.834846  0
C  C41  1  0.05630225  0.59180720  0.40523420  1  0.390001  0  0.125523  0.032209  0  3.833892  0
C  C42  1  0.07206707  0.41362731  0.52920296  1  0.545166  0  0.142159  0.209737  0  3.848547  0
C  C43  1  0.09246639  0.28970356  0.60340434  1  -0.037046  0  -0.144452  -0.238929  0  3.79388  0
C  C44  1  0.93329944  0.28986666  0.62318036  1  -0.052639  0  -0.134454  -0.222177  0  3.801092  0
C  C45  1  0.57219523  0.53237019  0.23327293  1  1.525627  0  0.241965  0.612602  0  4.07678  0
C  C46  1  0.49669808  0.73661224  0.49267622  1  1.489453  0  0.235778  0.609282  0  4.063753  0
C  C47  1  0.34603582  0.07632689  0.47895882  1  -0.027698  0  -0.164785  -0.179856  0  3.891475  0
C  C48  1  0.34740954  0.93236014  0.46932090  1  -0.02166  0  -0.168567  -0.188786  0  3.877091  0
C  C49  1  0.55692142  0.07727244  0.35180545  1  -0.054882  0  -0.158075  -0.174062  0  3.85699  0
C  C50  1  0.57189290  0.07345562  0.57485907  1  -0.018782  0  -0.15558  -0.170983  0  3.858958  0
C  C51  1  0.49009113  0.12688349  0.46477017  1  0.014218  0  -0.015937  0.021929  0  3.808128  0
S  S52  1  0.22259679  0.25262379  0.95948799  1  3.051042  0  0.54303  1.141197  0  5.94463  0
S  S53  1  0.12279097  0.52528963  0.90701751  1  3.138507  0  0.539716  1.159414  0  5.991383  0
S  S54  1  0.11161388  0.70622506  0.28434453  1  3.262455  0  0.522589  1.144557  0  6.266756  0
N  N55  1  0.85104516  0.50103133  0.49320020  1  -1.227577  0  -0.292362  -0.187851  0  3.482182  0
N  N56  1  0.13933503  0.50424979  0.46374216  1  -1.21886  0  -0.287565  -0.229984  0  3.436489  0
O  O57  1  0.36396375  0.46555611  0.69150360  1  -1.146817  0  -0.303609  -0.517375  0  2.306251  0
O  O58  1  0.59242423  0.45912605  0.66676631  1  -1.182549  0  -0.317751  -0.561456  0  2.354107  0
O  O59  1  0.38003357  0.33014968  0.46548271  1  -1.174521  0  -0.315301  -0.552202  0  2.40379  0
O  O60  1  0.60809127  0.32186059  0.45312156  1  -1.159967  0  -0.313106  -0.540618  0  2.371836  0
O  O61  1  0.46493545  0.55386995  0.30340869  1  -1.206032  0  -0.3307  -0.537896  0  2.465246  0
O  O62  1  0.68460478  0.52053486  0.27849299  1  -1.12747  0  -0.263703  -0.463946  0  2.192517  0
O  O63  1  0.38498567  0.67987183  0.51079067  1  -1.161479  0  -0.308655  -0.531172  0  2.414346  0
O  O64  1  0.61182220  0.68221494  0.48300917  1  -1.169497  0  -0.315288  -0.55246  0  2.381552  0
O  O65  1  0.09213650  0.22376058  0.01035970  1  -1.267978  0  -0.294301  -0.479537  0  2.098538  0
O  O66  1  0.26415390  0.22097778  0.84176458  1  -1.287053  0  -0.299783  -0.523139  0  2.181464  0
O  O67  1  0.33122444  0.18539206  0.05221551  1  -1.183662  0  -0.353956  -0.527121  0  2.145486  0
O  O68  1  0.18316268  0.64782535  0.89086654  1  -1.279455  0  -0.309876  -0.510427  0  2.096805  0
O  O69  1  0.06419440  0.46864320  0.80887614  1  -1.298515  0  -0.303639  -0.530742  0  2.203173  0
O  O70  1  0.01081428  0.52200126  0.00894547  1  -1.253954  0  -0.350407  -0.52911  0  2.227581  0
O  O71  1  0.03412734  0.66455306  0.18423989  1  -1.319543  0  -0.336018  -0.595139  0  2.217562  0
O  O72  1  0.07013991  0.82826244  0.32095551  1  -1.298275  0  -0.327493  -0.538897  0  2.105418  0
O  O73  1  0.25769392  0.68781632  0.26737420  1  -1.327827  0  -0.336436  -0.59359  0  2.301721  0
