# generated using pymatgen
data_KH23C22O15
_symmetry_space_group_name_H-M   'P 1'
_cell_length_a   7.04328762
_cell_length_b   8.75699015
_cell_length_c   19.15820000
_cell_angle_alpha   103.22296933
_cell_angle_beta   90.00000000
_cell_angle_gamma   90.00000000
_symmetry_Int_Tables_number   1
_chemical_formula_structural   KH23C22O15
_chemical_formula_sum   'K2 H46 C44 O30'
_cell_volume   1150.31099035
_cell_formula_units_Z   2
loop_
 _symmetry_equiv_pos_site_id
 _symmetry_equiv_pos_as_xyz
  1  'x, y, z'
loop_
 _atom_site_type_symbol
 _atom_site_label
 _atom_site_symmetry_multiplicity
 _atom_site_fract_x
 _atom_site_fract_y
 _atom_site_fract_z
 _atom_site_occupancy
 _atom_site_hle17_bader_spin_density
 _atom_site_hle17_ddec_charge
 _atom_site_hle17_ddec_spin_density
 _atom_site_hle17_ddec_sum_bond_order
 _atom_site_hle17_magmom
 _atom_site_hse06_10hf_bader_spin_density
 _atom_site_hse06_10hf_ddec_charge
 _atom_site_hse06_10hf_ddec_spin_density
 _atom_site_hse06_10hf_ddec_sum_bond_order
 _atom_site_hse06_10hf_magmom
 _atom_site_hse06_bader_spin_density
 _atom_site_hse06_ddec_charge
 _atom_site_hse06_ddec_spin_density
 _atom_site_hse06_ddec_sum_bond_order
 _atom_site_hse06_magmom
 _atom_site_pbe_bader_charge
 _atom_site_pbe_bader_spin_density
 _atom_site_pbe_cm5_charge
 _atom_site_pbe_ddec_charge
 _atom_site_pbe_ddec_spin_density
 _atom_site_pbe_ddec_sum_bond_order
 _atom_site_pbe_magmom
K  K0  1  0.89367499  0.83942080  0.72107455  1  0  0.914104  0  0.478853  0  0  0.867019  0  0.66018  0  0  0.880575  0  0.636351  0  0.888783  0  0.790987  0.85616  0  0.678413  0
K  K1  1  0.39368121  0.16058172  0.27892540  1  0  0.914107  0  0.478862  0  0  0.867036  0  0.660173  0  0  0.880592  0  0.636339  0  0.888828  0  0.790986  0.856177  0  0.678406  0
H  H2  1  0.71153846  0.75250399  0.86038870  1  0  0.377628  0  0.920151  0  0  0.347876  0  0.996625  0  0  0.361659  0  0.98273  0  0.639113  0  0.300789  0.337714  0  1.007405  0
H  H3  1  0.21153758  0.24749735  0.13961113  1  0  0.377616  0  0.920142  0  0  0.347863  0  0.996624  0  0  0.361645  0  0.982731  0  0.639115  0  0.300779  0.337702  0  1.007402  0
H  H4  1  0.69341198  0.14999381  0.67987964  1  0  0.38281  0  0.890512  0  0  0.356936  0  0.960663  0  0  0.368162  0  0.948253  0  0.670179  0  0.319957  0.34929  0  0.968819  0
H  H5  1  0.19340968  0.85000754  0.32012018  1  0  0.382793  0  0.890507  0  0  0.356886  0  0.960703  0  0  0.36811  0  0.948299  0  0.67015  0  0.319956  0.349242  0  0.968854  0
H  H6  1  0.77553272  0.10055346  0.91267327  1  0  0.388022  0  0.882039  0  0  0.361742  0  0.952659  0  0  0.373875  0  0.940116  0  0.635364  0  0.312692  0.353259  0  0.961365  0
H  H7  1  0.27553752  0.89944671  0.08732644  1  0  0.388094  0  0.881895  0  0  0.361776  0  0.952576  0  0  0.373911  0  0.940031  0  0.635358  0  0.312708  0.353292  0  0.961283  0
H  H8  1  0.76815406  0.34406480  0.11529897  1  0  0.144089  0  0.913016  0  0  0.154773  0  0.967271  0  0  0.159823  0  0.963912  0  0.13866  0  0.122462  0.150824  0  0.969969  0
H  H9  1  0.26815744  0.65593420  0.88470218  1  0  0.144114  0  0.912996  0  0  0.154801  0  0.967251  0  0  0.159851  0  0.963893  0  0.138685  0  0.12247  0.150852  0  0.969951  0
H  H10  1  0.78775996  0.68556298  0.26494557  1  0  0.379226  0  0.924695  0  0  0.344326  0  1.00879  0  0  0.357685  0  0.995832  0  0.623706  0  0.291903  0.335011  0  1.017625  0
H  H11  1  0.28776050  0.31443719  0.73505518  1  0  0.379198  0  0.924737  0  0  0.34427  0  1.008884  0  0  0.357629  0  0.995926  0  0.623706  0  0.291891  0.334957  0  1.017713  0
H  H12  1  0.86703686  0.01195685  0.12016007  1  0  0.126552  0  0.965952  0  0  0.145209  0  1.024377  0  0  0.148285  0  1.022221  0  0.070072  0  0.093358  0.142526  0  1.027315  0
H  H13  1  0.36703314  0.98804449  0.87983924  1  0  0.126563  0  0.965912  0  0  0.145207  0  1.024356  0  0  0.148284  0  1.022196  0  0.070085  0  0.093357  0.142523  0  1.027295  0
H  H14  1  0.90629268  0.92949310  0.02690246  1  0  0.125853  0  0.956404  0  0  0.141182  0  1.023305  0  0  0.143264  0  1.022066  0  0.083648  0  0.093504  0.13974  0  1.02448  0
H  H15  1  0.40628896  0.07050942  0.97309697  1  0  0.125873  0  0.956381  0  0  0.141197  0  1.02328  0  0  0.143279  0  1.02204  0  0.083682  0  0.093503  0.139755  0  1.024453  0
H  H16  1  0.67767217  0.98701104  0.05803656  1  0  0.136582  0  0.924943  0  0  0.156602  0  0.986596  0  0  0.158916  0  0.98456  0  0.07886  0  0.101827  0.154666  0  0.988788  0
H  H17  1  0.17766703  0.01298679  0.94196342  1  0  0.136588  0  0.924927  0  0  0.15661  0  0.986568  0  0  0.158923  0  0.984532  0  0.078811  0  0.101843  0.154673  0  0.988758  0
H  H18  1  0.65528064  0.53257791  0.68508776  1  0  0.056817  0  0.909883  0  0  0.064198  0  0.976141  0  0  0.066549  0  0.972856  0  0.072499  0  0.115903  0.062281  0  0.978744  0
H  H19  1  0.15528260  0.46742344  0.31491207  1  0  0.05684  0  0.909913  0  0  0.064202  0  0.976174  0  0  0.066549  0  0.972886  0  0.072518  0  0.115914  0.062286  0  0.978775  0
H  H20  1  0.99361128  0.30427979  0.65175580  1  0  0.053956  0  0.909488  0  0  0.06351  0  0.973069  0  0  0.064884  0  0.971585  0  0.048477  0  0.109207  0.06226  0  0.974308  0
H  H21  1  0.49361324  0.69572155  0.34824403  1  0  0.053983  0  0.90941  0  0  0.063504  0  0.973037  0  0  0.064878  0  0.971553  0  0.048445  0  0.109209  0.062254  0  0.974277  0
H  H22  1  0.11851000  0.51516170  0.71976502  1  0  0.379338  0  0.913975  0  0  0.355808  0  0.984327  0  0  0.366082  0  0.969453  0  0.655517  0  0.300953  0.348269  0  0.993437  0
H  H23  1  0.61851230  0.48483847  0.28023469  1  0  0.379305  0  0.914009  0  0  0.355777  0  0.984362  0  0  0.366051  0  0.969496  0  0.65547  0  0.300931  0.348238  0  0.993473  0
H  H24  1  0.84773338  0.54041737  0.56917202  1  0  0.039992  0  0.909468  0  0  0.052078  0  0.973708  0  0  0.052746  0  0.972942  0  0.036765  0  0.110551  0.051667  0  0.974116  0
H  H25  1  0.34773392  0.45958280  0.43082716  1  0  0.040005  0  0.909479  0  0  0.052084  0  0.973712  0  0  0.05275  0  0.972954  0  0.036804  0  0.110536  0.051674  0  0.974119  0
H  H26  1  0.14050825  0.49984994  0.53876311  1  0  0.373269  0  0.930981  0  0  0.343649  0  1.010479  0  0  0.354133  0  0.998706  0  0.631862  0  0.294055  0.336311  0  1.018641  0
H  H27  1  0.64050771  0.50014906  0.46123647  1  0  0.373264  0  0.93097  0  0  0.343645  0  1.010467  0  0  0.354131  0  0.998692  0  0.63186  0  0.294065  0.336306  0  1.018629  0
H  H28  1  0.82122729  0.18338807  0.52529944  1  0  0.054907  0  0.952587  0  0  0.059015  0  1.024229  0  0  0.061438  0  1.021272  0  0.105286  0  0.107475  0.057257  0  1.02636  0
H  H29  1  0.32122641  0.81661328  0.47470091  1  0  0.054939  0  0.952594  0  0  0.059031  0  1.024235  0  0  0.061454  0  1.021278  0  0.105285  0  0.107486  0.057271  0  1.026368  0
H  H30  1  0.68602764  0.22928113  0.42736318  1  0  0.387238  0  0.91472  0  0  0.360301  0  0.986805  0  0  0.370952  0  0.974134  0  0.658549  0  0.296751  0.352803  0  0.994905  0
H  H31  1  0.18602676  0.77071787  0.57263692  1  0  0.387261  0  0.914661  0  0  0.360317  0  0.986764  0  0  0.370966  0  0.974107  0  0.658554  0  0.296752  0.352821  0  0.994862  0
H  H32  1  0.49921573  0.41979662  0.57543652  1  0  0.059123  0  0.901071  0  0  0.067904  0  0.964895  0  0  0.069425  0  0.962915  0  0.069245  0  0.111253  0.066537  0  0.96694  0
H  H33  1  0.99921661  0.58020355  0.42456423  1  0  0.059088  0  0.901053  0  0  0.067899  0  0.964869  0  0  0.069397  0  0.962915  0  0.069254  0  0.11125  0.066541  0  0.966923  0
H  H34  1  0.32456008  0.16860769  0.57854628  1  0  0.068283  0  0.937627  0  0  0.081054  0  1.004807  0  0  0.082182  0  1.003039  0  0.072647  0  0.106041  0.080054  0  1.006459  0
H  H35  1  0.82456380  0.83139482  0.42145471  1  0  0.068332  0  0.937596  0  0  0.081093  0  1.004785  0  0  0.08222  0  1.003018  0  0.072695  0  0.106059  0.080089  0  1.006442  0
H  H36  1  0.37079843  0.20238202  0.49247780  1  0  0.074804  0  0.929944  0  0  0.09024  0  0.991544  0  0  0.089944  0  0.992152  0  0.082345  0  0.111347  0.090475  0  0.991203  0
H  H37  1  0.87079931  0.79762050  0.50752267  1  0  0.07482  0  0.929902  0  0  0.090267  0  0.99148  0  0  0.089971  0  0.992087  0  0.082209  0  0.111347  0.090503  0  0.991134  0
H  H38  1  0.55339498  0.96980715  0.55401265  1  0  0.37699  0  0.896616  0  0  0.354966  0  0.961772  0  0  0.365035  0  0.950515  0  0.650391  0  0.299613  0.347758  0  0.969726  0
H  H39  1  0.05339694  0.03019419  0.44598718  1  0  0.376984  0  0.896577  0  0  0.354947  0  0.961759  0  0  0.365017  0  0.9505  0  0.650385  0  0.299603  0.347738  0  0.969715  0
H  H40  1  0.18727618  0.01842737  0.65401299  1  0  0.417697  0  0.895045  0  0  0.37967  0  0.971939  0  0  0.391879  0  0.953922  0  0.643078  0  0.281617  0.3711  0  0.984518  0
H  H41  1  0.68727706  0.98157163  0.34598764  1  0  0.417711  0  0.895044  0  0  0.379684  0  0.971936  0  0  0.391892  0  0.95392  0  0.643082  0  0.281627  0.371113  0  0.984516  0
H  H42  1  0.08966125  0.98490894  0.57533721  1  0  0.417949  0  0.885417  0  0  0.388881  0  0.947247  0  0  0.398656  0  0.932783  0  0.635634  0  0.295365  0.381987  0  0.957427  0
H  H43  1  0.58966213  0.01509006  0.42466289  1  0  0.417964  0  0.885393  0  0  0.388898  0  0.947218  0  0  0.398675  0  0.932751  0  0.635629  0  0.295367  0.382005  0  0.957398  0
H  H44  1  0.57945951  0.73009061  0.55436173  1  0  0.411626  0  0.896604  0  0  0.375191  0  0.973389  0  0  0.386209  0  0.957044  0  0.640972  0  0.2884  0.36734  0  0.985078  0
H  H45  1  0.07945863  0.26990838  0.44563786  1  0  0.411656  0  0.896572  0  0  0.375224  0  0.973344  0  0  0.386242  0  0.956998  0  0.640983  0  0.288416  0.367373  0  0.985032  0
H  H46  1  0.48235855  0.81200555  0.62627467  1  0  0.421815  0  0.829403  0  0  0.404893  0  0.88453  0  0  0.413446  0  0.874254  0  0.617415  0  0.323206  0.398752  0  0.89196  0
H  H47  1  0.98235659  0.18799227  0.37372323  1  0  0.421765  0  0.829442  0  0  0.404843  0  0.884571  0  0  0.413396  0  0.874295  0  0.618598  0  0.323189  0.3987  0  0.892003  0
C  C48  1  0.73383628  0.53510582  0.82020502  1  0  0.332617  0  3.773353  0  0  0.307329  0  4.049849  0  0  0.323108  0  4.063121  0  0.537114  0  0.099667  0.296461  0  4.04066  0
C  C49  1  0.23383398  0.46489553  0.17979532  1  0  0.332677  0  3.773314  0  0  0.307388  0  4.049819  0  0  0.323167  0  4.06309  0  0.537393  0  0.099714  0.296523  0  4.040633  0
C  C50  1  0.73730909  0.40152995  0.76191387  1  0  -0.165762  0  3.677147  0  0  -0.168786  0  3.941088  0  0  -0.173852  0  3.958889  0  0.013841  0  -0.028883  -0.166249  0  3.930338  0
C  C51  1  0.23730821  0.59847139  0.23808648  1  0  -0.16571  0  3.677236  0  0  -0.168793  0  3.941124  0  0  -0.173858  0  3.95892  0  0.01384  0  -0.028876  -0.166254  0  3.93037  0
C  C52  1  0.74926232  0.25246989  0.77614277  1  0  0.234713  0  3.750651  0  0  0.212419  0  4.029022  0  0  0.223435  0  4.041929  0  0.549052  0  0.088941  0.204789  0  4.021101  0
C  C53  1  0.24926286  0.74753146  0.22385758  1  0  0.234582  0  3.750887  0  0  0.212435  0  4.02906  0  0  0.223452  0  4.041968  0  0.549111  0  0.088967  0.204805  0  4.021141  0
C  C54  1  0.76329696  0.23213280  0.84774047  1  0  0.236812  0  3.77112  0  0  0.215007  0  4.046001  0  0  0.224209  0  4.063412  0  0.592354  0  0.093917  0.207492  0  4.035102  0
C  C55  1  0.26329750  0.76786620  0.15225963  1  0  0.236785  0  3.771064  0  0  0.214925  0  4.045948  0  0  0.224126  0  4.063364  0  0.592439  0  0.093843  0.207415  0  4.03505  0
C  C56  1  0.76321745  0.36529575  0.90488449  1  0  -0.162948  0  3.858911  0  0  -0.16549  0  4.116465  0  0  -0.175753  0  4.144898  0  -0.016097  0  -0.037142  -0.15819  0  4.097316  0
C  C57  1  0.26322083  0.63470325  0.09511613  1  0  -0.162919  0  3.85897  0  0  -0.165472  0  4.116589  0  0  -0.175738  0  4.145023  0  -0.016107  0  -0.037103  -0.158173  0  4.097443  0
C  C58  1  0.76479768  0.46283918  0.10666377  1  0  -0.187533  0  3.672788  0  0  -0.227436  0  3.947096  0  0  -0.233212  0  3.962193  0  -0.011028  0  -0.092314  -0.221285  0  3.934585  0
C  C59  1  0.26479964  0.53715865  0.89333622  1  0  -0.187542  0  3.672863  0  0  -0.227467  0  3.947178  0  0  -0.23324  0  3.962277  0  -0.011044  0  -0.092332  -0.221314  0  3.934664  0
C  C60  1  0.76700829  0.59224369  0.16512949  1  0  0.358225  0  3.796921  0  0  0.335618  0  4.075524  0  0  0.352789  0  4.088442  0  0.492135  0  0.09696  0.323836  0  4.065524  0
C  C61  1  0.26700741  0.40775648  0.83486969  1  0  0.358145  0  3.797086  0  0  0.335554  0  4.075704  0  0  0.352723  0  4.088624  0  0.492135  0  0.096931  0.323773  0  4.065701  0
C  C62  1  0.76794961  0.74835493  0.15438913  1  0  -0.265417  0  3.635055  0  0  -0.256093  0  3.884813  0  0  -0.270302  0  3.9053  0  -0.005749  0  -0.030207  -0.244917  0  3.869047  0
C  C63  1  0.26794589  0.25164524  0.84561058  1  0  -0.26541  0  3.635002  0  0  -0.256156  0  3.884845  0  0  -0.270362  0  3.905332  0  -0.00572  0  -0.030233  -0.244978  0  3.869076  0
C  C64  1  0.75133379  0.88203637  0.21993574  1  0  0.665346  0  3.858166  0  0  0.616756  0  4.154802  0  0  0.65108  0  4.145745  0  1.53361  0  0.206016  0.593456  0  4.159512  0
C  C65  1  0.25133007  0.11796380  0.78006396  1  0  0.665383  0  3.858138  0  0  0.616802  0  4.154784  0  0  0.651126  0  4.145727  0  1.533605  0  0.206031  0.593502  0  4.159494  0
C  C66  1  0.77631360  0.77284460  0.08386814  1  0  0.210483  0  3.607513  0  0  0.212679  0  3.857599  0  0  0.222353  0  3.877336  0  0.021897  0  0.027834  0.206491  0  3.843835  0
C  C67  1  0.27630847  0.22715440  0.91613196  1  0  0.21051  0  3.607381  0  0  0.212718  0  3.857473  0  0  0.222389  0  3.877211  0  0.021462  0  0.027843  0.206531  0  3.843708  0
C  C68  1  0.80970994  0.93422517  0.07204077  1  0  -0.358456  0  3.713313  0  0  -0.446001  0  3.966839  0  0  -0.448652  0  3.971636  0  -0.064545  0  -0.251031  -0.444474  0  3.964473  0
C  C69  1  0.30970622  0.06577501  0.92795946  1  0  -0.358477  0  3.713222  0  0  -0.446005  0  3.966748  0  0  -0.448655  0  3.971544  0  -0.064552  0  -0.251036  -0.444479  0  3.964381  0
C  C70  1  0.76451372  0.64041363  0.02460055  1  0  -0.140067  0  3.674063  0  0  -0.134912  0  3.920182  0  0  -0.14787  0  3.945132  0  0.005002  0  -0.024997  -0.127909  0  3.90517  0
C  C71  1  0.26450858  0.35958654  0.97539915  1  0  -0.140144  0  3.673987  0  0  -0.134978  0  3.920086  0  0  -0.147936  0  3.945034  0  0.00522  0  -0.025004  -0.127977  0  3.905074  0
C  C72  1  0.74749326  0.65680929  0.95018552  1  0  0.393963  0  3.71636  0  0  0.365821  0  3.986795  0  0  0.392835  0  3.989423  0  0.82224  0  0.140811  0.347936  0  3.984048  0
C  C73  1  0.24748812  0.34318854  0.04981499  1  0  0.393959  0  3.716342  0  0  0.36582  0  3.986766  0  0  0.39284  0  3.989383  0  0.822261  0  0.140807  0.34794  0  3.98402  0
C  C74  1  0.74964708  0.51792774  0.89173319  1  0  -0.198288  0  3.829781  0  0  -0.199547  0  4.090069  0  0  -0.213676  0  4.11879  0  0.038512  0  -0.043919  -0.189052  0  4.069543  0
C  C75  1  0.24964620  0.48207243  0.10826652  1  0  -0.198228  0  3.829764  0  0  -0.199489  0  4.090064  0  0  -0.213622  0  4.118789  0  0.038256  0  -0.043882  -0.189004  0  4.069555  0
C  C76  1  0.76680100  0.34463256  0.97764497  1  0  0.379221  0  3.740016  0  0  0.354714  0  4.008465  0  0  0.379337  0  4.009022  0  0.861398  0  0.144661  0.337845  0  4.00844  0
C  C77  1  0.26680296  0.65536410  0.02235488  1  0  0.379238  0  3.740041  0  0  0.354709  0  4.00852  0  0  0.379345  0  4.009055  0  0.861383  0  0.144638  0.337837  0  4.008503  0
C  C78  1  0.76288522  0.48608777  0.03739728  1  0  -0.010872  0  3.770005  0  0  -0.003817  0  4.018798  0  0  -0.004417  0  4.040796  0  -0.049345  0  -0.011987  -0.003775  0  4.00436  0
C  C79  1  0.26289144  0.51391241  0.96260138  1  0  -0.010899  0  3.770029  0  0  -0.003814  0  4.018786  0  0  -0.00442  0  4.040782  0  -0.04917  0  -0.011992  -0.003773  0  4.004355  0
C  C80  1  0.72591668  0.42028695  0.68563644  1  0  0.139592  0  3.596077  0  0  0.106023  0  3.850766  0  0  0.113039  0  3.858094  0  0.41913  0  0.006946  0.101243  0  3.84606  0
C  C81  1  0.22591865  0.57971322  0.31436379  1  0  0.139524  0  3.596159  0  0  0.10602  0  3.850764  0  0  0.113039  0  3.858087  0  0.419122  0  0.006952  0.10124  0  3.846057  0
C  C82  1  0.92297949  0.41557014  0.64923750  1  0  0.130457  0  3.628934  0  0  0.098398  0  3.896594  0  0  0.103297  0  3.905092  0  0.494809  0  -0.013649  0.095035  0  3.8908  0
C  C83  1  0.42298145  0.58443238  0.35076245  1  0  0.130535  0  3.628933  0  0  0.098469  0  3.89657  0  0  0.103373  0  3.905064  0  0.494785  0  -0.013635  0.095106  0  3.890777  0
C  C84  1  0.90006121  0.42173566  0.57034335  1  0  0.150244  0  3.626417  0  0  0.117636  0  3.888441  0  0  0.122755  0  3.898087  0  0.476317  0  -0.010326  0.113945  0  3.882184  0
C  C85  1  0.40006033  0.57826451  0.42965583  1  0  0.150099  0  3.626638  0  0  0.117515  0  3.888605  0  0  0.122628  0  3.898262  0  0.476379  0  -0.010355  0.113825  0  3.882344  0
C  C86  1  0.75872523  0.30099174  0.53125773  1  0  0.12421  0  3.633725  0  0  0.091608  0  3.89027  0  0  0.09603  0  3.899948  0  0.421008  0  -0.017394  0.088412  0  3.884053  0
C  C87  1  0.25872577  0.69900725  0.46874238  1  0  0.124102  0  3.63392  0  0  0.09156  0  3.890371  0  0  0.095985  0  3.900044  0  0.420927  0  -0.017407  0.08838  0  3.884154  0
C  C88  1  0.57231654  0.30678894  0.57295591  1  0  0.112192  0  3.594589  0  0  0.0817  0  3.857428  0  0  0.086868  0  3.866192  0  0.417387  0  -0.005869  0.078062  0  3.852043  0
C  C89  1  0.07231566  0.69321241  0.42704391  1  0  0.112278  0  3.594502  0  0  0.081729  0  3.857387  0  0  0.086911  0  3.866144  0  0.417416  0  -0.005897  0.078039  0  3.852078  0
C  C90  1  0.43731992  0.17415033  0.53969046  1  0  0.087085  0  3.632117  0  0  0.019155  0  3.908561  0  0  0.026991  0  3.912283  0  0.435299  0  -0.078868  0.013671  0  3.906321  0
C  C91  1  0.93732364  0.82585101  0.46031041  1  0  0.087013  0  3.632197  0  0  0.019081  0  3.908658  0  0  0.02692  0  3.912376  0  0.435408  0  -0.078901  0.013614  0  3.906429  0
O  O92  1  0.71386833  0.67824552  0.80715217  1  0  -0.553005  0  2.114245  0  0  -0.506175  0  2.338006  0  0  -0.527703  0  2.32786  0  -1.164429  0  -0.402939  -0.49131  0  2.345908  0
O  O93  1  0.21386746  0.32175582  0.19284818  1  0  -0.553041  0  2.114243  0  0  -0.506219  0  2.338014  0  0  -0.527745  0  2.327865  0  -1.164424  0  -0.402961  -0.491353  0  2.345913  0
O  O94  1  0.74449182  0.11967176  0.72344649  1  0  -0.519764  0  2.17419  0  0  -0.477327  0  2.406108  0  0  -0.495121  0  2.395147  0  -1.184614  0  -0.421539  -0.464583  0  2.412858  0
O  O95  1  0.24449094  0.88032959  0.27655281  1  0  -0.51968  0  2.174286  0  0  -0.477246  0  2.406156  0  0  -0.495039  0  2.395197  0  -1.18464  0  -0.421537  -0.464502  0  2.412905  0
O  O96  1  0.77180861  0.08573086  0.85777036  1  0  -0.472636  0  2.096582  0  0  -0.428028  0  2.310812  0  0  -0.449062  0  2.304554  0  -1.117031  0  -0.335987  -0.41334  0  2.316425  0
O  O97  1  0.27181625  0.91427049  0.14222947  1  0  -0.47272  0  2.096427  0  0  -0.428089  0  2.310699  0  0  -0.449112  0  2.304418  0  -1.117169  0  -0.336017  -0.413402  0  2.316316  0
O  O98  1  0.77444942  0.56697395  0.23175332  1  0  -0.53369  0  2.128895  0  0  -0.471805  0  2.343621  0  0  -0.49445  0  2.334383  0  -1.161956  0  -0.332349  -0.45561  0  2.349583  0
O  O99  1  0.27444996  0.43302505  0.76824678  1  0  -0.533614  0  2.129062  0  0  -0.471693  0  2.343776  0  0  -0.494337  0  2.334538  0  -1.161971  0  -0.332293  -0.4555  0  2.349737  0
O  O100  1  0.70286779  0.01686488  0.21663944  1  0  -0.620041  0  1.923229  0  0  -0.576776  0  2.13956  0  0  -0.597384  0  2.128932  0  -1.178425  0  -0.393405  -0.562209  0  2.147331  0
O  O101  1  0.20286407  0.98313647  0.78335986  1  0  -0.62007  0  1.92328  0  0  -0.576795  0  2.139608  0  0  -0.597403  0  2.128979  0  -1.178409  0  -0.393412  -0.562229  0  2.14738  0
O  O102  1  0.78186073  0.84451534  0.28184773  1  0  -0.647672  0  2.027024  0  0  -0.589255  0  2.257463  0  0  -0.614741  0  2.244701  0  -1.159712  0  -0.33223  -0.570837  0  2.265295  0
O  O103  1  0.28185985  0.15548483  0.71815250  1  0  -0.647673  0  2.026969  0  0  -0.589238  0  2.25742  0  0  -0.614725  0  2.244658  0  -1.159711  0  -0.332237  -0.570822  0  2.265256  0
O  O104  1  0.72497536  0.79024673  0.93495634  1  0  -0.459876  0  1.991944  0  0  -0.402192  0  2.195331  0  0  -0.421476  0  2.188903  0  -1.086057  0  -0.261212  -0.388969  0  2.200532  0
O  O105  1  0.22497590  0.20975344  0.06504441  1  0  -0.45986  0  1.991961  0  0  -0.402171  0  2.195349  0  0  -0.421459  0  2.188916  0  -1.086105  0  -0.261212  -0.388948  0  2.200542  0
O  O106  1  0.77359754  0.20897923  0.98989534  1  0  -0.45547  0  1.953909  0  0  -0.40488  0  2.15907  0  0  -0.421665  0  2.153551  0  -1.078617  0  -0.248963  -0.393308  0  2.163749  0
O  O107  1  0.27359808  0.79102094  0.01010488  1  0  -0.455462  0  1.95383  0  0  -0.404857  0  2.15902  0  0  -0.421649  0  2.153494  0  -1.07857  0  -0.248937  -0.393281  0  2.163699  0
O  O108  1  0.61065517  0.29383382  0.64522209  1  0  -0.3426  0  2.266936  0  0  -0.27221  0  2.49857  0  0  -0.288738  0  2.499217  0  -1.046005  0  -0.205436  -0.260809  0  2.497861  0
O  O109  1  0.11065713  0.70616635  0.35477762  1  0  -0.342614  0  2.266889  0  0  -0.272232  0  2.498537  0  0  -0.288756  0  2.499173  0  -1.045993  0  -0.205457  -0.260817  0  2.49784  0
O  O110  1  0.03577591  0.54608318  0.68326672  1  0  -0.595854  0  2.065889  0  0  -0.551119  0  2.291377  0  0  -0.566305  0  2.276389  0  -1.184077  0  -0.477311  -0.540364  0  2.300337  0
O  O111  1  0.53577679  0.45391817  0.31673363  1  0  -0.595855  0  2.065971  0  0  -0.55112  0  2.291456  0  0  -0.566305  0  2.276475  0  -1.184024  0  -0.477307  -0.540365  0  2.300417  0
O  O112  1  0.07733888  0.39476852  0.53341152  1  0  -0.582544  0  2.093869  0  0  -0.529863  0  2.328962  0  0  -0.547524  0  2.317838  0  -1.151904  0  -0.399489  -0.51725  0  2.336703  0
O  O113  1  0.57733976  0.60523282  0.46658831  1  0  -0.582478  0  2.093874  0  0  -0.529804  0  2.32896  0  0  -0.547465  0  2.317836  0  -1.151893  0  -0.399472  -0.517194  0  2.336703  0
O  O114  1  0.72661806  0.33025102  0.46153399  1  0  -0.589126  0  2.127537  0  0  -0.531538  0  2.352923  0  0  -0.549026  0  2.340207  0  -1.182089  0  -0.395002  -0.51898  0  2.360888  0
O  O115  1  0.22662002  0.66974681  0.53846651  1  0  -0.589126  0  2.127575  0  0  -0.531545  0  2.352947  0  0  -0.54903  0  2.340241  0  -1.18211  0  -0.394984  -0.518991  0  2.360905  0
O  O116  1  0.52823201  0.02571316  0.51529714  1  0  -0.559968  0  2.126197  0  0  -0.498056  0  2.351536  0  0  -0.516017  0  2.339699  0  -1.190735  0  -0.404651  -0.485408  0  2.359618  0
O  O117  1  0.02823397  0.97428702  0.48470257  1  0  -0.559914  0  2.126209  0  0  -0.497985  0  2.351548  0  0  -0.515948  0  2.339712  0  -1.190763  0  -0.404605  -0.485336  0  2.359625  0
O  O118  1  0.11608641  0.93851851  0.61683047  1  0  -0.875248  0  1.872555  0  0  -0.825058  0  2.051305  0  0  -0.844285  0  2.018713  0  -1.290203  0  -0.635225  -0.811078  0  2.0735  0
O  O119  1  0.61608871  0.06148049  0.38316964  1  0  -0.875275  0  1.872564  0  0  -0.825089  0  2.051313  0  0  -0.844317  0  2.018719  0  -1.290213  0  -0.635238  -0.811105  0  2.073507  0
O  O120  1  0.59867923  0.81426015  0.59892273  1  0  -0.826995  0  1.801284  0  0  -0.785532  0  1.967455  0  0  -0.802721  0  1.939865  0  -1.257553  0  -0.592643  -0.772817  0  1.98632  0
O  O121  1  0.09867835  0.18574002  0.40107593  1  0  -0.826977  0  1.801279  0  0  -0.785514  0  1.967441  0  0  -0.802703  0  1.939851  0  -1.258743  0  -0.592647  -0.772807  0  1.986325  0
