# generated using pymatgen
data_CuH4C6(SN2)2
_symmetry_space_group_name_H-M   'P 1'
_cell_length_a   5.69511863
_cell_length_b   6.34664261
_cell_length_c   6.34645507
_cell_angle_alpha   66.85469530
_cell_angle_beta   89.11498003
_cell_angle_gamma   89.11664911
_symmetry_Int_Tables_number   1
_chemical_formula_structural   CuH4C6(SN2)2
_chemical_formula_sum   'Cu1 H4 C6 S2 N4'
_cell_volume   210.89228784
_cell_formula_units_Z   1
loop_
 _symmetry_equiv_pos_site_id
 _symmetry_equiv_pos_as_xyz
  1  'x, y, z'
loop_
 _atom_site_type_symbol
 _atom_site_label
 _atom_site_symmetry_multiplicity
 _atom_site_fract_x
 _atom_site_fract_y
 _atom_site_fract_z
 _atom_site_occupancy
 _atom_site_pbe_bader_charge
 _atom_site_pbe_bader_spin_density
 _atom_site_pbe_cm5_charge
 _atom_site_pbe_ddec_charge
 _atom_site_pbe_ddec_spin_density
 _atom_site_pbe_ddec_sum_bond_order
 _atom_site_pbe_magmom
Cu  Cu0  1  0.99999010  0.00001084  0.99999360  1  1.056015  0.574812  0.773008  0.73736  0.728065  2.508232  0.574
H  H1  1  0.67332690  0.77152422  0.41086099  1  0.145988  0.004197  0.112756  0.091826  0.002038  1.052246  0.003
H  H2  1  0.32668478  0.58916524  0.22841229  1  0.153458  0.004171  0.112686  0.091746  0.00204  1.052109  0.003
H  H3  1  0.32667239  0.22844238  0.58913811  1  0.145878  0.004198  0.112708  0.0918  0.002038  1.052242  0.003
H  H4  1  0.67334412  0.41081681  0.77154561  1  0.145772  0.004204  0.112701  0.091665  0.002041  1.052374  0.003
C  C5  1  0.44568482  0.15866552  0.15865148  1  0.562935  -0.000291  0.148295  0.278625  -0.00172  4.337547  0.005
C  C6  1  0.55430525  0.84134734  0.84134379  1  0.561383  -0.000288  0.148119  0.278054  -0.001717  4.337013  0.005
C  C7  1  0.81883725  0.64928207  0.44989390  1  0.473058  0.006725  0.06027  0.064195  0.004615  3.877544  0.006
C  C8  1  0.18115522  0.55013695  0.35070176  1  0.465229  0.006755  0.060213  0.064209  0.004611  3.877547  0.006
C  C9  1  0.18115145  0.35069821  0.55013780  1  0.566954  0.006312  0.060243  0.064184  0.004612  3.877427  0.006
C  C10  1  0.81885253  0.44986392  0.64930109  1  0.567361  0.006309  0.060294  0.064478  0.00461  3.877832  0.006
S  S11  1  0.69318985  0.23107793  0.23108349  1  0.10017  0.013499  -0.133491  -0.292079  0.007257  2.423912  0.011
S  S12  1  0.30680716  0.76894521  0.76892023  1  0.10042  0.013493  -0.133394  -0.291834  0.007253  2.424243  0.011
N  N13  1  0.26490095  0.10531419  0.10528404  1  -1.308141  0.074883  -0.443129  -0.506648  0.049628  3.457063  0.062
N  N14  1  0.73511179  0.89471580  0.89471990  1  -1.307147  0.074905  -0.443109  -0.506266  0.049641  3.45614  0.062
N  N15  1  0.00000619  0.69794335  0.30207164  1  -1.214459  0.103056  -0.304099  -0.160661  0.067492  3.5564  0.09
N  N16  1  0.99997532  0.30205406  0.69795818  1  -1.214873  0.10306  -0.304069  -0.160655  0.067495  3.556443  0.09
