# generated using pymatgen
data_Zn4H20C44Br8O13
_symmetry_space_group_name_H-M   'P 1'
_cell_length_a   24.00772443
_cell_length_b   24.00907690
_cell_length_c   24.00742907
_cell_angle_alpha   66.87755830
_cell_angle_beta   72.32858432
_cell_angle_gamma   107.68071233
_symmetry_Int_Tables_number   1
_chemical_formula_structural   Zn4H20C44Br8O13
_chemical_formula_sum   'Zn8 H40 C88 Br16 O26'
_cell_volume   10620.05089081
_cell_formula_units_Z   2
loop_
 _symmetry_equiv_pos_site_id
 _symmetry_equiv_pos_as_xyz
  1  'x, y, z'
loop_
 _atom_site_type_symbol
 _atom_site_label
 _atom_site_symmetry_multiplicity
 _atom_site_fract_x
 _atom_site_fract_y
 _atom_site_fract_z
 _atom_site_occupancy
 _atom_site_pbe_bader_charge
 _atom_site_pbe_bader_spin_density
 _atom_site_pbe_cm5_charge
 _atom_site_pbe_ddec_charge
 _atom_site_pbe_ddec_spin_density
 _atom_site_pbe_ddec_sum_bond_order
 _atom_site_pbe_magmom
Zn  Zn0  1  0.05635472  0.95725981  0.48644134  1  1.323117  0  0.680464  0.974359  0  2.371481  0
Zn  Zn1  1  0.05635788  0.09909755  0.45721143  1  1.321301  0  0.680516  0.974492  0  2.371056  0
Zn  Zn2  1  0.94364042  0.98643868  0.45725541  1  1.323147  0  0.680439  0.974366  0  2.371342  0
Zn  Zn3  1  0.94365413  0.95720825  0.59909885  1  1.320988  0  0.680509  0.974425  0  2.371179  0
Zn  Zn4  1  0.94369333  0.54278811  0.01355947  1  1.323223  0  0.680452  0.974339  0  2.371401  0
Zn  Zn5  1  0.05631300  0.51356486  0.04279280  1  1.323489  0  0.680506  0.974522  0  2.371158  0
Zn  Zn6  1  0.94369050  0.40090196  0.04274394  1  1.32122  0  0.680547  0.974516  0  2.371045  0
Zn  Zn7  1  0.05629594  0.54274063  0.90090305  1  1.321518  0  0.680524  0.974464  0  2.371157  0
H  H8  1  0.92426320  0.71498099  0.17518517  1  0.087824  0  0.109872  0.127437  0  0.993207  0
H  H9  1  0.07572083  0.67516879  0.21502480  1  0.088257  0  0.109886  0.127494  0  0.993116  0
H  H10  1  0.92426651  0.82482674  0.28500338  1  0.087685  0  0.109937  0.127528  0  0.993182  0
H  H11  1  0.07566601  0.78494514  0.32490921  1  0.088008  0  0.109831  0.127414  0  0.992984  0
H  H12  1  0.07574180  0.40052635  0.70929015  1  0.095585  0  0.109881  0.127526  0  0.993272  0
H  H13  1  0.92428430  0.20925618  0.90056451  1  0.09561  0  0.109901  0.127508  0  0.993196  0
H  H14  1  0.07567440  0.29072042  0.59944483  1  0.096726  0  0.109839  0.127462  0  0.992928  0
H  H15  1  0.92426835  0.09943810  0.79072215  1  0.095849  0  0.109886  0.127445  0  0.993102  0
H  H16  1  0.60983657  0.40055069  0.17514368  1  0.084859  0  0.109939  0.127484  0  0.992979  0
H  H17  1  0.60983964  0.20927509  0.21501275  1  0.085976  0  0.109911  0.12739  0  0.993127  0
H  H18  1  0.39018342  0.29073946  0.28495477  1  0.086397  0  0.109838  0.12739  0  0.993027  0
H  H19  1  0.39018017  0.09946729  0.32477400  1  0.084757  0  0.109828  0.127425  0  0.993189  0
H  H20  1  0.39017270  0.67512086  0.90054999  1  0.084359  0  0.109862  0.127476  0  0.992852  0
H  H21  1  0.39014617  0.71499532  0.70926898  1  0.086002  0  0.109874  0.127431  0  0.993185  0
H  H22  1  0.60983268  0.78497409  0.79074611  1  0.085893  0  0.109879  0.127451  0  0.993187  0
H  H23  1  0.60980807  0.82479463  0.59947035  1  0.084492  0  0.109868  0.127438  0  0.993327  0
H  H24  1  0.85686835  0.75699410  0.82409989  1  0.02536  0  0.089358  0.124824  0  1.007754  0
H  H25  1  0.90863339  0.84169870  0.75008743  1  0.091177  0  0.088613  0.143783  0  1.082621  0
H  H26  1  0.91873962  0.81862865  0.82452096  1  0.028166  0  0.089071  0.124561  0  1.008231  0
H  H27  1  0.08111049  0.68098253  0.67589506  1  0.031848  0  0.089339  0.124805  0  1.007591  0
H  H28  1  0.09180270  0.65873414  0.74991228  1  0.093897  0  0.088552  0.143715  0  1.082585  0
H  H29  1  0.14316193  0.74326911  0.67548352  1  0.018432  0  0.089105  0.12464  0  1.00847  0
H  H30  1  0.91889251  0.74299415  0.90013135  1  0.056371  0  0.08933  0.124799  0  1.007664  0
H  H31  1  0.90820009  0.65829132  0.93306792  1  0.09177  0  0.088585  0.143762  0  1.0826  0
H  H32  1  0.85683998  0.68136429  0.89988704  1  0.051794  0  0.089108  0.124608  0  1.00853  0
H  H33  1  0.14313630  0.81902622  0.59987665  1  0.05773  0  0.089336  0.12482  0  1.007766  0
H  H34  1  0.09137013  0.84127720  0.56693317  1  0.093336  0  0.088613  0.143824  0  1.082666  0
H  H35  1  0.08126345  0.75674365  0.60010423  1  0.051274  0  0.089092  0.124663  0  1.008278  0
H  H36  1  0.85687122  0.09987404  0.31900458  1  0.056032  0  0.089393  0.124858  0  1.007627  0
H  H37  1  0.90864130  0.06693963  0.34124782  1  0.093782  0  0.088595  0.1438  0  1.082689  0
H  H38  1  0.91874160  0.10012178  0.25670971  1  0.050751  0  0.089123  0.124596  0  1.008575  0
H  H39  1  0.08111179  0.40012145  0.24302040  1  0.055879  0  0.089273  0.124679  0  1.007825  0
H  H40  1  0.09180084  0.43306152  0.15831315  1  0.092825  0  0.088597  0.14387  0  1.082738  0
H  H41  1  0.14316165  0.39988724  0.18138635  1  0.049604  0  0.089123  0.124609  0  1.008359  0
H  H42  1  0.91889617  0.17590836  0.18095542  1  0.033163  0  0.089344  0.12485  0  1.007602  0
H  H43  1  0.90820594  0.24992019  0.15870946  1  0.09327  0  0.088561  0.143651  0  1.082793  0
H  H44  1  0.85684504  0.17548762  0.24324200  1  0.018886  0  0.089051  0.124519  0  1.008337  0
H  H45  1  0.14312911  0.32409270  0.25702683  1  0.030973  0  0.089323  0.124762  0  1.007559  0
H  H46  1  0.09135927  0.25008099  0.34172857  1  0.09157  0  0.088545  0.143683  0  1.082716  0
H  H47  1  0.08125958  0.32451448  0.31865314  1  0.027677  0  0.089062  0.124547  0  1.008421  0
C  C48  1  0.18076773  0.09038757  0.40962026  1  1.586446  0  0.224197  0.624475  0  4.155603  0
C  C49  1  0.99999342  0.13792973  0.36206831  1  1.551258  0  0.238253  0.623415  0  4.091276  0
C  C50  1  0.99999719  0.90963981  0.40963648  1  1.602983  0  0.224752  0.6253  0  4.155605  0
C  C51  1  0.81923550  0.90960982  0.59039176  1  1.585371  0  0.224148  0.62451  0  4.15557  0
C  C52  1  0.00000583  0.86206470  0.63793275  1  1.55075  0  0.238735  0.624273  0  4.090985  0
C  C53  1  0.99999760  0.09036257  0.59036613  1  1.639252  0  0.224993  0.625703  0  4.155485  0
C  C54  1  0.00000177  0.59037716  0.09038764  1  1.603057  0  0.224222  0.624497  0  4.155301  0
C  C55  1  0.00000966  0.36207213  0.13793360  1  1.54863  0  0.238557  0.623997  0  4.09112  0
C  C56  1  0.81927191  0.40963426  0.09035686  1  1.584711  0  0.224818  0.625542  0  4.155658  0
C  C57  1  0.99999352  0.40960867  0.90962467  1  1.638233  0  0.22421  0.624634  0  4.155132  0
C  C58  1  0.99999443  0.63793179  0.86206685  1  1.547424  0  0.23863  0.624131  0  4.090805  0
C  C59  1  0.18072498  0.59036192  0.90962965  1  1.584732  0  0.224854  0.625487  0  4.155395  0
C  C60  1  0.00000349  0.80437382  0.69562443  1  -0.090638  0  -0.013986  -0.159597  0  3.846822  0
C  C61  1  0.99999871  0.69562513  0.80437569  1  -0.090727  0  -0.013881  -0.159177  0  3.846562  0
C  C62  1  0.95663141  0.77689554  0.76649000  1  0.032998  0  -0.000924  0.106295  0  3.85627  0
C  C63  1  0.04339243  0.72312556  0.73351025  1  0.03428  0  -0.000963  0.105944  0  3.856277  0
C  C64  1  0.95660897  0.72310044  0.82026493  1  0.017168  0  -0.000957  0.105981  0  3.856396  0
C  C65  1  0.04337244  0.77687823  0.67973532  1  0.018728  0  -0.000812  0.106434  0  3.856415  0
C  C66  1  0.99999746  0.19562335  0.30437587  1  -0.091375  0  -0.013876  -0.158842  0  3.846474  0
C  C67  1  0.00000537  0.30437879  0.19562516  1  -0.091543  0  -0.013956  -0.159343  0  3.846644  0
C  C68  1  0.95663220  0.17973873  0.27686685  1  0.017873  0  -0.000793  0.105986  0  3.856924  0
C  C69  1  0.04339211  0.32026312  0.22311238  1  0.01764  0  -0.000757  0.106346  0  3.856699  0
C  C70  1  0.95661300  0.23351498  0.22311446  1  0.034366  0  -0.001014  0.106126  0  3.856504  0
C  C71  1  0.04336860  0.26648716  0.27690842  1  0.034834  0  -0.001163  0.105678  0  3.856594  0
C  C72  1  0.99999908  0.62793379  0.12795225  1  0.073822  0  -0.019091  -0.132787  0  3.853631  0
C  C73  1  0.95773391  0.65821278  0.13570350  1  -0.097422  0  0.000495  0.123559  0  3.901231  0
C  C74  1  0.95752447  0.69284330  0.17050657  1  0.067103  0  -0.090941  -0.192393  0  3.937686  0
C  C75  1  0.99998891  0.69950524  0.19954111  1  0.07038  0  0.009089  0.182728  0  4.117072  0
C  C76  1  0.04246127  0.67048575  0.19288010  1  0.086146  0  -0.091056  -0.192614  0  3.937643  0
C  C77  1  0.04225928  0.63568921  0.15824332  1  -0.118582  0  0.000551  0.123752  0  3.901567  0
C  C78  1  0.99997960  0.73476124  0.23481309  1  -0.273505  0  -0.030091  -0.085086  0  4.074502  0
C  C79  1  0.99997013  0.76519139  0.26525521  1  -0.056246  0  -0.030208  -0.085097  0  4.074375  0
C  C80  1  0.99996937  0.80045540  0.30051936  1  0.069643  0  0.009297  0.18278  0  4.116413  0
C  C81  1  0.95751780  0.82950050  0.30715924  1  0.066775  0  -0.090892  -0.192343  0  3.936986  0
C  C82  1  0.95772904  0.86430990  0.34178524  1  -0.097381  0  0.000572  0.123827  0  3.900825  0
C  C83  1  0.99998044  0.87205789  0.37208998  1  0.074361  0  -0.019177  -0.13319  0  3.85388  0
C  C84  1  0.04221943  0.84174106  0.36436557  1  -0.140476  0  0.000221  0.123412  0  3.901941  0
C  C85  1  0.04241987  0.80710208  0.32957106  1  0.109058  0  -0.090966  -0.192467  0  3.937177  0
C  C86  1  0.00000410  0.37204392  0.87206879  1  0.046394  0  -0.0191  -0.132777  0  3.853684  0
C  C87  1  0.04227233  0.40654682  0.79952673  1  -0.133286  0  0.000453  0.123556  0  3.901279  0
C  C88  1  0.04247855  0.37195285  0.76468815  1  0.109591  0  -0.090979  -0.192613  0  3.937603  0
C  C89  1  0.00000749  0.30046054  0.80049376  1  0.06686  0  0.009055  0.182639  0  4.116806  0
C  C90  1  0.95754237  0.26465627  0.87198646  1  0.109346  0  -0.091027  -0.192565  0  3.937283  0
C  C91  1  0.95774699  0.29949674  0.90657889  1  -0.135133  0  0.000526  0.123713  0  3.901308  0
C  C92  1  0.99999842  0.26519683  0.76522972  1  -0.27473  0  -0.030019  -0.084873  0  4.074326  0
C  C93  1  0.99998458  0.23476716  0.73478739  1  -0.057971  0  -0.030284  -0.08529  0  4.07438  0
C  C94  1  0.99997749  0.19951028  0.69951739  1  0.066598  0  0.00929  0.182843  0  4.116363  0
C  C95  1  0.04242691  0.23531850  0.62802082  1  0.089253  0  -0.090952  -0.192505  0  3.937137  0
C  C96  1  0.04222260  0.20048143  0.59342404  1  -0.116054  0  0.000194  0.123374  0  3.90174  0
C  C97  1  0.99998199  0.12792748  0.62792847  1  0.048868  0  -0.019163  -0.133125  0  3.853884  0
C  C98  1  0.95772831  0.09342104  0.70047960  1  -0.114404  0  0.000559  0.123576  0  3.901097  0
C  C99  1  0.95752093  0.12801540  0.73532004  1  0.088786  0  -0.090876  -0.192174  0  3.936732  0
C  C100  1  0.74414418  0.37206999  0.12792479  1  0.083478  0  -0.019244  -0.133353  0  3.8539  0
C  C101  1  0.70609685  0.40657308  0.13566845  1  -0.171962  0  0.000425  0.123555  0  3.901407  0
C  C102  1  0.63666386  0.37197632  0.17046838  1  0.138955  0  -0.091071  -0.192462  0  3.937144  0
C  C103  1  0.60097289  0.30048106  0.19950642  1  0.09549  0  0.009288  0.182802  0  4.116607  0
C  C104  1  0.63666489  0.26467783  0.19286019  1  0.019931  0  -0.090844  -0.192067  0  3.936846  0
C  C105  1  0.70609865  0.29951663  0.15823124  1  -0.043186  0  0.000491  0.123679  0  3.901263  0
C  C106  1  0.53044564  0.26521948  0.23475771  1  -0.030291  0  -0.03028  -0.085455  0  4.074473  0
C  C107  1  0.46957490  0.23479509  0.26517682  1  -0.348342  0  -0.030174  -0.084786  0  4.074118  0
C  C108  1  0.39904649  0.19953391  0.30043789  1  0.098107  0  0.009152  0.182502  0  4.116743  0
C  C109  1  0.36336012  0.23533918  0.30709994  1  0.017486  0  -0.090936  -0.192291  0  3.937219  0
C  C110  1  0.29392776  0.20049972  0.34174123  1  -0.042054  0  0.000426  0.123526  0  3.901497  0
C  C111  1  0.25588844  0.12795049  0.37203750  1  0.082621  0  -0.019047  -0.132682  0  3.853819  0
C  C112  1  0.29392416  0.09344661  0.36427059  1  -0.171858  0  0.000504  0.123603  0  3.901239  0
C  C113  1  0.36335699  0.12804165  0.32946389  1  0.139271  0  -0.090852  -0.192296  0  3.937317  0
C  C114  1  0.25585271  0.62791585  0.87206579  1  0.083636  0  -0.019296  -0.133353  0  3.853757  0
C  C115  1  0.29390780  0.63565498  0.90656991  1  -0.171183  0  0.000277  0.123527  0  3.901563  0
C  C116  1  0.36334168  0.67044949  0.87197378  1  0.138754  0  -0.090907  -0.192351  0  3.936988  0
C  C117  1  0.39902668  0.69949039  0.80047736  1  0.095656  0  0.009174  0.182545  0  4.116726  0
C  C118  1  0.36332806  0.69284380  0.76467278  1  0.020493  0  -0.090767  -0.192124  0  3.93676  0
C  C119  1  0.29389280  0.65821586  0.79951192  1  -0.04355  0  0.00055  0.123729  0  3.900763  0
C  C120  1  0.46955494  0.73474986  0.76521701  1  -0.030449  0  -0.030234  -0.085194  0  4.074471  0
C  C121  1  0.53042430  0.76517961  0.73480204  1  -0.348099  0  -0.0301  -0.084873  0  4.074246  0
C  C122  1  0.60095415  0.80044946  0.69954044  1  0.097336  0  0.009107  0.182557  0  4.116554  0
C  C123  1  0.63664910  0.80711720  0.73534405  1  0.018672  0  -0.090965  -0.192444  0  3.937038  0
C  C124  1  0.70608269  0.84175742  0.70050308  1  -0.042694  0  0.000466  0.123629  0  3.901021  0
C  C125  1  0.74411416  0.87204572  0.62795310  1  0.081971  0  -0.019027  -0.132723  0  3.853484  0
C  C126  1  0.70606884  0.86428689  0.59344962  1  -0.170625  0  0.000496  0.123636  0  3.90116  0
C  C127  1  0.63663664  0.82948010  0.62804508  1  0.139444  0  -0.090973  -0.19244  0  3.937502  0
C  C128  1  0.90803122  0.80067926  0.79139820  1  -0.059766  0  -0.257351  -0.430797  0  3.984819  0
C  C129  1  0.09209171  0.69944041  0.70860151  1  -0.060664  0  -0.257279  -0.430672  0  3.984706  0
C  C130  1  0.90790978  0.69931180  0.89264978  1  -0.114249  0  -0.257305  -0.430678  0  3.984901  0
C  C131  1  0.09197341  0.80056917  0.60734999  1  -0.117366  0  -0.257369  -0.430974  0  3.985025  0
C  C132  1  0.90803532  0.10735591  0.30054275  1  -0.11521  0  -0.257397  -0.430746  0  3.985316  0
C  C133  1  0.09209239  0.39264626  0.19933339  1  -0.113069  0  -0.257293  -0.430741  0  3.985209  0
C  C134  1  0.90791636  0.20860885  0.19941702  1  -0.061924  0  -0.257212  -0.430567  0  3.984629  0
C  C135  1  0.09196415  0.29139218  0.30070648  1  -0.066346  0  -0.257169  -0.430429  0  3.984708  0
Br  Br136  1  0.89605528  0.65710662  0.10065660  1  -0.017748  0  0.030117  -0.048518  0  1.433414  0
Br  Br137  1  0.10393586  0.60065002  0.15715211  1  -0.017448  0  0.030097  -0.048573  0  1.433227  0
Br  Br138  1  0.89605664  0.89935274  0.34287082  1  -0.01718  0  0.030116  -0.048508  0  1.433155  0
Br  Br139  1  0.10386914  0.84280904  0.39944585  1  -0.016437  0  0.030161  -0.048428  0  1.433543  0
Br  Br140  1  0.10396854  0.50325905  0.73895707  1  -0.017097  0  0.030143  -0.048495  0  1.433412  0
Br  Br141  1  0.89608292  0.23892172  0.00329795  1  -0.01699  0  0.030119  -0.048547  0  1.433363  0
Br  Br142  1  0.10387607  0.26106502  0.49670410  1  -0.016868  0  0.030198  -0.048408  0  1.433432  0
Br  Br143  1  0.89604695  0.99670769  0.76105380  1  -0.017189  0  0.030127  -0.048453  0  1.433289  0
Br  Br144  1  0.74223214  0.50328866  0.10062000  1  -0.013843  0  0.030117  -0.048486  0  1.433415  0
Br  Br145  1  0.74223546  0.23893676  0.15715336  1  -0.017334  0  0.030103  -0.048532  0  1.433435  0
Br  Br146  1  0.25778589  0.26107506  0.34282533  1  -0.017548  0  0.030133  -0.048527  0  1.433313  0
Br  Br147  1  0.25777884  0.99673498  0.39928789  1  -0.015196  0  0.030074  -0.048592  0  1.433449  0
Br  Br148  1  0.25778156  0.60060217  0.00328850  1  -0.014243  0  0.030174  -0.048457  0  1.43345  0
Br  Br149  1  0.25774494  0.65712223  0.73893503  1  -0.017755  0  0.030098  -0.048506  0  1.433376  0
Br  Br150  1  0.74223507  0.84285712  0.76107496  1  -0.017046  0  0.030109  -0.048547  0  1.433369  0
Br  Br151  1  0.74220214  0.89933075  0.49673046  1  -0.014323  0  0.03009  -0.048561  0  1.433429  0
O  O152  1  0.00000117  0.00000141  0.49999986  1  -1.23506  0  -0.574873  -1.033007  0  2.557821  0
O  O153  1  0.15153652  0.02597623  0.43309045  1  -1.169581  0  -0.31531  -0.545241  0  2.443274  0
O  O154  1  0.03974090  0.15358809  0.38528500  1  -1.173733  0  -0.310239  -0.535832  0  2.422881  0
O  O155  1  0.95914291  0.93322753  0.41527945  1  -1.168604  0  -0.315484  -0.545662  0  2.443375  0
O  O156  1  0.15154156  0.12555984  0.41540071  1  -1.167464  0  -0.315291  -0.545222  0  2.443738  0
O  O157  1  0.04086102  0.91530124  0.43321021  1  -1.169213  0  -0.315432  -0.545637  0  2.444031  0
O  O158  1  0.96023903  0.07496685  0.38615176  1  -1.179563  0  -0.310428  -0.535879  0  2.422387  0
O  O159  1  0.84845935  0.93305781  0.52598289  1  -1.169263  0  -0.315344  -0.545349  0  2.443181  0
O  O160  1  0.96031771  0.88533523  0.65359286  1  -1.173795  0  -0.310585  -0.536154  0  2.422845  0
O  O161  1  0.84846894  0.91539256  0.62556247  1  -1.166706  0  -0.315213  -0.545131  0  2.443936  0
O  O162  1  0.03969828  0.88609506  0.57496888  1  -1.179539  0  -0.310591  -0.536151  0  2.422361  0
O  O163  1  0.04084562  0.12557243  0.52592442  1  -1.186292  0  -0.315557  -0.545781  0  2.443609  0
O  O164  1  0.95916530  0.02592054  0.62557471  1  -1.186081  0  -0.315584  -0.54585  0  2.443783  0
O  O165  1  0.99999924  0.49999881  0.00000183  1  -1.235187  0  -0.5749  -1.03308  0  2.557809  0
O  O166  1  0.95905080  0.58459982  0.06693180  1  -1.168282  0  -0.315299  -0.545215  0  2.443691  0
O  O167  1  0.03894255  0.42503608  0.11467044  1  -1.175519  0  -0.310442  -0.536069  0  2.42239  0
O  O168  1  0.84850262  0.37443158  0.08471282  1  -1.166955  0  -0.315492  -0.545675  0  2.444031  0
O  O169  1  0.04095866  0.56692702  0.08461314  1  -1.168033  0  -0.315276  -0.545232  0  2.443224  0
O  O170  1  0.84850531  0.47407862  0.06676262  1  -1.168853  0  -0.315509  -0.545742  0  2.443397  0
O  O171  1  0.96108250  0.34641308  0.11389597  1  -1.176174  0  -0.310577  -0.536111  0  2.422933  0
O  O172  1  0.95904405  0.37443176  0.97402997  1  -1.18477  0  -0.315259  -0.545278  0  2.443321  0
O  O173  1  0.03889701  0.61387571  0.84640607  1  -1.175733  0  -0.310466  -0.536129  0  2.422608  0
O  O174  1  0.04093192  0.47401617  0.87444505  1  -1.184496  0  -0.315257  -0.545245  0  2.443365  0
O  O175  1  0.96108596  0.61468593  0.92502978  1  -1.175631  0  -0.310593  -0.536139  0  2.422577  0
O  O176  1  0.15149838  0.56678453  0.97407035  1  -1.16862  0  -0.315566  -0.54581  0  2.443602  0
O  O177  1  0.15148725  0.58471292  0.87442669  1  -1.167123  0  -0.315516  -0.545697  0  2.44361  0
