# generated using pymatgen
data_Zn2H13C40N14O32F9
_symmetry_space_group_name_H-M   'P 1'
_cell_length_a   14.65241560
_cell_length_b   15.93201221
_cell_length_c   17.15489949
_cell_angle_alpha   87.73501807
_cell_angle_beta   97.51714157
_cell_angle_gamma   89.37395056
_symmetry_Int_Tables_number   1
_chemical_formula_structural   Zn2H13C40N14O32F9
_chemical_formula_sum   'Zn2 H13 C40 N14 O32 F9'
_cell_volume   3966.63926241
_cell_formula_units_Z   1
loop_
 _symmetry_equiv_pos_site_id
 _symmetry_equiv_pos_as_xyz
  1  'x, y, z'
loop_
 _atom_site_type_symbol
 _atom_site_label
 _atom_site_symmetry_multiplicity
 _atom_site_fract_x
 _atom_site_fract_y
 _atom_site_fract_z
 _atom_site_occupancy
 _atom_site_pbe_bader_charge
 _atom_site_pbe_bader_spin_density
 _atom_site_pbe_cm5_charge
 _atom_site_pbe_ddec_charge
 _atom_site_pbe_ddec_spin_density
 _atom_site_pbe_ddec_sum_bond_order
 _atom_site_pbe_magmom
Zn  Zn0  1  0.60009362  0.49637476  0.50545553  1  1.320057  0  0.697597  0.888763  0  2.424177  0
Zn  Zn1  1  0.40864937  0.49474872  0.50380576  1  1.321316  0  0.695377  0.887562  0  2.433104  0
H  H2  1  0.40106690  0.43402224  0.74668136  1  0.117953  0  0.117451  0.122665  0  0.975034  0
H  H3  1  0.67176007  0.53760965  0.75462900  1  0.169919  0  0.123565  0.140479  0  0.990076  0
H  H4  1  0.57890788  0.49401626  0.02684540  1  0.13928  0  0.129762  0.143596  0  0.945576  0
H  H5  1  0.40075182  0.46295657  0.88856914  1  0.091329  0  0.112889  0.116815  0  0.975152  0
H  H6  1  0.52941790  0.07361355  0.39055397  1  0.124591  0  0.127208  0.160269  0  0.959839  0
H  H7  1  0.38335332  0.06071865  0.41990308  1  0.147058  0  0.120114  0.086929  0  0.955998  0
H  H8  1  0.36050446  0.91995083  0.44395639  1  0.127061  0  0.138202  0.123507  0  0.955162  0
H  H9  1  0.62592173  0.94553378  0.57690393  1  0.211848  0  0.13992  0.114272  0  1.046617  0
H  H10  1  0.62607085  0.05947449  0.46350719  1  0.126683  0  0.123978  0.156063  0  0.971873  0
H  H11  1  0.08283499  0.54615508  0.37777288  1  0.134725  0  0.139558  0.185841  0  0.909945  0
H  H12  1  0.06018239  0.43719979  0.37861311  1  0.161277  0  0.130729  0.167699  0  0.973511  0
H  H13  1  0.07262370  0.62245803  0.50102727  1  0.14  0  0.137277  0.125413  0  0.910928  0
H  H14  1  0.92048881  0.39607051  0.57436350  1  0.208649  0  0.154935  0.164934  0  0.91989  0
C  C15  1  0.50533279  0.33663250  0.48699502  1  1.707603  0  0.226289  0.671261  0  4.23073  0
C  C16  1  0.53198769  0.47526251  0.65476696  1  1.602046  0  0.220453  0.598064  0  4.168223  0
C  C17  1  0.49675447  0.65511563  0.52190763  1  1.694221  0  0.226127  0.662094  0  4.233017  0
C  C18  1  0.47769131  0.53171868  0.35529351  1  1.639538  0  0.222411  0.62207  0  4.18223  0
C  C19  1  0.53594714  0.48417595  0.74166103  1  -0.005733  0  -0.002098  -0.010524  0  3.938603  0
C  C20  1  0.46022193  0.46259417  0.78008435  1  -0.002222  0  -0.05885  -0.049801  0  3.917676  0
C  C21  1  0.45991049  0.47924212  0.85889407  1  0.00034  0  -0.07439  -0.113815  0  3.944922  0
C  C22  1  0.53470790  0.51875843  0.90139798  1  0.05981  0  0.014885  0.091277  0  4.002905  0
C  C23  1  0.61110975  0.53679738  0.86239596  1  0.122926  0  0.084296  0.021999  0  3.894201  0
C  C24  1  0.61252268  0.52029639  0.78354443  1  0.052031  0  -0.061235  -0.113856  0  3.917074  0
C  C25  1  0.53836794  0.61167551  0.15625907  1  0.554883  0  0.114386  0.218059  0  4.041818  0
C  C26  1  0.53987789  0.59897585  0.23715147  1  0.170284  0  0.074753  -0.04271  0  3.932248  0
C  C27  1  0.39905801  0.52333060  0.21578887  1  0.60427  0  0.101318  0.16322  0  4.05632  0
C  C28  1  0.39909380  0.53478639  0.13469363  1  0.529156  0  0.107778  0.168831  0  4.071595  0
C  C29  1  0.46874655  0.57840798  0.10311384  1  0.123337  0  -0.020814  -0.139656  0  4.107926  0
C  C30  1  0.53250029  0.53342020  0.98522931  1  -0.060217  0  -0.038159  -0.0973  0  3.912755  0
C  C31  1  0.47315911  0.58225853  0.01751292  1  0.356186  0  0.071403  0.032054  0  3.914725  0
C  C32  1  0.47023633  0.55412196  0.26846702  1  0.194507  0  -0.005588  -0.125343  0  3.948601  0
C  C33  1  0.55361702  0.04353961  0.44824047  1  -0.054958  0  -0.150642  -0.302243  0  3.834918  0
C  C34  1  0.39665565  0.04595421  0.48353723  1  0.52808  0  0.038911  0.145552  0  3.794479  0
C  C35  1  0.39488952  0.94919475  0.49632009  1  0.201721  0  0.006073  -0.129822  0  3.701487  0
C  C36  1  0.49423535  0.74586760  0.52202786  1  0.32732  0  -0.008731  -0.07833  0  3.873428  0
C  C37  1  0.49533866  0.07977827  0.50989380  1  0.116712  0  0.009683  0.083497  0  3.865444  0
C  C38  1  0.54350948  0.94858836  0.44324776  1  0.378427  0  0.165697  0.07114  0  3.569473  0
C  C39  1  0.49533753  0.91252543  0.51444435  1  0.137181  0  0.024343  0.10163  0  3.819662  0
C  C40  1  0.55398649  0.95044436  0.58792306  1  0.127982  0  0.00539  -0.12279  0  3.687154  0
C  C41  1  0.53639539  0.04448583  0.59376393  1  0.381307  0  0.161948  0.036979  0  3.545157  0
C  C42  1  0.49542139  0.82184123  0.51932073  1  -0.524157  0  -0.054524  -0.102365  0  4.100447  0
C  C43  1  0.49714502  0.17042398  0.50202239  1  0.192934  0  -0.045379  -0.070657  0  4.070246  0
C  C44  1  0.50259046  0.24569494  0.49107275  1  -0.419556  0  -0.02215  -0.121205  0  3.900316  0
C  C45  1  0.05338266  0.40709572  0.53398984  1  0.746019  0  0.189181  0.22989  0  3.743236  0
C  C46  1  0.04925466  0.49555746  0.40797431  1  -0.072142  0  -0.147556  -0.338488  0  3.851851  0
C  C47  1  0.94689086  0.51695905  0.40255301  1  0.7718  0  0.187981  0.279945  0  3.76516  0
C  C48  1  0.09148300  0.48672964  0.49583170  1  0.136007  0  0.012658  -0.011932  0  3.904348  0
C  C49  1  0.94681775  0.40747519  0.51811410  1  0.196703  0  0.016511  -0.141405  0  3.69559  0
C  C50  1  0.91088063  0.49537919  0.48237660  1  0.096538  0  0.016025  -0.119528  0  3.849903  0
C  C51  1  0.95605471  0.56083338  0.54318962  1  1.178005  0  0.212842  0.412322  0  3.909032  0
C  C52  1  0.06076133  0.56621491  0.53751296  1  0.587395  0  0.04064  0.034316  0  3.834366  0
C  C53  1  0.81164782  0.50128069  0.48135846  1  0.992037  0  0.231152  0.302168  0  3.906441  0
C  C54  1  0.19128284  0.48524404  0.50256851  1  0.874409  0  0.241284  0.309355  0  3.861453  0
N  N55  1  0.73595556  0.50504007  0.49331881  1  -1.124654  0  -0.248476  -0.225558  0  3.071217  0
N  N56  1  0.27040453  0.49018737  0.50741145  1  -1.074703  0  -0.251686  -0.239359  0  3.078574  0
N  N57  1  0.48672726  0.92300899  0.36388634  1  0.508638  0  0.056327  0.458568  0  4.187012  0
N  N58  1  0.33622251  0.92279893  0.55975700  1  0.452538  0  0.056308  0.536753  0  4.176759  0
N  N59  1  0.63304909  0.08868363  0.61787649  1  0.524664  0  0.065892  0.472395  0  4.140955  0
N  N60  1  0.48074984  0.07336116  0.66008978  1  0.526937  0  0.05567  0.461119  0  4.253252  0
N  N61  1  0.61581680  0.63532319  0.28982220  1  0.42217  0  0.061705  0.537424  0  4.226589  0
N  N62  1  0.63974319  0.90898114  0.43699074  1  0.497441  0  0.063334  0.479222  0  4.176477  0
N  N63  1  0.55990985  0.89778236  0.66615672  1  0.525726  0  0.056522  0.525022  0  4.192755  0
N  N64  1  0.90622683  0.33745557  0.46565822  1  0.501697  0  0.05589  0.506522  0  4.201462  0
N  N65  1  0.09670612  0.32303613  0.50748177  1  0.520756  0  0.061434  0.430861  0  4.209092  0
N  N66  1  0.89087949  0.47411146  0.33092545  1  0.51924  0  0.062811  0.439259  0  4.192633  0
N  N67  1  0.40916514  0.64242490  0.97042634  1  0.402265  0  0.055654  0.514405  0  4.209319  0
N  N68  1  0.69146912  0.57703037  0.90493578  1  0.369155  0  0.061324  0.518333  0  4.191902  0
O  O69  1  0.58436943  0.36872911  0.50185773  1  -1.136191  0  -0.305982  -0.530791  0  2.246875  0
O  O70  1  0.42792495  0.37448863  0.47058072  1  -1.137871  0  -0.309922  -0.537618  0  2.248943  0
O  O71  1  0.60535113  0.48984621  0.62454294  1  -1.152103  0  -0.312997  -0.536631  0  2.298839  0
O  O72  1  0.45420882  0.45682003  0.61753138  1  -1.165598  0  -0.318331  -0.559862  0  2.319106  0
O  O73  1  0.57245893  0.62278240  0.50869127  1  -1.123577  0  -0.297738  -0.525375  0  2.280947  0
O  O74  1  0.42346385  0.61757105  0.53399825  1  -1.125838  0  -0.307822  -0.533386  0  2.24289  0
O  O75  1  0.55719935  0.50670087  0.38615930  1  -1.155349  0  -0.30889  -0.540766  0  2.320508  0
O  O76  1  0.40572945  0.53833873  0.38821731  1  -1.140899  0  -0.31107  -0.535502  0  2.289211  0
O  O77  1  0.48949952  0.84799657  0.35094017  1  -0.392673  0  -0.078424  -0.248901  0  1.972752  0
O  O78  1  0.44252356  0.97873521  0.32284127  1  -0.430361  0  -0.10373  -0.282549  0  1.927709  0
O  O79  1  0.35236333  0.95592005  0.62357348  1  -0.405604  0  -0.103773  -0.293291  0  1.999956  0
O  O80  1  0.27655818  0.87077052  0.54117486  1  -0.413292  0  -0.119422  -0.30476  0  1.853367  0
O  O81  1  0.69842025  0.06135001  0.58741915  1  -0.429281  0  -0.097694  -0.273682  0  1.945303  0
O  O82  1  0.63355830  0.14750428  0.66137509  1  -0.373893  0  -0.075169  -0.241924  0  1.93303  0
O  O83  1  0.49675266  0.03393035  0.72334224  1  -0.398201  0  -0.09403  -0.262975  0  1.968616  0
O  O84  1  0.43101794  0.13562289  0.64449653  1  -0.389586  0  -0.085437  -0.255254  0  1.990765  0
O  O85  1  0.69502527  0.61323916  0.28138609  1  -0.425422  0  -0.137739  -0.335337  0  1.894203  0
O  O86  1  0.59408666  0.68587715  0.33717111  1  -0.408794  0  -0.11252  -0.295184  0  1.92444  0
O  O87  1  0.67824825  0.86567417  0.49266037  1  -0.397293  0  -0.076986  -0.243273  0  1.944587  0
O  O88  1  0.67007591  0.92888054  0.37541467  1  -0.398462  0  -0.098952  -0.271899  0  1.883097  0
O  O89  1  0.49690243  0.85087138  0.67735309  1  -0.411684  0  -0.089179  -0.26548  0  1.965576  0
O  O90  1  0.63314543  0.90604734  0.70922039  1  -0.415822  0  -0.119593  -0.29808  0  1.87832  0
O  O91  1  0.83833874  0.30312735  0.48576469  1  -0.37503  0  -0.067253  -0.230504  0  1.885718  0
O  O92  1  0.94410031  0.32406218  0.40685601  1  -0.440802  0  -0.106473  -0.300434  0  1.956137  0
O  O93  1  0.07257972  0.25973066  0.54147606  1  -0.378043  0  -0.078107  -0.233649  0  1.908593  0
O  O94  1  0.15153177  0.32920977  0.45935575  1  -0.379239  0  -0.070831  -0.2369  0  1.957356  0
O  O95  1  0.81244316  0.45206129  0.33906661  1  -0.394681  0  -0.074931  -0.246158  0  1.986122  0
O  O96  1  0.93015211  0.47098247  0.27232762  1  -0.380729  0  -0.080323  -0.234864  0  1.895506  0
O  O97  1  0.35039225  0.67598756  0.00561369  1  -0.444125  0  -0.140469  -0.332557  0  1.859952  0
O  O98  1  0.41805916  0.65619059  0.90028794  1  -0.447962  0  -0.125717  -0.317172  0  1.896872  0
O  O99  1  0.68801262  0.59227243  0.97530843  1  -0.435498  0  -0.124295  -0.321183  0  1.912161  0
O  O100  1  0.75788343  0.59289141  0.86953330  1  -0.438802  0  -0.128017  -0.320273  0  1.862928  0
F  F101  1  0.33188593  0.49969954  0.08591969  1  -0.618735  0  -0.085017  -0.104128  0  1.360247  0
F  F102  1  0.32703690  0.08509741  0.51644187  1  -0.60804  0  -0.113444  -0.139192  0  1.330301  0
F  F103  1  0.93062076  0.60136249  0.38357689  1  -0.588149  0  -0.080007  -0.129878  0  1.298279  0
F  F104  1  0.10937765  0.57342537  0.61099043  1  -0.590761  0  -0.095826  -0.104189  0  1.323446  0
F  F105  1  0.33155837  0.47699512  0.24143195  1  -0.614607  0  -0.090582  -0.103888  0  1.356621  0
F  F106  1  0.94146699  0.53349948  0.61699200  1  -0.588786  0  -0.078842  -0.143183  0  1.318953  0
F  F107  1  0.07918561  0.40431154  0.61388688  1  -0.598325  0  -0.076659  -0.120476  0  1.330184  0
F  F108  1  0.91462272  0.63751895  0.52896941  1  -0.593265  0  -0.077431  -0.139257  0  1.319154  0
F  F109  1  0.60440301  0.65737971  0.12784516  1  -0.612974  0  -0.075943  -0.093314  0  1.363403  0
