# generated using pymatgen
data_NiH12C10N2O5
_symmetry_space_group_name_H-M   'P 1'
_cell_length_a   7.25080871
_cell_length_b   9.09774969
_cell_length_c   17.99000000
_cell_angle_alpha   90.04358076
_cell_angle_beta   90.00000000
_cell_angle_gamma   90.00000000
_symmetry_Int_Tables_number   1
_chemical_formula_structural   NiH12C10N2O5
_chemical_formula_sum   'Ni4 H48 C40 N8 O20'
_cell_volume   1186.72876464
_cell_formula_units_Z   4
loop_
 _symmetry_equiv_pos_site_id
 _symmetry_equiv_pos_as_xyz
  1  'x, y, z'
loop_
 _atom_site_type_symbol
 _atom_site_label
 _atom_site_symmetry_multiplicity
 _atom_site_fract_x
 _atom_site_fract_y
 _atom_site_fract_z
 _atom_site_occupancy
 _atom_site_hle17_ddec_charge
 _atom_site_hle17_ddec_spin_density
 _atom_site_hle17_ddec_sum_bond_order
 _atom_site_hle17_magmom
 _atom_site_hse06_10hf_ddec_charge
 _atom_site_hse06_10hf_ddec_spin_density
 _atom_site_hse06_10hf_ddec_sum_bond_order
 _atom_site_hse06_10hf_magmom
 _atom_site_hse06_ddec_charge
 _atom_site_hse06_ddec_spin_density
 _atom_site_hse06_ddec_sum_bond_order
 _atom_site_hse06_magmom
 _atom_site_pbe_bader_charge
 _atom_site_pbe_bader_spin_density
 _atom_site_pbe_cm5_charge
 _atom_site_pbe_ddec_charge
 _atom_site_pbe_ddec_spin_density
 _atom_site_pbe_ddec_sum_bond_order
 _atom_site_pbe_magmom
Ni  Ni0  1  0.53520513  0.12745903  0.86226859  1  0.832887  -1.806089  2.026927  -1.492  0.835877  -1.84423  2.412065  -1.615  0.924604  -1.908067  2.341334  -1.704  1.148824  -1.54637  0.640131  0.76977  -1.778874  2.463069  -1.533
Ni  Ni1  1  0.03601805  0.87243358  0.63766744  1  0.833297  1.806352  2.024192  1.492  0.836358  1.844478  2.409117  1.616  0.925115  1.908334  2.338437  1.704  1.160767  1.546189  0.639474  0.769911  1.779099  2.460531  1.533
Ni  Ni2  1  0.46405996  0.87249733  0.13758131  1  0.832861  1.80595  2.023254  1.492  0.835921  1.844312  2.408117  1.616  0.924717  1.908217  2.337481  1.704  1.155167  1.546441  0.639599  0.769686  1.778931  2.45906  1.533
Ni  Ni3  1  0.96445518  0.12766677  0.36234483  1  0.832152  -1.806137  2.024757  -1.492  0.835252  -1.844477  2.409402  -1.616  0.92409  -1.908378  2.338785  -1.704  1.149696  -1.546511  0.639529  0.768933  -1.779112  2.460589  -1.533
H  H4  1  0.77240212  0.31520661  0.97435693  1  0.094719  -0.001003  0.944539  -0.002  0.101514  -0.000792  1.00673  -0.001  0.104392  -0.000555  1.003492  -0.001  0.132517  -0.002576  0.121556  0.098917  -0.001047  1.010072  -0.002
H  H5  1  0.27559684  0.68282729  0.52645554  1  0.094157  0.000992  0.946388  0.002  0.10123  0.000785  1.008348  0.001  0.104126  0.00055  1.005073  0.001  0.134383  0.002553  0.121167  0.098622  0.001039  1.01166  0.002
H  H6  1  0.22517212  0.68373411  0.02621631  1  0.094647  0.001002  0.945805  0.002  0.101216  0.00079  1.008294  0.001  0.104112  0.000554  1.005028  0.001  0.142289  0.002568  0.121183  0.098544  0.001047  1.011706  0.002
H  H7  1  0.72595351  0.31617938  0.47378921  1  0.094401  -0.001002  0.945637  -0.002  0.101009  -0.00079  1.008108  -0.001  0.103876  -0.000554  1.004879  -0.001  0.137127  -0.00257  0.121253  0.098349  -0.001047  1.011507  -0.002
H  H8  1  0.80406755  0.58617589  0.99825883  1  0.103951  -0.00037  0.961158  0.0  0.114182  -0.000381  1.020059  0.0  0.116885  -0.000272  1.020218  0.0  0.085864  -0.00101  0.105853  0.111922  -0.000467  1.020397  0.0
H  H9  1  0.30445018  0.41159091  0.50257355  1  0.104273  0.000373  0.961408  0.0  0.114652  0.000381  1.020083  0.0  0.117492  0.000272  1.02005  0.0  0.084125  0.00101  0.105974  0.11238  0.000466  1.020445  0.0
H  H10  1  0.19521960  0.41260215  0.00221763  1  0.104238  0.000372  0.960914  0.0  0.114522  0.000381  1.019737  0.0  0.117248  0.000272  1.019856  0.0  0.09392  0.001009  0.10595  0.112244  0.000467  1.020101  0.0
H  H11  1  0.69558448  0.58728606  0.49777955  1  0.103747  -0.000372  0.961546  0.0  0.114213  -0.00038  1.020142  0.0  0.116919  -0.000272  1.020288  0.0  0.091857  -0.001008  0.1057  0.111949  -0.000466  1.020492  0.0
H  H12  1  0.62406004  0.76182048  0.91886058  1  0.116071  -0.00015  0.945579  0.0  0.126455  0.000104  1.00343  0.0  0.129544  8.3e-05  1.000446  0.0  0.162917  0.0001  0.116002  0.123656  0.000106  1.006555  0.0
H  H13  1  0.12053552  0.23729062  0.58131195  1  0.11658  0.000147  0.945275  0.0  0.126474  -0.000105  1.003812  0.0  0.12962  -8.4e-05  1.00077  0.0  0.153922  -0.000102  0.116315  0.123702  -0.000107  1.006908  0.0
H  H14  1  0.37773166  0.23772039  0.08115147  1  0.116093  0.00015  0.94484  0.0  0.126292  -0.000104  1.003185  0.0  0.129318  -8.3e-05  1.000265  0.0  0.158638  -9.9e-05  0.116022  0.1236  -0.000105  1.006175  0.0
H  H15  1  0.87764831  0.76232829  0.41877795  1  0.116188  -0.00015  0.945219  0.0  0.126059  0.000104  1.003897  0.0  0.129076  8.3e-05  1.001005  0.0  0.158355  9.9e-05  0.115928  0.12337  0.000105  1.006879  0.0
H  H16  1  0.43029821  0.66203863  0.81582498  1  0.123305  -0.000679  0.955688  0.0  0.128244  -0.000702  1.022028  0.0  0.133652  -0.000507  1.01807  0.0  0.139787  -0.001347  0.105692  0.123763  -0.000648  1.02598  -0.001
H  H17  1  0.92729243  0.33844643  0.68414853  1  0.123865  0.000671  0.955549  0.0  0.128953  0.000692  1.021589  0.0  0.134413  0.0005  1.017584  0.0  0.091378  0.001372  0.105902  0.124431  0.00064  1.025566  0.001
H  H18  1  0.57156383  0.33820571  0.18393721  1  0.123638  0.000677  0.955605  0.0  0.128747  0.000697  1.021582  0.0  0.134182  0.000504  1.017611  0.0  0.097761  0.001373  0.10594  0.124187  0.000644  1.025607  0.001
H  H19  1  0.07151202  0.66203423  0.31595838  1  0.123285  -0.000678  0.956306  0.0  0.128478  -0.000698  1.022231  0.0  0.133861  -0.000504  1.018311  0.0  0.13737  -0.001345  0.105813  0.123925  -0.000645  1.026242  -0.001
H  H20  1  0.30512872  0.44205450  0.75085820  1  0.079085  -0.002056  0.930432  -0.003  0.094711  -0.001346  0.990753  -0.002  0.094976  -0.000885  0.991485  -0.001  0.069784  -0.003978  0.102784  0.094008  -0.001829  0.991305  -0.002
H  H21  1  0.80617076  0.55859544  0.74973127  1  0.078948  0.002061  0.930964  0.003  0.094437  0.001347  0.991029  0.002  0.094694  0.000885  0.991788  0.001  0.079685  0.003965  0.102769  0.093783  0.001832  0.99148  0.002
H  H22  1  0.69503420  0.55860643  0.24917930  1  0.079481  0.002052  0.929362  0.003  0.094921  0.001341  0.989676  0.002  0.095243  0.000882  0.990335  0.001  0.064688  0.003974  0.10289  0.094166  0.001823  0.990269  0.002
H  H23  1  0.19511341  0.44157306  0.25065290  1  0.079198  -0.002056  0.930175  -0.003  0.094731  -0.001343  0.990524  -0.002  0.094998  -0.000882  0.991238  -0.001  0.063184  -0.00398  0.102747  0.094026  -0.001826  0.991067  -0.002
H  H24  1  0.51174016  0.34372136  0.73041070  1  0.103014  0.000189  0.910546  0.0  0.119161  0.000119  0.969067  0.0  0.120991  0.000126  0.967159  0.0  0.091823  3.1e-05  0.119633  0.11748  0.000142  0.970965  0.0
H  H25  1  0.01310888  0.65721436  0.76940733  1  0.102409  -0.000177  0.911684  0.0  0.118707  -0.000112  0.96979  0.0  0.120541  -0.00012  0.967858  0.0  0.082297  -9e-06  0.119513  0.116998  -0.000132  0.971746  0.0
H  H26  1  0.48814831  0.65670544  0.26947106  1  0.102914  -0.000185  0.910735  0.0  0.119047  -0.000116  0.969071  0.0  0.120858  -0.000123  0.967193  0.0  0.091598  -2.3e-05  0.119529  0.117291  -0.000138  0.971053  0.0
H  H27  1  0.98826080  0.34336303  0.23048505  1  0.102764  0.000184  0.910815  0.0  0.118693  0.000117  0.969492  0.0  0.120507  0.000124  0.967593  0.0  0.092164  2.3e-05  0.119435  0.116937  0.000138  0.971481  0.0
H  H28  1  0.04039687  0.20216983  0.81629344  1  0.115881  -0.00096  0.936275  -0.001  0.130047  -0.000633  0.995371  -0.001  0.132035  -0.00042  0.99455  -0.001  0.088838  -0.001952  0.116048  0.128466  -0.000838  0.996202  -0.001
H  H29  1  0.54074796  0.79792502  0.68361599  1  0.116142  0.000963  0.935604  0.001  0.12986  0.000636  0.995084  0.001  0.131879  0.000423  0.994292  0.001  0.091894  0.001958  0.115961  0.128292  0.000842  0.995846  0.001
H  H30  1  0.95936747  0.79869444  0.18341006  1  0.115852  0.000961  0.93514  0.001  0.130191  0.000634  0.994477  0.001  0.132208  0.000421  0.993659  0.001  0.097391  0.001946  0.116147  0.128576  0.000839  0.995333  0.001
H  H31  1  0.45980526  0.20217643  0.31646187  1  0.116145  -0.000969  0.935158  -0.001  0.130131  -0.000639  0.994562  -0.001  0.132154  -0.000424  0.993698  -0.001  0.093398  -0.001968  0.115963  0.128528  -0.000846  0.9954  -0.001
H  H32  1  0.14060914  0.36019467  0.85498958  1  0.100407  -0.000326  0.915237  -0.001  0.117612  -0.000228  0.971947  0.0  0.119293  -0.000149  0.971282  0.0  0.060541  -0.000827  0.115747  0.116831  -0.000299  0.972132  0.0
H  H33  1  0.64139190  0.63990458  0.64500323  1  0.100314  0.000321  0.914655  0.0  0.117336  0.000223  0.971463  0.0  0.119023  0.000145  0.970847  0.0  0.06148  0.000813  0.115599  0.116523  0.000292  0.971663  0.0
H  H34  1  0.85920347  0.64036733  0.14490558  1  0.100599  0.000326  0.914804  0.001  0.118255  0.000226  0.971378  0.0  0.119945  0.000147  0.970722  0.0  0.063419  0.000822  0.115949  0.117454  0.000297  0.971585  0.0
H  H35  1  0.35905512  0.36004079  0.35513349  1  0.10051  -0.000319  0.914856  0.0  0.117785  -0.000221  0.971522  0.0  0.119458  -0.000144  0.970865  0.0  0.062126  -0.000812  0.115813  0.116979  -0.000291  0.971736  0.0
H  H36  1  0.41022321  0.13388040  0.69431275  1  0.122552  4e-05  0.906631  0.0  0.138836  8.5e-05  0.958653  0.0  0.141239  7.4e-05  0.95732  0.0  0.086107  -6.6e-05  0.123174  0.137218  9e-05  0.959697  0.0
H  H37  1  0.91112595  0.86704103  0.80548415  1  0.122206  -4e-05  0.906896  0.0  0.138888  -8.4e-05  0.958684  0.0  0.141268  -7.3e-05  0.957355  0.0  0.085005  6.7e-05  0.122979  0.137281  -9e-05  0.95969  0.0
H  H38  1  0.58921979  0.86715974  0.30542528  1  0.12255  -4.1e-05  0.906603  0.0  0.139345  -8.5e-05  0.958481  0.0  0.14176  -7.4e-05  0.957109  0.0  0.087785  6.3e-05  0.123066  0.137725  -9.2e-05  0.959511  0.0
H  H39  1  0.08931418  0.13309999  0.19455981  1  0.122679  4.1e-05  0.906808  0.0  0.139293  8.5e-05  0.958594  0.0  0.141711  7.4e-05  0.957209  0.0  0.08714  -6.2e-05  0.123117  0.137679  9.2e-05  0.959608  0.0
H  H40  1  0.16760337  0.14139654  0.70657023  1  0.109369  -0.001862  0.989061  -0.003  0.116573  -0.001149  1.058935  -0.001  0.118338  -0.000824  1.058952  -0.001  0.131586  -0.002981  0.109579  0.115323  -0.001454  1.059001  -0.002
H  H41  1  0.66848267  0.85906543  0.79355835  1  0.109696  0.001866  0.987995  0.003  0.116334  0.001153  1.058908  0.001  0.118088  0.000828  1.058912  0.001  0.128092  0.002993  0.109445  0.115096  0.00146  1.058942  0.002
H  H42  1  0.83184790  0.85937760  0.29334168  1  0.109374  0.001871  0.988279  0.003  0.1166  0.001155  1.058652  0.001  0.118348  0.000829  1.058692  0.001  0.134108  0.002991  0.109491  0.115358  0.001461  1.058695  0.002
H  H43  1  0.33194366  0.14074034  0.20656998  1  0.10935  -0.001868  0.988929  -0.003  0.116308  -0.001153  1.05924  -0.001  0.118056  -0.000826  1.05926  -0.001  0.133576  -0.002983  0.109413  0.115071  -0.001458  1.059279  -0.002
H  H44  1  0.84141097  0.07369737  0.93656365  1  0.423242  -0.000204  0.881366  0.0  0.396508  -0.000387  0.939845  0.0  0.408131  -0.000221  0.923176  0.0  0.659603  -0.000395  0.291851  0.388159  -0.000548  0.951873  -0.001
H  H45  1  0.34256317  0.92588087  0.56332669  1  0.423656  0.000207  0.880861  0.0  0.397168  0.000388  0.93892  0.0  0.408756  0.000222  0.922292  0.0  0.655088  0.000415  0.29191  0.388836  0.000548  0.950939  0.001
H  H46  1  0.15761690  0.92605454  0.06318779  1  0.423586  0.000207  0.881116  0.0  0.397062  0.000387  0.939236  0.0  0.408657  0.000221  0.922596  0.0  0.656373  0.000412  0.291878  0.388725  0.000548  0.951265  0.001
H  H47  1  0.65794868  0.07382267  0.43665208  1  0.424103  -0.000209  0.880406  0.0  0.397307  -0.000389  0.938932  0.0  0.408949  -0.000223  0.922243  0.0  0.659196  -0.000408  0.29207  0.388951  -0.000551  0.950965  -0.001
H  H48  1  0.68930932  0.97322007  0.97441716  1  0.425273  -6.9e-05  0.872439  -0.001  0.400322  -0.000216  0.927646  -0.001  0.413388  -0.000193  0.908795  -0.001  0.652558  -0.000217  0.295268  0.390954  -0.000214  0.941176  -0.001
H  H49  1  0.19052082  0.02657801  0.52556164  1  0.424957  6.8e-05  0.872374  0.001  0.399984  0.000216  0.927891  0.001  0.413045  0.000192  0.909064  0.001  0.652056  0.000211  0.295011  0.390595  0.000214  0.941458  0.001
H  H50  1  0.30970752  0.02656702  0.02537042  1  0.425704  6.8e-05  0.870873  0.001  0.400404  0.000215  0.927247  0.001  0.41347  0.000192  0.908408  0.001  0.64997  0.000212  0.295151  0.391004  0.000213  0.94083  0.001
H  H51  1  0.81020066  0.97341902  0.47447560  1  0.425604  -6.9e-05  0.871735  -0.001  0.40055  -0.000217  0.927218  -0.001  0.413665  -0.000193  0.908282  -0.001  0.652211  -0.000213  0.295219  0.391149  -0.000216  0.940809  -0.001
C  C52  1  0.70068322  0.39597056  0.94025515  1  0.127923  0.008569  3.699514  0.011  0.100398  0.002251  3.960857  0.004  0.109779  0.00245  3.978088  0.004  0.443853  0.005272  0.049144  0.093386  0.00249  3.950391  0.004
C  C53  1  0.20214435  0.60261073  0.56027571  1  0.128436  -0.008413  3.699666  -0.011  0.100752  -0.002182  3.960366  -0.004  0.110098  -0.00239  3.977692  -0.004  0.464549  -0.005175  0.049559  0.093798  -0.002414  3.949807  -0.004
C  C54  1  0.29808123  0.60326034  0.06008030  1  0.127756  -0.008502  3.699991  -0.011  0.10065  -0.002205  3.960921  -0.004  0.110013  -0.002413  3.978192  -0.004  0.448853  -0.005192  0.049429  0.09371  -0.002435  3.95045  -0.004
C  C55  1  0.79863230  0.39674108  0.43990914  1  0.1283  0.008499  3.700605  0.011  0.100953  0.002218  3.961585  0.004  0.110329  0.002423  3.978838  0.004  0.451352  0.005216  0.049449  0.09402  0.002449  3.951097  0.004
C  C56  1  0.71655180  0.54640671  0.95339417  1  -0.125313  -0.008391  3.732655  -0.01  -0.139659  -0.003009  3.984115  -0.004  -0.147634  -0.002815  4.005018  -0.004  -0.018576  -0.005779  -0.085976  -0.134321  -0.003405  3.971033  -0.005
C  C57  1  0.21643241  0.45205368  0.54712719  1  -0.125389  0.008309  3.732742  0.01  -0.139735  0.002996  3.983784  0.004  -0.147796  0.002797  4.004666  0.004  -0.04183  0.005774  -0.086118  -0.1344  0.003395  3.970711  0.005
C  C58  1  0.28311601  0.45278463  0.04689234  1  -0.125769  0.008383  3.734539  0.01  -0.140009  0.003006  3.985622  0.004  -0.147977  0.002808  4.006501  0.004  -0.027299  0.005792  -0.086288  -0.134672  0.003405  3.972549  0.005
C  C59  1  0.78347812  0.54719811  0.45309709  1  -0.124823  -0.008364  3.733552  -0.01  -0.139196  -0.003004  3.984504  -0.004  -0.147152  -0.002806  4.005385  -0.004  -0.043594  -0.005778  -0.085862  -0.133872  -0.003402  3.971421  -0.005
C  C60  1  0.61782212  0.64394734  0.90888250  1  0.016242  0.009429  3.688784  0.01  -0.003576  0.003275  3.937999  0.004  0.002881  0.002883  3.953295  0.003  -0.002714  0.007649  -0.062655  -0.008849  0.004345  3.929155  0.005
C  C61  1  0.11576364  0.35521212  0.59131284  1  0.0162  -0.009308  3.691033  -0.01  -0.003817  -0.003228  3.940745  -0.004  0.002589  -0.002846  3.95603  -0.003  -0.029303  -0.00755  -0.062983  -0.009091  -0.004286  3.931871  -0.005
C  C62  1  0.38312002  0.35563970  0.09115181  1  0.017023  -0.009392  3.689436  -0.01  -0.003162  -0.003247  3.939192  -0.004  0.003331  -0.002863  3.954483  -0.003  -0.039068  -0.007586  -0.062339  -0.008492  -0.004306  3.930297  -0.005
C  C63  1  0.88324631  0.64443207  0.40879652  1  0.016449  0.00938  3.689498  0.01  -0.003501  0.00325  3.939185  0.004  0.002992  0.002864  3.954461  0.003  -0.022563  0.007592  -0.062446  -0.008825  0.00431  3.930279  0.005
C  C64  1  0.51043272  0.58793127  0.85097490  1  -0.175311  -0.006951  3.70913  -0.008  -0.190182  -0.002454  3.954476  -0.003  -0.198505  -0.002384  3.9729  -0.003  -0.106558  -0.004525  -0.088933  -0.184651  -0.002718  3.9433  -0.003
C  C65  1  0.00855491  0.41196573  0.64908954  1  -0.176799  0.006861  3.709361  0.008  -0.191265  0.002433  3.954444  0.003  -0.199653  0.00236  3.97291  0.003  -0.078657  0.004547  -0.089083  -0.185668  0.002698  3.943246  0.003
C  C66  1  0.49065286  0.41205586  0.14892782  1  -0.175649  0.006933  3.707722  0.008  -0.19032  0.002445  3.952907  0.003  -0.198662  0.002374  3.971343  0.003  -0.031465  0.004493  -0.088698  -0.184721  0.002712  3.941752  0.003
C  C67  1  0.99074604  0.58813462  0.35098499  1  -0.175522  -0.006917  3.707593  -0.008  -0.190087  -0.002445  3.952564  -0.003  -0.198389  -0.002374  3.971037  -0.003  -0.069951  -0.004525  -0.088938  -0.184489  -0.002712  3.941413  -0.003
C  C68  1  0.50790472  0.43670592  0.83900122  1  0.21566  0.005749  3.738433  0.007  0.220326  0.000686  3.989803  0.001  0.228986  0.001227  4.011269  0.002  0.431321  0.001817  0.112198  0.213764  0.000549  3.976182  0.001
C  C69  1  0.00771086  0.56321416  0.66109825  1  0.217022  -0.005676  3.736484  -0.007  0.220446  -0.000672  3.988746  -0.001  0.22909  -0.001214  4.010241  -0.002  0.498173  -0.001843  0.11184  0.213887  -0.000526  3.975102  -0.001
C  C70  1  0.49226647  0.56331419  0.16096099  1  0.215705  -0.005733  3.736693  -0.007  0.219957  -0.000674  3.988569  -0.001  0.228581  -0.001218  4.010108  -0.002  0.440636  -0.00179  0.11149  0.213431  -0.000529  3.974853  -0.001
C  C71  1  0.99258859  0.43687299  0.33896460  1  0.216521  0.005715  3.734138  0.007  0.220353  0.000673  3.986408  0.001  0.229019  0.001217  4.00784  0.002  0.446433  0.001795  0.111735  0.213812  0.000529  3.972733  0.001
C  C72  1  0.40948260  0.36692601  0.77410223  1  -0.087321  0.001411  3.659274  0.004  -0.153194  -0.000477  3.923536  0.001  -0.149731  -6e-05  3.93401  0.001  0.243441  -0.000591  -0.061164  -0.155496  -0.000894  3.916924  0.001
C  C73  1  0.91015503  0.63355136  0.72603970  1  -0.088735  -0.001432  3.660611  -0.004  -0.153647  0.000459  3.923724  -0.001  -0.150195  4.3e-05  3.934139  -0.001  0.244727  0.000585  -0.061501  -0.155922  0.000873  3.917175  -0.001
C  C74  1  0.59050655  0.63347661  0.22582010  1  -0.088246  -0.001416  3.657812  -0.004  -0.153319  0.000468  3.921062  -0.001  -0.149883  5.1e-05  3.931458  -0.001  0.24309  0.00057  -0.061316  -0.155528  0.000884  3.914478  -0.001
C  C75  1  0.09070161  0.36672046  0.27408158  1  -0.087902  0.001423  3.658253  0.004  -0.153129  -0.000469  3.922018  0.001  -0.149649  -5.4e-05  3.932442  0.001  0.240889  -0.00057  -0.061091  -0.155351  -0.000885  3.915395  0.001
C  C76  1  0.16490988  0.24248861  0.84456854  1  -0.180621  0.001509  3.604413  0.005  -0.234869  -0.000242  3.860001  0.002  -0.235657  0.000142  3.868258  0.002  0.229756  3.4e-05  -0.07148  -0.234404  -0.000638  3.853921  0.002
C  C77  1  0.66549266  0.75765241  0.65543985  1  -0.180583  -0.001484  3.602724  -0.005  -0.23398  0.000257  3.857236  -0.002  -0.234943  -0.000129  3.865688  -0.002  0.226172  0.0  -0.070814  -0.233418  0.000656  3.851044  -0.002
C  C78  1  0.83475240  0.75809318  0.15526437  1  -0.180307  -0.001498  3.602363  -0.005  -0.236241  0.000253  3.859188  -0.002  -0.237137  -0.00013  3.867519  -0.002  0.220226  -5e-06  -0.071833  -0.235727  0.000652  3.853129  -0.002
C  C79  1  0.33502884  0.24231604  0.34463851  1  -0.180522  0.001496  3.603424  0.005  -0.23514  -0.000253  3.858777  0.002  -0.235943  0.000132  3.867004  0.002  0.223073  1.9e-05  -0.071242  -0.234623  -0.000652  3.852678  0.002
C  C80  1  0.17735401  0.17002121  0.92140337  1  0.669167  0.001414  3.859047  0.003  0.620917  -0.00077  4.173101  0.0  0.655358  -0.000475  4.167308  0.0  1.611572  -0.000658  0.210427  0.596906  -0.000997  4.176112  -0.001
C  C81  1  0.67820159  0.82992195  0.57855826  1  0.669256  -0.001413  3.860051  -0.003  0.621439  0.000767  4.173247  0.0  0.655918  0.000473  4.167476  0.0  1.610733  0.000659  0.210251  0.597411  0.000994  4.176235  0.001
C  C82  1  0.82187798  0.83021433  0.07836493  1  0.669249  -0.001407  3.859614  -0.003  0.622403  0.00077  4.172126  0.0  0.656868  0.000473  4.166327  0.0  1.608188  0.000663  0.210417  0.598381  0.000999  4.175158  0.001
C  C83  1  0.32235025  0.16992009  0.42149004  1  0.667993  0.00141  3.861476  0.003  0.621026  -0.000772  4.173739  0.0  0.655456  -0.000476  4.167982  0.0  1.612265  -0.00066  0.209996  0.597022  -0.001003  4.176728  -0.001
C  C84  1  0.29860393  0.12137730  0.73513452  1  -0.200972  0.001521  3.642487  0.005  -0.259011  -0.000226  3.899617  0.002  -0.261337  8.8e-05  3.909767  0.002  0.229753  3.8e-05  -0.078961  -0.257486  -0.000761  3.892539  0.002
C  C85  1  0.79918947  0.87922207  0.76478122  1  -0.200487  -0.001529  3.64224  -0.005  -0.259011  0.000218  3.900509  -0.002  -0.261297  -9.4e-05  3.910619  -0.002  0.244086  -3.1e-05  -0.079066  -0.257428  0.00075  3.893338  -0.002
C  C86  1  0.70097698  0.87936936  0.26464621  1  -0.20028  -0.001527  3.64166  -0.005  -0.259759  0.000224  3.900594  -0.002  -0.262057  -9.1e-05  3.910708  -0.002  0.236593  -2.5e-05  -0.079237  -0.258195  0.000757  3.893454  -0.002
C  C87  1  0.20114446  0.12083871  0.23529884  1  -0.20118  0.00153  3.643492  0.005  -0.259627  -0.000219  3.900982  0.002  -0.261901  9.4e-05  3.911103  0.002  0.228558  4.5e-05  -0.07929  -0.258075  -0.000753  3.89388  0.002
C  C88  1  0.30668579  0.96289004  0.76324698  1  0.668592  -0.000941  3.825389  -0.002  0.629976  -0.000553  4.132619  -0.001  0.666562  -0.000251  4.125705  0.0  1.558815  -0.001775  0.207729  0.603694  -0.000893  4.136176  -0.001
C  C89  1  0.80663140  0.03760272  0.73652197  1  0.666992  0.000914  3.825048  0.002  0.62872  0.000545  4.132385  0.001  0.665223  0.000249  4.125559  0.0  1.553258  0.001729  0.207382  0.60249  0.000873  4.135849  0.001
C  C90  1  0.69323440  0.03778628  0.23642921  1  0.667729  0.000929  3.825212  0.002  0.629604  0.000553  4.132486  0.001  0.666096  0.000255  4.125646  0.0  1.553911  0.00175  0.207527  0.603391  0.000884  4.135984  0.001
C  C91  1  0.19322258  0.96241190  0.26348193  1  0.667146  -0.000935  3.826304  -0.002  0.628947  -0.000557  4.13332  -0.001  0.665455  -0.000258  4.126472  0.0  1.554439  -0.001753  0.207475  0.602724  -0.000889  4.136822  -0.001
N  N92  1  0.59902973  0.34223748  0.88402436  1  -0.324952  -0.056241  3.294735  -0.084  -0.290805  -0.037321  3.582227  -0.056  -0.318339  -0.030734  3.601471  -0.048  -1.195966  -0.070687  -0.32814  -0.271757  -0.042651  3.569932  -0.063
N  N93  1  0.10007711  0.65716929  0.61619775  1  -0.325667  0.056079  3.290051  0.084  -0.291104  0.037295  3.577419  0.056  -0.318673  0.030682  3.596713  0.048  -1.205633  0.070671  -0.327445  -0.271966  0.042667  3.56507  0.063
N  N94  1  0.40015536  0.65746937  0.11607892  1  -0.324733  0.056358  3.291915  0.084  -0.290946  0.037411  3.579754  0.057  -0.318538  0.030782  3.599071  0.048  -1.206022  0.070898  -0.327607  -0.271852  0.042785  3.567397  0.063
N  N95  1  0.90063747  0.34265406  0.38387110  1  -0.325553  -0.056274  3.292844  -0.084  -0.291119  -0.037351  3.580282  -0.056  -0.318699  -0.03074  3.59954  -0.048  -1.205634  -0.070786  -0.327736  -0.272025  -0.042709  3.567931  -0.063
N  N96  1  0.33006525  0.22483369  0.79687470  1  -0.13498  -0.070511  3.328972  -0.105  -0.076135  -0.044135  3.59546  -0.067  -0.103032  -0.034536  3.622292  -0.054  -1.004348  -0.087833  -0.339306  -0.05624  -0.051538  3.575838  -0.076
N  N97  1  0.83067975  0.77554365  0.70311155  1  -0.134229  0.07044  3.328155  0.105  -0.075851  0.04407  3.59461  0.067  -0.102558  0.034484  3.620999  0.054  -1.01337  0.087638  -0.339232  -0.056089  0.051456  3.575288  0.076
N  N98  1  0.66951428  0.77571732  0.20295264  1  -0.135431  0.070469  3.327759  0.105  -0.076096  0.04407  3.594718  0.067  -0.102897  0.034489  3.621263  0.054  -1.011653  0.087664  -0.338688  -0.0562  0.051447  3.575029  0.076
N  N99  1  0.16991346  0.22459956  0.29693853  1  -0.134544  -0.070512  3.329312  -0.105  -0.07571  -0.044104  3.595812  -0.067  -0.102654  -0.034504  3.622681  -0.054  -1.001963  -0.087763  -0.339225  -0.055819  -0.051496  3.576132  -0.076
O  O100  1  0.03318113  0.16597516  0.95982871  1  -0.6139  -0.005444  1.951725  -0.008  -0.568165  -0.002764  2.171729  -0.004  -0.592416  -0.001377  2.160871  -0.002  -1.202388  -0.008271  -0.320613  -0.55053  -0.004468  2.178933  -0.007
O  O101  1  0.53411421  0.83388887  0.54007952  1  -0.61383  0.005411  1.953418  0.008  -0.568337  0.002748  2.173098  0.004  -0.592574  0.00137  2.162182  0.002  -1.199203  0.008219  -0.320586  -0.550732  0.004437  2.180343  0.007
O  O102  1  0.96595984  0.83423071  0.03987509  1  -0.613641  0.005433  1.953245  0.008  -0.568076  0.002758  2.172274  0.004  -0.59233  0.001374  2.161411  0.002  -1.200445  0.00826  -0.320293  -0.550447  0.004458  2.179474  0.007
O  O103  1  0.46646383  0.16580698  0.45995539  1  -0.613345  -0.005463  1.953791  -0.008  -0.567825  -0.002769  2.17296  -0.004  -0.592116  -0.001379  2.16213  -0.002  -1.201711  -0.008293  -0.320201  -0.550169  -0.004478  2.180146  -0.007
O  O104  1  0.33590046  0.12424285  0.94341744  1  -0.599186  -0.051422  2.093648  -0.081  -0.560314  -0.034708  2.348316  -0.056  -0.599894  -0.027091  2.340011  -0.045  -1.135175  -0.07004  -0.301487  -0.531062  -0.041023  2.352994  -0.065
O  O105  1  0.83677149  0.87558820  0.55653580  1  -0.599509  0.051278  2.093231  0.081  -0.561032  0.034597  2.34807  0.056  -0.600579  0.027016  2.339628  0.045  -1.149435  0.070081  -0.301535  -0.531762  0.040871  2.352791  0.065
O  O106  1  0.66319085  0.87562338  0.05634571  1  -0.599302  0.051457  2.093366  0.081  -0.561278  0.034714  2.34791  0.056  -0.600809  0.027092  2.339471  0.045  -1.142895  0.070074  -0.301671  -0.53206  0.041029  2.352637  0.065
O  O107  1  0.16372932  0.12443410  0.44352424  1  -0.598796  -0.051519  2.093838  -0.081  -0.560666  -0.034735  2.348113  -0.056  -0.600286  -0.027101  2.339851  -0.045  -1.138793  -0.070105  -0.30153  -0.53139  -0.041061  2.352773  -0.065
O  O108  1  0.22398191  0.86191009  0.72751831  1  -0.607762  0.036249  2.050386  0.057  -0.582602  0.025788  2.321973  0.042  -0.618142  0.020715  2.311466  0.034  -1.174185  0.051104  -0.315927  -0.555249  0.030531  2.328498  0.048
O  O109  1  0.72352757  0.13856947  0.77214669  1  -0.607228  -0.036057  2.046053  -0.057  -0.582078  -0.025701  2.317017  -0.041  -0.617605  -0.020631  2.306677  -0.034  -1.171571  -0.051018  -0.31533  -0.554764  -0.030454  2.323392  -0.048
O  O110  1  0.77605964  0.13875853  0.27217011  1  -0.608027  -0.036015  2.04498  -0.057  -0.582944  -0.02566  2.316001  -0.041  -0.61847  -0.020592  2.305643  -0.034  -1.171209  -0.050944  -0.315648  -0.555621  -0.030413  2.322378  -0.048
O  O111  1  0.27572097  0.86139678  0.22768932  1  -0.607487  0.036092  2.047404  0.057  -0.582352  0.025693  2.318362  0.041  -0.617867  0.020618  2.307989  0.034  -1.172623  0.051001  -0.315588  -0.555031  0.030454  2.324717  0.048
O  O112  1  0.40381565  0.93750353  0.82082643  1  -0.588199  -0.037501  2.036032  -0.058  -0.554402  -0.025885  2.288723  -0.041  -0.589274  -0.020819  2.279714  -0.034  -1.147602  -0.052313  -0.308378  -0.52658  -0.030922  2.293098  -0.048
O  O113  1  0.90385642  0.06284633  0.67893690  1  -0.588056  0.037531  2.033903  0.058  -0.554401  0.025876  2.286146  0.041  -0.589325  0.020777  2.277291  0.034  -1.146385  0.052481  -0.308077  -0.526484  0.030968  2.290432  0.048
O  O114  1  0.59617764  0.06303649  0.17882191  1  -0.588163  0.037299  2.033945  0.058  -0.554253  0.025736  2.285803  0.041  -0.5891  0.020676  2.276864  0.033  -1.148861  0.052176  -0.308115  -0.526441  0.030798  2.290141  0.048
O  O115  1  0.09615617  0.93720785  0.32111537  1  -0.587463  -0.037377  2.034142  -0.058  -0.553859  -0.02579  2.286253  -0.041  -0.58874  -0.020727  2.277319  -0.034  -1.14703  -0.052236  -0.307994  -0.526011  -0.030837  2.290564  -0.048
O  O116  1  0.72373031  0.02051497  0.92633140  1  -0.808311  -0.032198  1.963117  -0.049  -0.777895  -0.024591  2.168033  -0.038  -0.80626  -0.02024  2.128619  -0.032  -1.27152  -0.046526  -0.579484  -0.756732  -0.027949  2.196096  -0.042
O  O117  1  0.22493353  0.97913692  0.57360565  1  -0.808537  0.03221  1.961663  0.049  -0.778334  0.024601  2.166581  0.038  -0.806611  0.020243  2.127133  0.032  -1.266243  0.046532  -0.579521  -0.757132  0.027973  2.194557  0.042
O  O118  1  0.27529757  0.97922045  0.07345782  1  -0.809454  0.032202  1.960251  0.049  -0.778883  0.024572  2.165938  0.038  -0.807198  0.020219  2.126545  0.032  -1.265639  0.046493  -0.579854  -0.757704  0.027939  2.193901  0.042
O  O119  1  0.77576036  0.02079416  0.42641211  1  -0.809265  -0.032201  1.961278  -0.049  -0.778721  -0.02458  2.166243  -0.038  -0.807048  -0.020227  2.126629  -0.032  -1.271066  -0.04649  -0.579655  -0.757598  -0.027943  2.194455  -0.042
