# generated using pymatgen
data_DyH15C12S2O15
_symmetry_space_group_name_H-M   'P 1'
_cell_length_a   6.94129199
_cell_length_b   10.73364601
_cell_length_c   12.06171394
_cell_angle_alpha   95.98487214
_cell_angle_beta   103.23833243
_cell_angle_gamma   89.84597369
_symmetry_Int_Tables_number   1
_chemical_formula_structural   DyH15C12S2O15
_chemical_formula_sum   'Dy2 H30 C24 S4 O30'
_cell_volume   869.80490314
_cell_formula_units_Z   2
loop_
 _symmetry_equiv_pos_site_id
 _symmetry_equiv_pos_as_xyz
  1  'x, y, z'
loop_
 _atom_site_type_symbol
 _atom_site_label
 _atom_site_symmetry_multiplicity
 _atom_site_fract_x
 _atom_site_fract_y
 _atom_site_fract_z
 _atom_site_occupancy
 _atom_site_hle17_bader_spin_density
 _atom_site_hle17_ddec_charge
 _atom_site_hle17_ddec_spin_density
 _atom_site_hle17_ddec_sum_bond_order
 _atom_site_hle17_magmom
 _atom_site_hse06_10hf_bader_spin_density
 _atom_site_hse06_10hf_ddec_charge
 _atom_site_hse06_10hf_ddec_spin_density
 _atom_site_hse06_10hf_ddec_sum_bond_order
 _atom_site_hse06_10hf_magmom
 _atom_site_hse06_bader_spin_density
 _atom_site_hse06_ddec_charge
 _atom_site_hse06_ddec_spin_density
 _atom_site_hse06_ddec_sum_bond_order
 _atom_site_hse06_magmom
 _atom_site_pbe_bader_spin_density
 _atom_site_pbe_cm5_charge
 _atom_site_pbe_ddec_charge
 _atom_site_pbe_ddec_spin_density
 _atom_site_pbe_ddec_sum_bond_order
 _atom_site_pbe_magmom
Dy  Dy0  1  0.28656032  0.40316773  0.21388827  1  0  2.356913  0  1.477882  0  0  2.292632  0  1.788109  0  0  2.334134  0  1.75015  0  0  1.506456  2.262686  0  1.814838  0
Dy  Dy1  1  0.71344220  0.59683112  0.78611194  1  0  2.356942  0  1.477863  0  0  2.292652  0  1.788096  0  0  2.334156  0  1.750134  0  0  1.506454  2.262705  0  1.814833  0
H  H2  1  0.54126543  0.77862484  0.26661745  1  0  0.423304  0  0.847774  0  0  0.391448  0  0.92679  0  0  0.403222  0  0.913565  0  0  0.317831  0.383118  0  0.936163  0
H  H3  1  0.45872241  0.22137778  0.73338362  1  0  0.423303  0  0.84763  0  0  0.391438  0  0.92667  0  0  0.403212  0  0.913446  0  0  0.317839  0.383114  0  0.936037  0
H  H4  1  0.51197003  0.16075519  0.26732690  1  0  0.452397  0  0.836741  0  0  0.425436  0  0.893125  0  0  0.435601  0  0.878273  0  0  0.306007  0.418077  0  0.9039  0
H  H5  1  0.48802943  0.83924179  0.73267438  1  0  0.452441  0  0.836692  0  0  0.425481  0  0.89307  0  0  0.435646  0  0.878218  0  0  0.306022  0.418119  0  0.903851  0
H  H6  1  0.65559025  0.27747215  0.32545487  1  0  0.451308  0  0.841654  0  0  0.422935  0  0.899833  0  0  0.432918  0  0.885325  0  0  0.304613  0.415835  0  0.910176  0
H  H7  1  0.34440798  0.72253045  0.67454428  1  0  0.451309  0  0.841662  0  0  0.422966  0  0.899801  0  0  0.432951  0  0.885291  0  0  0.304622  0.415867  0  0.910143  0
H  H8  1  0.71431041  0.41431841  0.16704285  1  0  0.446805  0  0.84488  0  0  0.41885  0  0.903073  0  0  0.429405  0  0.887492  0  0  0.30336  0.411364  0  0.91417  0
H  H9  1  0.28569362  0.58568043  0.83295259  1  0  0.4468  0  0.844904  0  0  0.418876  0  0.903051  0  0  0.429434  0  0.887467  0  0  0.303353  0.411389  0  0.914152  0
H  H10  1  0.62256360  0.55154658  0.16744990  1  0  0.439316  0  0.854788  0  0  0.409286  0  0.916185  0  0  0.41956  0  0.900994  0  0  0.302935  0.401952  0  0.927027  0
H  H11  1  0.37744036  0.44845133  0.83254958  1  0  0.439349  0  0.854737  0  0  0.409315  0  0.91614  0  0  0.419586  0  0.900953  0  0  0.302958  0.40199  0  0.926968  0
H  H12  1  0.01583412  0.57219190  0.33971662  1  0  0.449522  0  0.842822  0  0  0.418217  0  0.906262  0  0  0.428678  0  0.890839  0  0  0.305046  0.410932  0  0.916959  0
H  H13  1  0.98417587  0.42780881  0.66028394  1  0  0.449513  0  0.842813  0  0  0.418243  0  0.906192  0  0  0.42871  0  0.89076  0  0  0.305087  0.410953  0  0.916898  0
H  H14  1  0.07303731  0.64735845  0.24744247  1  0  0.428554  0  0.873462  0  0  0.400653  0  0.933053  0  0  0.410133  0  0.91905  0  0  0.303551  0.393966  0  0.94294  0
H  H15  1  0.92696226  0.35264040  0.75255485  1  0  0.428536  0  0.87348  0  0  0.400639  0  0.933069  0  0  0.410124  0  0.919059  0  0  0.303552  0.393955  0  0.942953  0
H  H16  1  0.14777837  0.64316866  0.09914952  1  0  0.441674  0  0.856077  0  0  0.411313  0  0.918196  0  0  0.421378  0  0.90346  0  0  0.307681  0.404184  0  0.928673  0
H  H17  1  0.85221957  0.35682645  0.90084807  1  0  0.441753  0  0.855965  0  0  0.41138  0  0.918116  0  0  0.42145  0  0.903372  0  0  0.307739  0.404245  0  0.928604  0
H  H18  1  0.23474664  0.55300243  0.01281912  1  0  0.454194  0  0.808809  0  0  0.42775  0  0.876185  0  0  0.437299  0  0.861819  0  0  0.323895  0.420945  0  0.886454  0
H  H19  1  0.76525873  0.44699361  0.98718038  1  0  0.454109  0  0.808998  0  0  0.427652  0  0.876342  0  0  0.437203  0  0.861977  0  0  0.323856  0.420844  0  0.886606  0
H  H20  1  0.62862465  0.55250492  0.38930193  1  0  0.457884  0  0.832417  0  0  0.425112  0  0.89742  0  0  0.43578  0  0.881818  0  0  0.306568  0.417612  0  0.908379  0
H  H21  1  0.37137632  0.44749206  0.61069624  1  0  0.457846  0  0.832486  0  0  0.425031  0  0.897542  0  0  0.435707  0  0.881928  0  0  0.306516  0.417524  0  0.908506  0
H  H22  1  0.42785804  0.56090363  0.43053268  1  0  0.454081  0  0.797492  0  0  0.432  0  0.857504  0  0  0.440946  0  0.846712  0  0  0.329441  0.42561  0  0.865314  0
H  H23  1  0.57213730  0.43909898  0.56945862  1  0  0.454045  0  0.797518  0  0  0.431962  0  0.857543  0  0  0.440908  0  0.84675  0  0  0.32941  0.425572  0  0.865359  0
H  H24  1  0.40580914  0.74487855  0.98203892  1  0  0.112206  0  0.97118  0  0  0.118043  0  1.039598  0  0  0.122183  0  1.035694  0  0  0.114525  0.114807  0  1.043003  0
H  H25  1  0.59419160  0.25511280  0.01796036  1  0  0.112319  0  0.971123  0  0  0.1181  0  1.039576  0  0  0.122241  0  1.03567  0  0  0.114539  0.114867  0  1.042975  0
H  H26  1  0.98971847  0.01894284  0.84906229  1  0  0.123839  0  0.946328  0  0  0.130057  0  1.011  0  0  0.133567  0  1.009091  0  0  0.1132  0.127514  0  1.01239  0
H  H27  1  0.01028537  0.98105226  0.15093857  1  0  0.123966  0  0.94631  0  0  0.130203  0  1.01093  0  0  0.133709  0  1.009035  0  0  0.113263  0.12766  0  1.012321  0
H  H28  1  0.18600118  0.78704247  0.42346683  1  0  0.115495  0  0.967372  0  0  0.120898  0  1.03648  0  0  0.125365  0  1.032156  0  0  0.112519  0.117543  0  1.039928  0
H  H29  1  0.81401164  0.21295448  0.57653210  1  0  0.115492  0  0.967466  0  0  0.12093  0  1.036539  0  0  0.1254  0  1.032209  0  0  0.112468  0.117575  0  1.040003  0
H  H30  1  0.33094920  0.16154902  0.37116272  1  0  0.110824  0  1.004293  0  0  0.116279  0  1.072235  0  0  0.121025  0  1.067669  0  0  0.117584  0.1128  0  1.075667  0
H  H31  1  0.66905636  0.83845264  0.62884147  1  0  0.110823  0  1.004347  0  0  0.11627  0  1.072307  0  0  0.121018  0  1.06774  0  0  0.117566  0.112789  0  1.075733  0
C  C32  1  0.37317128  0.84198545  0.96869040  1  0  -0.063383  0  3.628854  0  0  -0.102315  0  3.882333  0  0  -0.098194  0  3.895937  0  0  -0.063102  -0.105292  0  3.873972  0
C  C33  1  0.62682801  0.15800591  0.03130537  1  0  -0.063568  0  3.62893  0  0  -0.102424  0  3.882399  0  0  -0.098302  0  3.896001  0  0  -0.063101  -0.105395  0  3.874017  0
C  C34  1  0.18585892  0.87154905  0.91101785  1  0  -0.034823  0  3.721355  0  0  -0.009418  0  3.957013  0  0  -0.017928  0  3.977807  0  0  -0.008038  -0.003909  0  3.943257  0
C  C35  1  0.81414203  0.12844698  0.08897940  1  0  -0.03481  0  3.721381  0  0  -0.009393  0  3.957056  0  0  -0.017905  0  3.977855  0  0  -0.008135  -0.00389  0  3.943318  0
C  C36  1  0.13854428  0.99723824  0.89349073  1  0  -0.036512  0  3.687095  0  0  -0.078222  0  3.941244  0  0  -0.074459  0  3.958802  0  0  -0.068062  -0.080438  0  3.929551  0
C  C37  1  0.86145816  0.00275873  0.10650929  1  0  -0.036782  0  3.687203  0  0  -0.07849  0  3.941367  0  0  -0.074764  0  3.958942  0  0  -0.068155  -0.080696  0  3.929679  0
C  C38  1  0.28080794  0.09029863  0.93218947  1  0  -0.15362  0  3.700453  0  0  -0.134041  0  3.955101  0  0  -0.141778  0  3.975275  0  0  -0.007889  -0.129062  0  3.941696  0
C  C39  1  0.71919290  0.90969460  0.06780750  1  0  -0.153567  0  3.700455  0  0  -0.134025  0  3.955154  0  0  -0.141702  0  3.975248  0  0  -0.007854  -0.129053  0  3.941774  0
C  C40  1  0.47758677  0.06406817  0.99063919  1  0  0.082699  0  3.710106  0  0  0.089231  0  3.941347  0  0  0.090272  0  3.963006  0  0  0.015319  0.088657  0  3.926663  0
C  C41  1  0.52241709  0.93592598  0.00935579  1  0  0.082507  0  3.710176  0  0  0.08906  0  3.941451  0  0  0.090086  0  3.963093  0  0  0.015244  0.088478  0  3.926776  0
C  C42  1  0.02983329  0.77251992  0.86584709  1  0  0.642934  0  3.925676  0  0  0.59193  0  4.227191  0  0  0.626263  0  4.218627  0  0  0.195582  0.568826  0  4.232098  0
C  C43  1  0.97016474  0.22747800  0.13415409  1  0  0.642836  0  3.9257  0  0  0.591782  0  4.227321  0  0  0.626116  0  4.218756  0  0  0.195449  0.568672  0  4.23224  0
C  C44  1  0.16186330  0.88719619  0.43457587  1  0  -0.06334  0  3.623857  0  0  -0.104352  0  3.880928  0  0  -0.100241  0  3.89481  0  0  -0.065365  -0.106995  0  3.871928  0
C  C45  1  0.83813481  0.11280361  0.56542466  1  0  -0.063445  0  3.623959  0  0  -0.104531  0  3.881048  0  0  -0.100421  0  3.894925  0  0  -0.065418  -0.107183  0  3.872064  0
C  C46  1  0.27313802  0.96845735  0.39117962  1  0  -0.061664  0  3.755609  0  0  -0.038769  0  3.998303  0  0  -0.047895  0  4.020666  0  0  -0.011257  -0.032737  0  3.983412  0
C  C47  1  0.72686304  0.03154431  0.60883060  1  0  -0.061742  0  3.755536  0  0  -0.038826  0  3.998248  0  0  -0.047956  0  4.020606  0  0  -0.011264  -0.032789  0  3.983357  0
C  C48  1  0.24296128  0.09856953  0.40521666  1  0  -0.051706  0  3.743879  0  0  -0.093199  0  3.997689  0  0  -0.089834  0  4.01549  0  0  -0.074169  -0.095011  0  3.985731  0
C  C49  1  0.75703391  0.90143214  0.59478614  1  0  -0.051547  0  3.743705  0  0  -0.093047  0  3.997482  0  0  -0.089684  0  4.015282  0  0  -0.074053  -0.094861  0  3.985515  0
C  C50  1  0.10003382  0.14612198  0.45867137  1  0  -0.156523  0  3.677403  0  0  -0.136202  0  3.929503  0  0  -0.144401  0  3.951035  0  0  -0.012345  -0.131102  0  3.915521  0
C  C51  1  0.89995876  0.85388719  0.54132596  1  0  -0.156589  0  3.677523  0  0  -0.136247  0  3.929602  0  0  -0.144443  0  3.951139  0  0  -0.012397  -0.131137  0  3.915591  0
C  C52  1  0.98267010  0.06651911  0.50639779  1  0  0.076695  0  3.705655  0  0  0.083633  0  3.939812  0  0  0.084298  0  3.962662  0  0  0.00972  0.083074  0  3.92494  0
C  C53  1  0.01732355  0.93347882  0.49359616  1  0  0.076603  0  3.705926  0  0  0.083514  0  3.940081  0  0  0.084175  0  3.962934  0  0  0.009641  0.082947  0  3.925207  0
C  C54  1  0.42258866  0.92510590  0.32531140  1  0  0.661911  0  3.795765  0  0  0.610833  0  4.094254  0  0  0.643262  0  4.087002  0  0  0.239187  0.588578  0  4.099069  0
C  C55  1  0.57740809  0.07489765  0.67469178  1  0  0.662183  0  3.795654  0  0  0.61105  0  4.094203  0  0  0.643494  0  4.086928  0  0  0.239331  0.588786  0  4.099023  0
S  S56  1  0.21321579  0.24569531  0.90460177  1  0  1.362858  0  5.542816  0  0  1.255965  0  6.060553  0  0  1.304235  0  6.036459  0  0  0.549729  1.222555  0  6.076427  0
S  S57  1  0.78678370  0.75430167  0.09539785  1  0  1.362897  0  5.542987  0  0  1.256033  0  6.060711  0  0  1.304281  0  6.036616  0  0  0.549758  1.222609  0  6.076596  0
S  S58  1  0.06809828  0.31177754  0.46156869  1  0  1.356876  0  5.574374  0  0  1.251519  0  6.094773  0  0  1.299724  0  6.071264  0  0  0.54327  1.218454  0  6.109939  0
S  S59  1  0.93190032  0.68823443  0.53843137  1  0  1.356631  0  5.574641  0  0  1.251264  0  6.09503  0  0  1.299454  0  6.07155  0  0  0.54307  1.218238  0  6.110161  0
O  O60  1  0.07105146  0.65526475  0.86581746  1  0  -0.743402  0  2.035068  0  0  -0.69465  0  2.273647  0  0  -0.719224  0  2.261655  0  0  -0.364551  -0.677737  0  2.281733  0
O  O61  1  0.92894666  0.34473504  0.13418059  1  0  -0.743357  0  2.035058  0  0  -0.694573  0  2.273648  0  0  -0.719146  0  2.261654  0  0  -0.364498  -0.677658  0  2.281733  0
O  O62  1  0.85350556  0.80555378  0.82779664  1  0  -0.679084  0  2.045651  0  0  -0.638228  0  2.292  0  0  -0.664624  0  2.287577  0  0  -0.370174  -0.619735  0  2.294343  0
O  O63  1  0.14648943  0.19444321  0.17220736  1  0  -0.678999  0  2.04562  0  0  -0.63816  0  2.292044  0  0  -0.664556  0  2.287623  0  0  -0.370075  -0.619668  0  2.294391  0
O  O64  1  0.26536742  0.32749780  0.01283959  1  0  -0.763279  0  2.117839  0  0  -0.716866  0  2.396354  0  0  -0.739025  0  2.382005  0  0  -0.381831  -0.70105  0  2.405866  0
O  O65  1  0.73462152  0.67249545  0.98716242  1  0  -0.763312  0  2.117859  0  0  -0.716914  0  2.396389  0  0  -0.739072  0  2.382042  0  0  -0.381904  -0.701096  0  2.405905  0
O  O66  1  0.32678041  0.28403844  0.82379792  1  0  -0.676546  0  2.034394  0  0  -0.610934  0  2.275698  0  0  -0.633179  0  2.260381  0  0  -0.318003  -0.595027  0  2.285983  0
O  O67  1  0.67322227  0.71596509  0.17620522  1  0  -0.676568  0  2.034385  0  0  -0.611024  0  2.275734  0  0  -0.633286  0  2.260435  0  0  -0.318026  -0.595069  0  2.285982  0
O  O68  1  0.99805985  0.23962763  0.85451300  1  0  -0.670008  0  2.000852  0  0  -0.605981  0  2.236337  0  0  -0.628752  0  2.22397  0  0  -0.318775  -0.590014  0  2.244566  0
O  O69  1  0.00193961  0.76036748  0.14548064  1  0  -0.669972  0  2.000965  0  0  -0.605888  0  2.23639  0  0  -0.628644  0  2.224016  0  0  -0.318729  -0.58994  0  2.244657  0
O  O70  1  0.44485546  0.80154252  0.31581959  1  0  -0.532757  0  2.084816  0  0  -0.480344  0  2.302755  0  0  -0.501938  0  2.288846  0  0  -0.321215  -0.465381  0  2.31237  0
O  O71  1  0.55514535  0.19845259  0.68418916  1  0  -0.532762  0  2.084915  0  0  -0.480305  0  2.302828  0  0  -0.501902  0  2.288914  0  0  -0.321162  -0.465343  0  2.312438  0
O  O72  1  0.51638361  0.99729854  0.28251837  1  0  -0.557018  0  1.953934  0  0  -0.510925  0  2.166432  0  0  -0.53254  0  2.160829  0  0  -0.279203  -0.495913  0  2.17037  0
O  O73  1  0.48359653  0.00269660  0.71748180  1  0  -0.557305  0  1.95377  0  0  -0.511205  0  2.166314  0  0  -0.532832  0  2.160704  0  0  -0.27944  -0.496189  0  2.17025  0
O  O74  1  0.18465896  0.35316316  0.38440699  1  0  -0.750053  0  2.109987  0  0  -0.700257  0  2.385651  0  0  -0.722035  0  2.371434  0  0  -0.384072  -0.685024  0  2.394845  0
O  O75  1  0.81534843  0.64684786  0.61559832  1  0  -0.75005  0  2.110148  0  0  -0.700238  0  2.385832  0  0  -0.72203  0  2.371632  0  0  -0.383987  -0.685012  0  2.39501  0
O  O76  1  0.15001482  0.36566496  0.58104482  1  0  -0.674284  0  2.013451  0  0  -0.609979  0  2.253086  0  0  -0.632919  0  2.238937  0  0  -0.321417  -0.593755  0  2.262264  0
O  O77  1  0.84998811  0.63434419  0.41895556  1  0  -0.674238  0  2.013496  0  0  -0.609851  0  2.253116  0  0  -0.63274  0  2.238893  0  0  -0.321384  -0.593701  0  2.26233  0
O  O78  1  0.85589982  0.33314830  0.42567980  1  0  -0.652135  0  1.98234  0  0  -0.594718  0  2.224631  0  0  -0.61571  0  2.209446  0  0  -0.320286  -0.57984  0  2.234551  0
O  O79  1  0.14410233  0.66687866  0.57431963  1  0  -0.651906  0  1.982249  0  0  -0.594641  0  2.224674  0  0  -0.61563  0  2.209491  0  0  -0.32022  -0.579769  0  2.234579  0
O  O80  1  0.52799067  0.25290934  0.27115096  1  0  -0.930417  0  1.868607  0  0  -0.891269  0  2.058897  0  0  -0.910316  0  2.02852  0  0  -0.65308  -0.878093  0  2.080708  0
O  O81  1  0.47200446  0.74709139  0.72885506  1  0  -0.930464  0  1.868555  0  0  -0.891315  0  2.058788  0  0  -0.910365  0  2.02841  0  0  -0.653094  -0.878138  0  2.080602  0
O  O82  1  0.59144036  0.46176341  0.16669523  1  0  -0.90736  0  1.85435  0  0  -0.862401  0  2.042659  0  0  -0.881007  0  2.010617  0  0  -0.64613  -0.849078  0  2.065181  0
O  O83  1  0.40856362  0.53823543  0.83330600  1  0  -0.907377  0  1.854325  0  0  -0.862463  0  2.04261  0  0  -0.88107  0  2.01057  0  0  -0.646148  -0.849141  0  2.065124  0
O  O84  1  0.10531655  0.57138681  0.28659051  1  0  -0.925288  0  1.908551  0  0  -0.889274  0  2.110071  0  0  -0.906927  0  2.07819  0  0  -0.651963  -0.876822  0  2.132275  0
O  O85  1  0.89469800  0.42861764  0.71341349  1  0  -0.925264  0  1.90857  0  0  -0.889259  0  2.110068  0  0  -0.906909  0  2.078174  0  0  -0.652002  -0.876812  0  2.132287  0
O  O86  1  0.23337306  0.57008025  0.09354475  1  0  -0.898441  0  1.870851  0  0  -0.859961  0  2.075307  0  0  -0.877082  0  2.043569  0  0  -0.640432  -0.847784  0  2.097602  0
O  O87  1  0.76664137  0.42992045  0.90645641  1  0  -0.898453  0  1.870924  0  0  -0.859949  0  2.075346  0  0  -0.877079  0  2.043597  0  0  -0.640448  -0.847756  0  2.097652  0
O  O88  1  0.49591672  0.51245835  0.37880398  1  0  -0.920424  0  1.88036  0  0  -0.881463  0  2.084306  0  0  -0.899004  0  2.054426  0  0  -0.646502  -0.869017  0  2.105305  0
O  O89  1  0.50408581  0.48754050  0.62119457  1  0  -0.920346  0  1.880366  0  0  -0.881324  0  2.084394  0  0  -0.89886  0  2.054502  0  0  -0.646403  -0.868879  0  2.105412  0
