# generated using pymatgen
data_CuH7C13NO4
_symmetry_space_group_name_H-M   'P 1'
_cell_length_a   6.97121296
_cell_length_b   17.26119850
_cell_length_c   20.42543688
_cell_angle_alpha   90.00013501
_cell_angle_beta   89.99934977
_cell_angle_gamma   89.99931498
_symmetry_Int_Tables_number   1
_chemical_formula_structural   CuH7C13NO4
_chemical_formula_sum   'Cu8 H56 C104 N8 O32'
_cell_volume   2457.82326676
_cell_formula_units_Z   8
loop_
 _symmetry_equiv_pos_site_id
 _symmetry_equiv_pos_as_xyz
  1  'x, y, z'
loop_
 _atom_site_type_symbol
 _atom_site_label
 _atom_site_symmetry_multiplicity
 _atom_site_fract_x
 _atom_site_fract_y
 _atom_site_fract_z
 _atom_site_occupancy
 _atom_site_pbe_bader_charge
 _atom_site_pbe_bader_spin_density
 _atom_site_pbe_cm5_charge
 _atom_site_pbe_ddec_charge
 _atom_site_pbe_ddec_spin_density
 _atom_site_pbe_ddec_sum_bond_order
 _atom_site_pbe_magmom
Cu  Cu0  1  0.84635261  0.59514897  0.50857852  1  1.043616  0.55421  0.721798  0.781224  0.72722  2.164302  0.554
Cu  Cu1  1  0.65364938  0.59513853  0.99142439  1  1.043664  0.55425  0.721744  0.781066  0.727305  2.164332  0.554
Cu  Cu2  1  0.15371953  0.90485162  0.00857669  1  1.043673  -0.553886  0.721652  0.780938  -0.820815  2.164436  -0.553
Cu  Cu3  1  0.34636531  0.90485699  0.49142523  1  1.043732  0.554294  0.721803  0.781177  0.727323  2.164265  0.554
Cu  Cu4  1  0.15363247  0.40485687  0.49142216  1  1.043628  0.554253  0.72177  0.781145  0.727274  2.164483  0.554
Cu  Cu5  1  0.34632709  0.40483833  0.00857532  1  1.043679  0.55412  0.721836  0.781256  0.727096  2.164241  0.554
Cu  Cu6  1  0.84627703  0.09514842  0.99142301  1  1.043796  0.553972  0.721682  0.780886  0.726878  2.16448  0.553
Cu  Cu7  1  0.65364416  0.09514768  0.50857202  1  1.04373  0.554216  0.721687  0.781029  0.72723  2.164492  0.554
H  H8  1  0.63915421  0.34623513  0.49311903  1  0.131666  0.000814  0.117231  0.138079  0.000727  0.98826  0.0
H  H9  1  0.86083093  0.34623506  0.00687930  1  0.131562  0.000814  0.117235  0.138149  0.000727  0.988208  0.0
H  H10  1  0.36085421  0.15375452  0.99311848  1  0.131778  -0.000195  0.117252  0.138102  -0.000272  0.9883  0.0
H  H11  1  0.13918340  0.15377471  0.50688745  1  0.131624  0.000814  0.117285  0.138211  0.000727  0.98822  0.0
H  H12  1  0.36084378  0.65377360  0.50688165  1  0.131535  0.000814  0.117265  0.138179  0.000727  0.988344  0.0
H  H13  1  0.13913980  0.65377541  0.99312285  1  0.131219  0.000113  0.117239  0.13807  9.1e-05  0.988228  0.0
H  H14  1  0.63913804  0.84623045  0.00687829  1  0.131613  0.000903  0.117236  0.138103  0.000817  0.988203  0.0
H  H15  1  0.86082462  0.84623750  0.49312057  1  0.131564  0.000808  0.11725  0.138168  0.000725  0.988212  0.0
H  H16  1  0.44294445  0.25166084  0.31109384  1  0.103324  5.6e-05  0.105892  0.106947  2.1e-05  1.018816  0.0
H  H17  1  0.05705952  0.25165645  0.18890333  1  0.103265  5.5e-05  0.105843  0.106898  2.8e-05  1.01888  0.0
H  H18  1  0.55703838  0.24834512  0.81108977  1  0.103271  8.2e-05  0.105867  0.106915  3e-05  1.018846  0.0
H  H19  1  0.94294454  0.24834686  0.68890998  1  0.103134  5.7e-05  0.10584  0.10684  2.1e-05  1.018852  0.0
H  H20  1  0.55705784  0.74834384  0.68890636  1  0.103253  5.5e-05  0.105882  0.106944  2.2e-05  1.018755  0.0
H  H21  1  0.94294707  0.74834359  0.81109246  1  0.103176  2.5e-05  0.105829  0.106862  4.2e-05  1.018871  0.0
H  H22  1  0.44298686  0.75165029  0.18890993  1  0.103137  4.8e-05  0.105892  0.106959  8e-06  1.018725  0.0
H  H23  1  0.05704628  0.75165260  0.31109853  1  0.10301  -4e-05  0.10586  0.106906  -5.1e-05  1.018923  0.0
H  H24  1  0.60464587  0.49381165  0.32442273  1  0.106683  0.000791  0.109855  0.116378  0.00072  1.001236  0.0
H  H25  1  0.89535813  0.49380896  0.17557541  1  0.106795  0.00079  0.109858  0.116371  0.000719  1.001229  0.0
H  H26  1  0.39537525  0.00618855  0.82442125  1  0.106661  -0.000653  0.109824  0.116337  -0.000691  1.001255  0.0
H  H27  1  0.10466501  0.00619431  0.67557899  1  0.106821  0.00079  0.10986  0.116361  0.000722  1.001247  0.0
H  H28  1  0.39536502  0.50618955  0.67556962  1  0.106797  0.000791  0.109882  0.116426  0.00072  1.001259  0.0
H  H29  1  0.10460400  0.50618587  0.82443164  1  0.106687  0.000807  0.109774  0.116239  0.000729  1.001356  0.0
H  H30  1  0.60462560  0.99380801  0.17557306  1  0.106771  0.000781  0.10978  0.116273  0.000703  1.001264  0.0
H  H31  1  0.89536023  0.99380805  0.32442316  1  0.106802  0.000649  0.109883  0.116396  0.000615  1.001258  0.0
H  H32  1  0.53338644  0.26140255  0.21204952  1  0.062486  0.000928  0.115894  0.126977  0.000483  0.979797  0.0
H  H33  1  0.96665843  0.26139691  0.28794717  1  0.062588  0.000925  0.11596  0.127113  0.00048  0.97971  0.0
H  H34  1  0.46663837  0.23860603  0.71205215  1  0.062541  0.00093  0.115909  0.127019  0.000483  0.97971  0.0
H  H35  1  0.03335672  0.23860319  0.78795346  1  0.062715  0.000936  0.115918  0.127017  0.000486  0.979696  0.0
H  H36  1  0.46667179  0.73859401  0.78794431  1  0.062759  0.000881  0.115958  0.127184  0.000448  0.9797  0.0
H  H37  1  0.03336394  0.73859965  0.71205204  1  0.06269  0.000922  0.115926  0.127039  0.000482  0.979725  0.0
H  H38  1  0.53334670  0.76139227  0.28795000  1  0.062651  0.000922  0.11593  0.127062  0.000476  0.979667  0.0
H  H39  1  0.96668000  0.76139279  0.21205359  1  0.062799  -0.000874  0.115943  0.127116  -0.000495  0.979659  0.0
H  H40  1  0.46348782  0.27907052  0.09373886  1  0.151779  0.001749  0.128943  0.115557  0.000824  0.982826  0.001
H  H41  1  0.03651108  0.27907146  0.40626080  1  0.151878  0.001748  0.128907  0.11552  0.000815  0.982836  0.001
H  H42  1  0.53650358  0.22093774  0.59373923  1  0.151677  0.001744  0.128904  0.115557  0.000812  0.982587  0.001
H  H43  1  0.96345284  0.22092490  0.90626341  1  0.151779  0.00175  0.128917  0.115553  0.000815  0.982832  0.002
H  H44  1  0.53651304  0.72092083  0.90625643  1  0.151932  0.001747  0.128919  0.115575  0.000805  0.982973  0.001
H  H45  1  0.96349838  0.72092452  0.59373743  1  0.151566  0.001748  0.128938  0.115605  0.000815  0.982818  0.001
H  H46  1  0.46348723  0.77907273  0.40626194  1  0.151837  0.001751  0.128895  0.115534  0.000815  0.982818  0.002
H  H47  1  0.03657096  0.77906529  0.09374217  1  0.151826  -0.001747  0.128908  0.115592  -0.000926  0.98278  -0.001
H  H48  1  0.37600870  0.51547093  0.11751209  1  0.189789  0.001873  0.127204  0.12202  0.000875  0.994862  0.002
H  H49  1  0.12397934  0.51547484  0.38248121  1  0.189883  0.001874  0.127166  0.121932  0.000877  0.994795  0.002
H  H50  1  0.62400678  0.98453111  0.61751117  1  0.189848  0.001875  0.127123  0.121881  0.000877  0.994777  0.002
H  H51  1  0.87598011  0.98452908  0.88247882  1  0.189819  0.001914  0.127167  0.121814  0.000917  0.994985  0.002
H  H52  1  0.62397638  0.48452099  0.88248370  1  0.189756  0.001874  0.127205  0.121937  0.000876  0.994969  0.002
H  H53  1  0.87601434  0.48451709  0.61751996  1  0.189824  0.001863  0.127149  0.121914  0.000872  0.994773  0.002
H  H54  1  0.37601702  0.01547241  0.38248461  1  0.18985  0.001874  0.127124  0.121842  0.000876  0.994864  0.002
H  H55  1  0.12398919  0.01546864  0.11751794  1  0.189928  -0.001903  0.127128  0.121783  -0.001032  0.994938  -0.002
H  H56  1  0.43767905  0.50741124  0.23671088  1  0.08819  0.001204  0.115329  0.124612  0.000607  0.984918  0.001
H  H57  1  0.06233791  0.50740934  0.26327995  1  0.088035  0.001201  0.115311  0.124615  0.000604  0.984826  0.001
H  H58  1  0.56235117  0.99259865  0.73671022  1  0.088329  0.00118  0.115366  0.124704  0.000645  0.985001  0.001
H  H59  1  0.93767279  0.99259367  0.76328077  1  0.088071  0.001195  0.115329  0.124664  0.000595  0.984844  0.001
H  H60  1  0.56233185  0.49258069  0.76328344  1  0.087988  0.001204  0.115293  0.1246  0.000606  0.98483  0.001
H  H61  1  0.93768590  0.49258490  0.73672024  1  0.087931  0.001205  0.115285  0.124551  0.000608  0.984851  0.001
H  H62  1  0.43766977  0.00741239  0.26328360  1  0.088075  0.001179  0.115314  0.124644  0.000587  0.984827  0.001
H  H63  1  0.06232376  0.00740579  0.23671747  1  0.088151  -0.001145  0.115339  0.124645  -0.000682  0.984827  -0.001
C  C64  1  0.69859449  0.49267724  0.44945341  1  1.487762  -0.00349  0.191363  0.539104  -0.001991  4.177268  -0.007
C  C65  1  0.80140237  0.49266948  0.05054571  1  1.487846  -0.003491  0.191381  0.539002  -0.00199  4.17747  -0.007
C  C66  1  0.30146844  0.00732272  0.94945818  1  1.48817  0.00314  0.191317  0.539278  0.000373  4.177507  0.006
C  C67  1  0.19861627  0.00732997  0.55055284  1  1.487954  -0.003488  0.19135  0.538815  -0.001989  4.177513  -0.007
C  C68  1  0.30139919  0.50732859  0.55054384  1  1.487928  -0.003492  0.191425  0.539083  -0.001992  4.177241  -0.007
C  C69  1  0.19856262  0.50733635  0.94945938  1  1.488224  -0.003518  0.191321  0.539182  -0.001985  4.177678  -0.007
C  C70  1  0.69853385  0.99267268  0.05053859  1  1.488443  -0.003095  0.191216  0.538878  -0.001557  4.177806  -0.006
C  C71  1  0.80140180  0.99267528  0.44945225  1  1.487946  -0.003513  0.191372  0.539  -0.002006  4.1774  -0.007
C  C72  1  0.51587724  0.21122040  0.43232925  1  1.588709  -0.00056  0.198626  0.568897  0.0007  4.210097  -0.002
C  C73  1  0.98413173  0.21121813  0.06766734  1  1.588609  -0.000615  0.198532  0.568751  0.000646  4.210577  -0.002
C  C74  1  0.48410018  0.28877140  0.93233583  1  1.588526  -0.000586  0.198803  0.569135  0.000704  4.210097  -0.002
C  C75  1  0.01587918  0.28879006  0.56767625  1  1.587311  -0.000561  0.198694  0.568883  0.000701  4.209772  -0.002
C  C76  1  0.48410210  0.78878833  0.56767437  1  1.587914  -0.000559  0.198709  0.568948  0.000701  4.209711  -0.002
C  C77  1  0.01585192  0.78878365  0.93232844  1  1.588892  0.00064  0.198782  0.569306  -0.001266  4.210437  0.002
C  C78  1  0.51590211  0.71121589  0.06767073  1  1.588386  -0.000555  0.198696  0.569  0.00066  4.209884  -0.002
C  C79  1  0.98409299  0.71121924  0.43233324  1  1.588185  -0.000563  0.198619  0.568828  0.000699  4.209718  -0.002
C  C80  1  0.62031409  0.42669645  0.41210350  1  0.054121  0.000832  -0.018529  -0.033766  0.000767  4.016093  0.0
C  C81  1  0.87968460  0.42669766  0.08789352  1  0.054378  0.000835  -0.018571  -0.033776  0.000768  4.016333  0.0
C  C82  1  0.37970559  0.07329355  0.91210614  1  0.054256  -0.000884  -0.018555  -0.033721  -0.001209  4.016114  0.0
C  C83  1  0.12032420  0.07331232  0.58790061  1  0.053673  0.000834  -0.018626  -0.033677  0.000769  4.016096  0.0
C  C84  1  0.37969681  0.57331401  0.58789571  1  0.054013  0.000831  -0.018633  -0.033901  0.000766  4.01653  0.0
C  C85  1  0.12031338  0.57330122  0.91210862  1  0.054082  0.000559  -0.018602  -0.033828  0.000681  4.016338  0.0
C  C86  1  0.62030100  0.92669664  0.08789112  1  0.054301  0.001598  -0.018549  -0.033667  0.001421  4.016259  0.0
C  C87  1  0.87968669  0.92669931  0.41210644  1  0.054375  0.00039  -0.018546  -0.033765  0.000459  4.016283  0.0
C  C88  1  0.60045436  0.35395826  0.44181593  1  -0.056027  0.00025  -0.065835  -0.106322  0.000272  3.904624  0.001
C  C89  1  0.89954204  0.35395697  0.05818389  1  -0.056205  0.00023  -0.065883  -0.106591  0.000258  3.904532  0.001
C  C90  1  0.39956721  0.14604052  0.94181423  1  -0.05621  -0.002627  -0.065863  -0.106405  -0.002294  3.904534  -0.002
C  C91  1  0.10047778  0.14605177  0.55818728  1  -0.055521  0.000244  -0.065925  -0.106564  0.000268  3.904767  0.001
C  C92  1  0.39953932  0.64604873  0.55818133  1  -0.05647  0.000247  -0.065758  -0.106302  0.00027  3.904873  0.001
C  C93  1  0.10043873  0.64604712  0.94181385  1  -0.055729  0.000487  -0.065821  -0.106303  0.00022  3.904505  0.001
C  C94  1  0.60044512  0.85395488  0.05818401  1  -0.056323  0.001003  -0.065854  -0.106387  0.001087  3.904634  0.0
C  C95  1  0.89953168  0.85395927  0.44181732  1  -0.05626  0.001664  -0.065821  -0.10642  0.001272  3.904683  0.001
C  C96  1  0.53543273  0.29153223  0.40429660  1  -0.029599  0.008984  -0.012732  -0.021479  0.006205  3.968047  0.007
C  C97  1  0.96457258  0.29152434  0.09569819  1  -0.029551  0.008951  -0.012668  -0.021262  0.006191  3.967904  0.007
C  C98  1  0.46456713  0.20846876  0.90429869  1  -0.029364  0.007741  -0.012689  -0.021363  0.005565  3.967877  0.006
C  C99  1  0.03544314  0.20847523  0.59570490  1  -0.029735  0.008984  -0.012682  -0.021434  0.006205  3.968212  0.007
C  C100  1  0.46457100  0.70846838  0.59570164  1  -0.02942  0.008981  -0.012724  -0.021532  0.006203  3.968127  0.007
C  C101  1  0.03541393  0.70848149  0.90429759  1  -0.029666  -0.00786  -0.012626  -0.021495  -0.006416  3.96821  -0.006
C  C102  1  0.53544377  0.79152027  0.09570199  1  -0.02935  0.009594  -0.012702  -0.021536  0.006669  3.968338  0.007
C  C103  1  0.96455771  0.79152886  0.40430214  1  -0.029236  0.008507  -0.012731  -0.021411  0.005893  3.968222  0.007
C  C104  1  0.49507054  0.30198343  0.33793385  1  0.003064  6.2e-05  -0.072287  -0.124852  -2.6e-05  3.924436  0.0
C  C105  1  0.00493490  0.30197750  0.16206097  1  0.003158  5.1e-05  -0.072312  -0.124947  -2.9e-05  3.924426  0.0
C  C106  1  0.50492432  0.19801390  0.83792645  1  0.002965  0.000727  -0.072284  -0.12498  0.000517  3.924271  0.001
C  C107  1  0.99507290  0.19802283  0.66206830  1  0.003041  5.5e-05  -0.072322  -0.124804  -3.3e-05  3.924607  0.0
C  C108  1  0.50493175  0.69801950  0.66206390  1  0.003276  5.8e-05  -0.072336  -0.124934  -2.9e-05  3.924512  0.0
C  C109  1  0.99506021  0.69802138  0.83793286  1  0.003124  -0.001941  -0.072348  -0.124867  -0.001485  3.924504  -0.001
C  C110  1  0.49509231  0.80197281  0.16206492  1  0.003203  4e-06  -0.072353  -0.1249  -9.1e-05  3.924507  0.0
C  C111  1  0.00492652  0.80197720  0.33793972  1  0.00327  0.001353  -0.072312  -0.124908  0.000879  3.924501  0.001
C  C112  1  0.52012020  0.37404669  0.30717957  1  -0.023566  0.001794  -0.011251  0.043453  0.001095  4.015388  0.002
C  C113  1  0.97988712  0.37404478  0.19281979  1  -0.023469  0.001798  -0.011171  0.043482  0.001097  4.015181  0.002
C  C114  1  0.47987854  0.12595230  0.80717066  1  -0.023295  0.000638  -0.0112  0.043575  0.0005  4.015416  0.001
C  C115  1  0.02012255  0.12595854  0.69282101  1  -0.023465  0.001795  -0.011078  0.043607  0.001095  4.015387  0.002
C  C116  1  0.47989069  0.62595161  0.69281132  1  -0.023601  0.00179  -0.011294  0.043541  0.001092  4.015341  0.002
C  C117  1  0.02011374  0.62595584  0.80717599  1  -0.023515  2.3e-05  -0.011185  0.043411  -9.4e-05  4.015443  0.0
C  C118  1  0.52012662  0.87404021  0.19282072  1  -0.023639  0.002233  -0.011185  0.04348  0.00137  4.01526  0.002
C  C119  1  0.97988978  0.87404266  0.30718261  1  -0.023447  0.000698  -0.011199  0.043482  0.000356  4.015271  0.001
C  C120  1  0.58040520  0.43674444  0.34559779  1  -0.071374  0.000418  -0.071268  -0.119637  0.000437  3.908692  0.001
C  C121  1  0.91959321  0.43674215  0.15440024  1  -0.071633  0.000408  -0.071221  -0.11955  0.000429  3.908593  0.001
C  C122  1  0.41959658  0.06325466  0.84559878  1  -0.071667  -0.002737  -0.071168  -0.119605  -0.002312  3.908393  -0.002
C  C123  1  0.08042058  0.06326106  0.65440353  1  -0.071215  0.000407  -0.071275  -0.119664  0.00043  3.908745  0.001
C  C124  1  0.41960139  0.56325560  0.65439799  1  -0.07125  0.000416  -0.071202  -0.119605  0.000435  3.908977  0.001
C  C125  1  0.08038900  0.56325673  0.84560289  1  -0.071341  0.001446  -0.071126  -0.119435  0.001194  3.908546  0.001
C  C126  1  0.58039997  0.93674016  0.15439945  1  -0.071474  0.000438  -0.071116  -0.119478  0.000457  3.908537  0.001
C  C127  1  0.91959892  0.93674303  0.34559959  1  -0.071651  0.001714  -0.071226  -0.119566  0.001332  3.908629  0.001
C  C128  1  0.48743970  0.38282185  0.23618435  1  -0.0364  -0.003521  0.01465  0.111398  -0.002679  3.980174  -0.002
C  C129  1  0.01257641  0.38281847  0.26381455  1  -0.034849  -0.003522  0.014655  0.11136  -0.00268  3.98062  -0.002
C  C130  1  0.51257858  0.11718158  0.73618361  1  -0.035973  -0.003526  0.014596  0.111341  -0.002649  3.980918  -0.002
C  C131  1  0.98742519  0.11717866  0.76381587  1  -0.036168  -0.003558  0.014658  0.111472  -0.002694  3.98018  -0.002
C  C132  1  0.51258124  0.61717240  0.76380948  1  -0.035173  -0.003522  0.01478  0.111393  -0.002679  3.980034  -0.002
C  C133  1  0.98743592  0.61717577  0.73618711  1  -0.035293  -0.003832  0.014564  0.111368  -0.002911  3.980883  -0.003
C  C134  1  0.48742945  0.88281788  0.26381511  1  -0.035541  -0.003558  0.014638  0.111428  -0.002689  3.980328  -0.002
C  C135  1  0.01258427  0.88281732  0.23618824  1  -0.034988  0.003911  0.014636  0.111203  0.002583  3.980644  0.003
C  C136  1  0.49608827  0.31873294  0.19393988  1  -0.006613  0.005169  -0.07717  -0.164209  0.003549  3.923639  0.004
C  C137  1  0.00393965  0.31872914  0.30605252  1  -0.007264  0.005172  -0.077307  -0.164312  0.00355  3.923936  0.004
C  C138  1  0.50392422  0.18127038  0.69394616  1  -0.006812  0.005134  -0.077219  -0.164247  0.003514  3.923891  0.004
C  C139  1  0.99606773  0.18126985  0.80605933  1  -0.006713  0.005298  -0.077238  -0.164228  0.003645  3.923638  0.004
C  C140  1  0.50393840  0.68126536  0.80605395  1  -0.007219  0.005203  -0.07734  -0.164472  0.003565  3.923896  0.004
C  C141  1  0.99608128  0.68126221  0.69394767  1  -0.007306  0.005027  -0.077194  -0.164221  0.003461  3.923863  0.004
C  C142  1  0.49606946  0.81872908  0.30605500  1  -0.006807  0.00531  -0.077242  -0.164298  0.003645  3.923753  0.004
C  C143  1  0.00395895  0.81872614  0.19394772  1  -0.007407  -0.005283  -0.077191  -0.164101  -0.004088  3.923845  -0.004
C  C144  1  0.45945716  0.32773000  0.12771029  1  0.468801  -0.001739  0.053544  0.105925  -0.001025  3.927194  -0.001
C  C145  1  0.04054900  0.32773257  0.37228360  1  0.468915  -0.001737  0.053653  0.10592  -0.001025  3.927005  -0.001
C  C146  1  0.54054604  0.17227603  0.62771592  1  0.469052  -0.001737  0.053559  0.10586  -0.001023  3.926708  -0.001
C  C147  1  0.95942465  0.17226892  0.87228661  1  0.468615  -0.001819  0.053444  0.105656  -0.001061  3.927127  -0.001
C  C148  1  0.54055087  0.67226482  0.87228158  1  0.468864  -0.001726  0.053442  0.105659  -0.001002  3.927467  -0.001
C  C149  1  0.95946190  0.67226168  0.62771561  1  0.469358  -0.00171  0.05346  0.105616  -0.001004  3.927212  -0.001
C  C150  1  0.45945195  0.82773270  0.37228672  1  0.468865  -0.001791  0.053537  0.105772  -0.001061  3.927178  -0.001
C  C151  1  0.04059055  0.82772533  0.12771896  1  0.468813  0.001839  0.053463  0.105603  0.000569  3.92707  0.001
C  C152  1  0.40983964  0.46015259  0.14069531  1  0.382009  0.00043  0.050335  0.096587  0.000961  3.912385  0.001
C  C153  1  0.09015281  0.46015081  0.35929885  1  0.382862  0.000425  0.050392  0.096661  0.000958  3.912389  0.001
C  C154  1  0.59017317  0.03985464  0.64070146  1  0.382773  0.000425  0.050519  0.096813  0.000951  3.912362  0.001
C  C155  1  0.90981410  0.03984775  0.85929885  1  0.383262  0.000448  0.050491  0.097045  0.00109  3.912335  0.001
C  C156  1  0.59015261  0.53984108  0.85930145  1  0.383085  0.000426  0.050344  0.096644  0.000958  3.912501  0.001
C  C157  1  0.90985092  0.53984460  0.64070281  1  0.383043  0.000412  0.050339  0.096596  0.000952  3.912387  0.001
C  C158  1  0.40984633  0.96014945  0.35930069  1  0.382427  0.00041  0.050406  0.096629  0.000942  3.912243  0.001
C  C159  1  0.09016667  0.96014708  0.14070085  1  0.383384  -0.000421  0.050501  0.096865  -0.001625  3.91224  -0.001
C  C160  1  0.44617233  0.45486790  0.20735770  1  0.017056  0.00641  -0.079746  -0.170135  0.004416  3.934758  0.005
C  C161  1  0.05383605  0.45486613  0.29263351  1  0.015208  0.006413  -0.079759  -0.170132  0.004417  3.934738  0.005
C  C162  1  0.55384260  0.04514183  0.70736449  1  0.015486  0.00641  -0.079857  -0.170303  0.004456  3.935212  0.005
C  C163  1  0.94616604  0.04513225  0.79263583  1  0.016505  0.006411  -0.079763  -0.170338  0.004428  3.934715  0.005
C  C164  1  0.55382853  0.54512519  0.79263515  1  0.015523  0.006444  -0.079691  -0.170039  0.004441  3.934555  0.005
C  C165  1  0.94618489  0.54513044  0.70736815  1  0.015936  0.006173  -0.079631  -0.169943  0.004253  3.934651  0.005
C  C166  1  0.44617117  0.95486690  0.29263619  1  0.01593  0.006539  -0.079723  -0.170116  0.004498  3.934628  0.005
C  C167  1  0.05382764  0.95486200  0.20736534  1  0.015204  -0.006327  -0.079747  -0.170084  -0.004968  3.934619  -0.005
N  N168  1  0.41512431  0.39715342  0.10149558  1  -1.200092  0.081623  -0.35959  -0.258779  0.05544  3.670127  0.07
N  N169  1  0.08486414  0.39715930  0.39850432  1  -1.200517  0.081649  -0.359552  -0.258641  0.055461  3.670122  0.07
N  N170  1  0.58486970  0.10284791  0.60149894  1  -1.200471  0.081653  -0.359477  -0.258618  0.055462  3.669925  0.07
N  N171  1  0.91509000  0.10284109  0.89850247  1  -1.200951  0.081635  -0.359536  -0.258634  0.055529  3.67  0.07
N  N172  1  0.58486220  0.60283503  0.89850118  1  -1.20069  0.081645  -0.359442  -0.258482  0.055473  3.669889  0.07
N  N173  1  0.91513097  0.60283668  0.60149783  1  -1.200784  0.081502  -0.359503  -0.258522  0.055365  3.670131  0.07
N  N174  1  0.41513976  0.89715676  0.39850712  1  -1.200301  0.081864  -0.359506  -0.258511  0.055608  3.669917  0.07
N  N175  1  0.08490655  0.89715315  0.10150017  1  -1.201041  -0.081679  -0.359579  -0.258614  -0.062719  3.669828  -0.07
O  O176  1  0.71160174  0.56039611  0.42437394  1  -1.093068  0.111385  -0.309223  -0.48542  0.073146  2.164061  0.098
O  O177  1  0.78838894  0.56038848  0.07562531  1  -1.092888  0.111423  -0.309166  -0.485221  0.073177  2.164116  0.098
O  O178  1  0.28839363  0.93961082  0.92437034  1  -1.093096  -0.111414  -0.309196  -0.48532  -0.082652  2.164014  -0.098
O  O179  1  0.21162362  0.93961228  0.57563327  1  -1.093067  0.111402  -0.309205  -0.485241  0.073157  2.164025  0.098
O  O180  1  0.28836756  0.43960973  0.57562870  1  -1.093036  0.111405  -0.309114  -0.485237  0.073157  2.163951  0.098
O  O181  1  0.21158323  0.43961793  0.92437781  1  -1.092728  0.111365  -0.309198  -0.48532  0.073123  2.16396  0.098
O  O182  1  0.71163161  0.06038111  0.07563524  1  -1.093065  0.111521  -0.309194  -0.485168  0.073174  2.16411  0.098
O  O183  1  0.78838154  0.06039297  0.42437132  1  -1.093127  0.111358  -0.309208  -0.485283  0.073133  2.16406  0.098
O  O184  1  0.76388933  0.48302892  0.50799009  1  -1.0943  0.113795  -0.309837  -0.530517  0.07472  2.28243  0.101
O  O185  1  0.73612581  0.48303081  0.99200574  1  -1.0946  0.113816  -0.309905  -0.530467  0.074731  2.282353  0.101
O  O186  1  0.23628276  0.01694898  0.00800771  1  -1.094693  -0.115044  -0.30975  -0.530598  -0.085665  2.282507  -0.101
O  O187  1  0.26389125  0.01697448  0.49201150  1  -1.094453  0.113792  -0.309786  -0.530423  0.074717  2.282557  0.101
O  O188  1  0.23612874  0.51697286  0.49200178  1  -1.094448  0.113788  -0.309954  -0.530592  0.074716  2.282417  0.101
O  O189  1  0.26383344  0.51697850  0.00799201  1  -1.094879  0.113752  -0.309804  -0.530626  0.074735  2.282342  0.101
O  O190  1  0.76368797  0.98304816  0.99198367  1  -1.094911  0.115151  -0.309631  -0.530355  0.075821  2.282491  0.102
O  O191  1  0.73612969  0.98303715  0.50799310  1  -1.094443  0.113778  -0.309813  -0.53037  0.074707  2.282364  0.101
O  O192  1  0.60917157  0.20161082  0.48726986  1  -1.101267  0.111975  -0.338667  -0.545972  0.072713  2.343726  0.099
O  O193  1  0.89080897  0.20160482  0.01273503  1  -1.101067  0.111909  -0.338687  -0.54591  0.072661  2.343762  0.099
O  O194  1  0.39076961  0.29840314  0.98726263  1  -1.101336  0.111955  -0.338934  -0.546174  0.072774  2.344139  0.099
O  O195  1  0.10917648  0.29840612  0.51273037  1  -1.101  0.112013  -0.338736  -0.546016  0.072737  2.343613  0.099
O  O196  1  0.39080777  0.79839848  0.51272739  1  -1.100859  0.112037  -0.338776  -0.546017  0.072751  2.343495  0.099
O  O197  1  0.10914168  0.79839638  0.98726223  1  -1.10101  -0.111899  -0.338832  -0.546257  -0.082121  2.344137  -0.099
O  O198  1  0.60919825  0.70160964  0.01272875  1  -1.101006  0.112055  -0.338768  -0.54606  0.072719  2.343504  0.099
O  O199  1  0.89079712  0.70160899  0.48727961  1  -1.100928  0.112  -0.338843  -0.546112  0.072725  2.343362  0.099
O  O200  1  0.42325036  0.16061577  0.40278142  1  -1.16666  0.004439  -0.324522  -0.536068  0.002535  2.088988  0.004
O  O201  1  0.07678769  0.16061682  0.09720479  1  -1.166788  0.003592  -0.32444  -0.535984  0.001874  2.089411  0.003
O  O202  1  0.57671655  0.33937363  0.90279214  1  -1.166331  0.003845  -0.324537  -0.536134  0.002124  2.089117  0.003
O  O203  1  0.92325380  0.33939956  0.59722199  1  -1.165551  0.004438  -0.324583  -0.536081  0.002533  2.089034  0.004
O  O204  1  0.57671607  0.83940223  0.59721339  1  -1.166221  0.00444  -0.324562  -0.536145  0.002535  2.089123  0.004
O  O205  1  0.92321029  0.83938495  0.90278610  1  -1.167009  -0.003002  -0.324533  -0.536151  -0.001873  2.08914  -0.003
O  O206  1  0.42327570  0.66060439  0.09721000  1  -1.166672  0.004511  -0.324546  -0.536124  0.002581  2.088985  0.004
O  O207  1  0.07670545  0.66060512  0.40279680  1  -1.166587  0.004379  -0.324401  -0.53597  0.002497  2.089069  0.004
