# generated using pymatgen
data_ZnH8C14(S2N3)2
_symmetry_space_group_name_H-M   'P 1'
_cell_length_a   10.89915638
_cell_length_b   12.55683763
_cell_length_c   13.77640000
_cell_angle_alpha   103.78765775
_cell_angle_beta   90.00000000
_cell_angle_gamma   90.00000000
_symmetry_Int_Tables_number   1
_chemical_formula_structural   ZnH8C14(S2N3)2
_chemical_formula_sum   'Zn4 H32 C56 S16 N24'
_cell_volume   1831.09618917
_cell_formula_units_Z   4
loop_
 _symmetry_equiv_pos_site_id
 _symmetry_equiv_pos_as_xyz
  1  'x, y, z'
loop_
 _atom_site_type_symbol
 _atom_site_label
 _atom_site_symmetry_multiplicity
 _atom_site_fract_x
 _atom_site_fract_y
 _atom_site_fract_z
 _atom_site_occupancy
 _atom_site_pbe_bader_charge
 _atom_site_pbe_bader_spin_density
 _atom_site_pbe_cm5_charge
 _atom_site_pbe_ddec_charge
 _atom_site_pbe_ddec_spin_density
 _atom_site_pbe_ddec_sum_bond_order
 _atom_site_pbe_magmom
Zn  Zn0  1  0.99041335  0.45558349  0.17990685  1  1.105184  0  0.636707  0.564905  0  2.562637  0
Zn  Zn1  1  0.49041227  0.04441649  0.32009819  1  1.105244  0  0.636729  0.564941  0  2.562556  0
Zn  Zn2  1  0.00958973  0.54441483  0.82009489  1  1.105359  0  0.636747  0.564961  0  2.562668  0
Zn  Zn3  1  0.50958623  0.95558102  0.67990192  1  1.105251  0  0.636694  0.564894  0  2.562619  0
H  H4  1  0.67083265  0.25788887  0.96192242  1  0.09656  0  0.106121  0.114196  0  1.031847  0
H  H5  1  0.17083432  0.24212342  0.53807005  1  0.096536  0  0.10612  0.114201  0  1.031775  0
H  H6  1  0.32916126  0.74211192  0.03807260  1  0.096571  0  0.106129  0.114216  0  1.031721  0
H  H7  1  0.82916693  0.75787409  0.46193804  1  0.09657  0  0.106142  0.114214  0  1.031819  0
H  H8  1  0.53178428  0.17094846  0.82439100  1  0.1375  0  0.106677  0.06634  0  1.093147  0
H  H9  1  0.03179237  0.32906136  0.67560529  1  0.137271  0  0.10666  0.066374  0  1.093056  0
H  H10  1  0.46821055  0.82904822  0.17560458  1  0.137388  0  0.106643  0.066324  0  1.093148  0
H  H11  1  0.96821072  0.67093697  0.32440516  1  0.137897  0  0.106698  0.066505  0  1.09296  0
H  H12  1  0.80446869  0.93414768  0.96496758  1  0.082251  0  0.102953  0.114373  0  1.013042  0
H  H13  1  0.30446944  0.56586293  0.53502953  1  0.082033  0  0.102987  0.114418  0  1.012881  0
H  H14  1  0.19553348  0.06585721  0.03502978  1  0.082169  0  0.102957  0.114372  0  1.013052  0
H  H15  1  0.69552539  0.43412884  0.46496861  1  0.081769  0  0.103008  0.11445  0  1.012867  0
H  H16  1  0.65990796  0.85881611  0.82594235  1  0.121966  0  0.10819  0.082975  0  1.026625  0
H  H17  1  0.15991329  0.64119614  0.67405875  1  0.121794  0  0.108123  0.082933  0  1.026735  0
H  H18  1  0.34009605  0.14118304  0.17405594  1  0.121964  0  0.108179  0.082958  0  1.02665  0
H  H19  1  0.84008796  0.35880137  0.32594136  1  0.121802  0  0.108116  0.082903  0  1.026819  0
H  H20  1  0.36860192  0.69492545  0.24212662  1  0.111638  0  0.107301  0.118916  0  1.037551  0
H  H21  1  0.86860392  0.80507942  0.25787941  1  0.111641  0  0.107323  0.118957  0  1.03755  0
H  H22  1  0.63140024  0.30507780  0.75786893  1  0.111685  0  0.107303  0.118917  0  1.037544  0
H  H23  1  0.13139641  0.19492464  0.74211995  1  0.111593  0  0.107321  0.118958  0  1.037532  0
H  H24  1  0.15130345  0.64531831  0.25221022  1  0.116157  0  0.114653  0.086896  0  1.047085  0
H  H25  1  0.65130545  0.85468656  0.24779508  1  0.116085  0  0.114616  0.086863  0  1.047206  0
H  H26  1  0.84869780  0.35468657  0.74778496  1  0.115986  0  0.114643  0.086836  0  1.047145  0
H  H27  1  0.34869396  0.14531669  0.75220483  1  0.116239  0  0.11463  0.086867  0  1.047157  0
H  H28  1  0.21591396  0.32164440  0.10211759  1  0.096367  0  0.115684  0.093758  0  0.986418  0
H  H29  1  0.71591412  0.17836051  0.39788852  1  0.096329  0  0.115647  0.093755  0  0.986439  0
H  H30  1  0.78409096  0.67835639  0.89788251  1  0.096324  0  0.115647  0.093728  0  0.986452  0
H  H31  1  0.28408254  0.82164274  0.60211574  1  0.096342  0  0.115675  0.093791  0  0.986394  0
H  H32  1  0.43680261  0.35958119  0.07967338  1  0.105391  0  0.103174  0.121374  0  1.009347  0
H  H33  1  0.93680278  0.14042371  0.42033128  1  0.104847  0  0.103207  0.121462  0  1.009266  0
H  H34  1  0.56320231  0.64042041  0.92032980  1  0.104944  0  0.103175  0.121377  0  1.009339  0
H  H35  1  0.06319388  0.85957872  0.57967063  1  0.105321  0  0.103169  0.121369  0  1.009331  0
C  C36  1  0.99177217  0.21952321  0.18277162  1  0.147646  0  0.100207  0.138095  0  4.151782  0
C  C37  1  0.49177568  0.28047842  0.31722725  1  0.147735  0  0.10025  0.138086  0  4.15159  0
C  C38  1  0.00822632  0.78047266  0.81722814  1  0.147725  0  0.100178  0.138016  0  4.151719  0
C  C39  1  0.50822557  0.71951909  0.68277795  1  0.147913  0  0.100281  0.13813  0  4.151852  0
C  C40  1  0.84002832  0.15630724  0.04914745  1  0.417549  0  0.110407  0.076941  0  4.037646  0
C  C41  1  0.34002999  0.34370094  0.45084921  1  0.420528  0  0.110314  0.076823  0  4.037575  0
C  C42  1  0.15997293  0.84369519  0.95084720  1  0.417415  0  0.110392  0.076954  0  4.037511  0
C  C43  1  0.65996759  0.65629411  0.54915399  1  0.420764  0  0.110322  0.076783  0  4.037626  0
C  C44  1  0.75199490  0.10357178  0.97366357  1  0.05198  0  0.014029  0.109107  0  4.009137  0
C  C45  1  0.25199473  0.39644050  0.52633035  1  0.04948  0  0.014078  0.109161  0  4.009092  0
C  C46  1  0.24800819  0.89642983  0.02633235  1  0.052533  0  0.014025  0.1091  0  4.009011  0
C  C47  1  0.74800468  0.60355455  0.47367140  1  0.049458  0  0.014011  0.109075  0  4.009234  0
C  C48  1  0.67102533  0.16925433  0.93367573  1  0.017458  0  -0.07762  -0.13851  0  3.892863  0
C  C49  1  0.17102425  0.33075877  0.56631982  1  0.016725  0  -0.07766  -0.138687  0  3.893102  0
C  C50  1  0.32897500  0.83074728  0.06632237  1  0.017033  0  -0.077645  -0.138536  0  3.892842  0
C  C51  1  0.82897333  0.66923873  0.43368537  1  0.016697  0  -0.077637  -0.138595  0  3.893157  0
C  C52  1  0.59345327  0.12034420  0.85670436  1  0.451235  0  0.039144  0.090718  0  3.93661  0
C  C53  1  0.09345677  0.37966562  0.64329193  1  0.451699  0  0.039148  0.090807  0  3.936631  0
C  C54  1  0.40654614  0.87965495  0.14329393  1  0.451359  0  0.039187  0.090756  0  3.936605  0
C  C55  1  0.90654539  0.62033107  0.35671744  1  0.451666  0  0.039171  0.090714  0  3.9364  0
C  C56  1  0.74509987  0.98948338  0.93633874  1  -0.024383  0  -0.087325  -0.17634  0  3.940159  0
C  C57  1  0.24510154  0.51052723  0.56365547  1  -0.024991  0  -0.087385  -0.176354  0  3.939988  0
C  C58  1  0.25489863  0.01051823  0.06365791  1  -0.02437  0  -0.087347  -0.176356  0  3.940163  0
C  C59  1  0.75489512  0.48946782  0.43634410  1  -0.024808  0  -0.087446  -0.176471  0  3.940078  0
C  C60  1  0.66461199  0.94671100  0.85857527  1  0.435515  0  0.044651  0.101913  0  3.948343  0
C  C61  1  0.16461458  0.55330125  0.64142292  1  0.43651  0  0.044663  0.101851  0  3.948422  0
C  C62  1  0.33539110  0.05329060  0.14142137  1  0.435511  0  0.044673  0.101925  0  3.948333  0
C  C63  1  0.83538484  0.44669380  0.35857738  1  0.436366  0  0.044691  0.10195  0  3.948434  0
C  C64  1  0.76417474  0.58821714  0.11754871  1  0.311347  0  0.103638  0.136842  0  4.115736  0
C  C65  1  0.26417641  0.91178117  0.38245082  1  0.311545  0  0.103594  0.136795  0  4.11572  0
C  C66  1  0.23582834  0.41178529  0.88245320  1  0.311301  0  0.103612  0.136834  0  4.115675  0
C  C67  1  0.73582301  0.08821469  0.61754604  1  0.311266  0  0.10359  0.136806  0  4.115547  0
C  C68  1  0.54800296  0.56307327  0.14326765  1  0.353109  0  0.105647  0.068406  0  4.035061  0
C  C69  1  0.04800555  0.93692832  0.35673621  1  0.352913  0  0.105656  0.068446  0  4.034974  0
C  C70  1  0.45200012  0.43692834  0.85673262  1  0.353087  0  0.105636  0.068362  0  4.035139  0
C  C71  1  0.95199203  0.06307329  0.64326189  1  0.35286  0  0.105681  0.068522  0  4.034888  0
C  C72  1  0.42157942  0.53204093  0.15677863  1  -0.00326  0  0.009427  0.094837  0  4.03116  0
C  C73  1  0.92158142  0.96796394  0.34322595  1  -0.003729  0  0.009472  0.09486  0  4.031002  0
C  C74  1  0.57842275  0.46795986  0.84321856  1  -0.0038  0  0.009374  0.094676  0  4.03123  0
C  C75  1  0.07841616  0.03204177  0.65677450  1  -0.002814  0  0.009424  0.094824  0  4.031111  0
C  C76  1  0.33868034  0.61192190  0.20744076  1  0.00325  0  -0.077812  -0.151594  0  3.915899  0
C  C77  1  0.83868142  0.88807888  0.29256583  1  0.003396  0  -0.077875  -0.151715  0  3.915961  0
C  C78  1  0.66132091  0.38807971  0.79255444  1  0.003276  0  -0.077809  -0.151544  0  3.91567  0
C  C79  1  0.16131707  0.11192355  0.70743389  1  0.003459  0  -0.077866  -0.151726  0  3.915913  0
C  C80  1  0.21690578  0.58376778  0.21481540  1  0.510939  0  0.044344  0.096264  0  3.918483  0
C  C81  1  0.71690594  0.91623627  0.28518973  1  0.51106  0  0.044392  0.096326  0  3.918596  0
C  C82  1  0.78309822  0.41623629  0.78518396  1  0.511354  0  0.044309  0.096311  0  3.918457  0
C  C83  1  0.28309255  0.08376534  0.71481200  1  0.510831  0  0.044417  0.096401  0  3.918493  0
C  C84  1  0.25375909  0.40334250  0.13096617  1  0.545769  0  0.044713  0.099933  0  3.946879  0
C  C85  1  0.75375926  0.09666240  0.36903921  1  0.545756  0  0.044848  0.100095  0  3.946977  0
C  C86  1  0.74624400  0.59665993  0.86903356  1  0.546064  0  0.044767  0.099977  0  3.946936  0
C  C87  1  0.24623649  0.90334002  0.63096269  1  0.545388  0  0.044815  0.099967  0  3.94692  0
C  C88  1  0.37691449  0.42513254  0.11908490  1  -0.048753  0  -0.087102  -0.173233  0  3.949586  0
C  C89  1  0.87691191  0.07487154  0.38092321  1  -0.047588  0  -0.087251  -0.173452  0  3.949672  0
C  C90  1  0.62309043  0.57486825  0.88091375  1  -0.047976  0  -0.087129  -0.173178  0  3.949602  0
C  C91  1  0.12308384  0.92513088  0.61908305  1  -0.048891  0  -0.08717  -0.173268  0  3.949726  0
S  S92  1  0.92482295  0.09203429  0.12611362  1  0.201423  0  0.091883  0.070165  0  2.716994  0
S  S93  1  0.42483288  0.40796898  0.37388415  1  0.20141  0  0.091912  0.070188  0  2.717209  0
S  S94  1  0.07517463  0.90796568  0.87388194  1  0.201441  0  0.091908  0.070186  0  2.71704  0
S  S95  1  0.57516195  0.59202935  0.62612195  1  0.201267  0  0.091949  0.070233  0  2.717314  0
S  S96  1  0.09242917  0.24333621  0.27648280  1  -0.100922  0  -0.220041  -0.396568  0  2.233157  0
S  S97  1  0.59243301  0.25665968  0.22351554  1  -0.100888  0  -0.220065  -0.396568  0  2.23311  0
S  S98  1  0.90756749  0.75665720  0.72351424  1  -0.100997  0  -0.220062  -0.396576  0  2.23308  0
S  S99  1  0.40756641  0.74334193  0.77648764  1  -0.101007  0  -0.220084  -0.396602  0  2.233148  0
S  S100  1  0.67251994  0.47465685  0.12053930  1  0.245715  0  0.097908  0.079426  0  2.864973  0
S  S101  1  0.17252161  0.02534067  0.37946521  1  0.245664  0  0.097919  0.07941  0  2.865023  0
S  S102  1  0.32748406  0.52534557  0.87946188  1  0.245641  0  0.097908  0.079409  0  2.864965  0
S  S103  1  0.82747689  0.97465930  0.62053544  1  0.245903  0  0.097931  0.079408  0  2.865058  0
S  S104  1  0.91914178  0.58266405  0.09499433  1  -0.231473  0  -0.193189  -0.339031  0  2.542923  0
S  S105  1  0.41914161  0.91733262  0.40500774  1  -0.231451  0  -0.193173  -0.338959  0  2.54296  0
S  S106  1  0.08086314  0.41733756  0.90500885  1  -0.231407  0  -0.193156  -0.338965  0  2.542888  0
S  S107  1  0.58085505  0.08266161  0.59498657  1  -0.231577  0  -0.19315  -0.338922  0  2.542746  0
N  N108  1  0.94584935  0.29683345  0.13765087  1  -0.741367  0  -0.254549  -0.177375  0  3.602584  0
N  N109  1  0.44585102  0.20316981  0.36234980  1  -0.741519  0  -0.254534  -0.177309  0  3.602281  0
N  N110  1  0.05415190  0.70316406  0.86234634  1  -0.741596  0  -0.254567  -0.177407  0  3.602534  0
N  N111  1  0.55414839  0.79682606  0.63765359  1  -0.740839  0  -0.254591  -0.177367  0  3.602344  0
N  N112  1  0.86255116  0.26197824  0.06534768  1  -0.62929  0  -0.204031  -0.157578  0  3.327287  0
N  N113  1  0.36255191  0.23802912  0.43465170  1  -0.629271  0  -0.204008  -0.157565  0  3.327141  0
N  N114  1  0.13745101  0.73802337  0.93464824  1  -0.629129  0  -0.203977  -0.157516  0  3.327075  0
N  N115  1  0.63744842  0.76196675  0.56535023  1  -0.630161  0  -0.204014  -0.157522  0  3.327175  0
N  N116  1  0.59115860  0.01073389  0.81777984  1  -1.257473  0  -0.338268  -0.225849  0  3.572761  0
N  N117  1  0.09116485  0.48927511  0.68221772  1  -1.257314  0  -0.338183  -0.225748  0  3.572749  0
N  N118  1  0.40884082  0.98926608  0.18221863  1  -1.257389  0  -0.338267  -0.225842  0  3.572657  0
N  N119  1  0.90883548  0.51072157  0.31778657  1  -1.257567  0  -0.338192  -0.225768  0  3.572673  0
N  N120  1  0.69899447  0.68081969  0.13215356  1  -0.684122  0  -0.226102  -0.208397  0  3.30305  0
N  N121  1  0.19899338  0.81917944  0.36784977  1  -0.684186  0  -0.226061  -0.208438  0  3.302963  0
N  N122  1  0.30101045  0.31918192  0.86784526  1  -0.684099  0  -0.226084  -0.208403  0  3.303119  0
N  N123  1  0.80100144  0.18082217  0.63215123  1  -0.683627  0  -0.226066  -0.20845  0  3.302762  0
N  N124  1  0.57864203  0.66599725  0.14661687  1  -0.662815  0  -0.20313  -0.166114  0  3.34807  0
N  N125  1  0.07864003  0.83400271  0.35338954  1  -0.662681  0  -0.203157  -0.166097  0  3.348016  0
N  N126  1  0.42136105  0.33400436  0.85338195  1  -0.662767  0  -0.203131  -0.16607  0  3.348116  0
N  N127  1  0.92135480  0.16599808  0.64661201  1  -0.663181  0  -0.203203  -0.166188  0  3.347773  0
N  N128  1  0.17409329  0.48135221  0.17698631  1  -1.282182  0  -0.338282  -0.2158  0  3.599374  0
N  N129  1  0.67409437  0.01865270  0.32301980  1  -1.282496  0  -0.338308  -0.215866  0  3.59961  0
N  N130  1  0.82591071  0.51865186  0.82301305  1  -1.282655  0  -0.338216  -0.215805  0  3.599554  0
N  N131  1  0.32590321  0.98135055  0.67698155  1  -1.282097  0  -0.338321  -0.215871  0  3.599484  0
