# generated using pymatgen
data_Zn2H46C57(NO3)4
_symmetry_space_group_name_H-M   'P 1'
_cell_length_a   9.58608923
_cell_length_b   10.83590416
_cell_length_c   28.13831702
_cell_angle_alpha   89.76774908
_cell_angle_beta   89.91904806
_cell_angle_gamma   90.19291024
_symmetry_Int_Tables_number   1
_chemical_formula_structural   Zn2H46C57(NO3)4
_chemical_formula_sum   'Zn2 H46 C57 N4 O12'
_cell_volume   2922.79441791
_cell_formula_units_Z   1
loop_
 _symmetry_equiv_pos_site_id
 _symmetry_equiv_pos_as_xyz
  1  'x, y, z'
loop_
 _atom_site_type_symbol
 _atom_site_label
 _atom_site_symmetry_multiplicity
 _atom_site_fract_x
 _atom_site_fract_y
 _atom_site_fract_z
 _atom_site_occupancy
 _atom_site_pbe_bader_charge
 _atom_site_pbe_bader_spin_density
 _atom_site_pbe_cm5_charge
 _atom_site_pbe_ddec_charge
 _atom_site_pbe_ddec_spin_density
 _atom_site_pbe_ddec_sum_bond_order
 _atom_site_pbe_magmom
Zn  Zn0  1  0.35287246  0.49971476  0.50003143  1  1.244738  0  0.670696  0.81419  0  2.400088  0
Zn  Zn1  1  0.64709893  0.50060734  0.50011719  1  1.261384  0  0.667856  0.813077  0  2.367085  0
H  H2  1  0.27620961  0.49641648  0.65326104  1  0.092812  0  0.103547  0.104537  0  1.007475  0
H  H3  1  0.27657280  0.49911992  0.74258334  1  0.035134  0  0.108165  0.114691  0  0.980906  0
H  H4  1  0.72411266  0.50945872  0.34785745  1  0.088969  0  0.104756  0.105789  0  1.005548  0
H  H5  1  0.72722338  0.50553039  0.25847667  1  0.060577  0  0.107764  0.113893  0  0.982212  0
H  H6  1  0.51017186  0.79994613  0.12386438  1  0.118065  0  0.113271  0.117386  0  0.999809  0
H  H7  1  0.51810037  0.80867720  0.03580296  1  0.057995  0  0.103397  0.103022  0  1.010917  0
H  H8  1  0.57730359  0.80492880  0.96841886  1  0.023864  0  0.101161  0.100377  0  1.023887  0
H  H9  1  0.72296024  0.50961704  0.65235958  1  0.098816  0  0.103429  0.103672  0  1.006922  0
H  H10  1  0.72457553  0.51312925  0.74167251  1  0.073909  0  0.107943  0.114246  0  0.982803  0
H  H11  1  0.42818537  0.20311778  0.87635183  1  0.136415  0  0.114919  0.122175  0  0.983173  0
H  H12  1  0.50437915  0.18451074  0.03153227  1  0.042764  0  0.101509  0.101293  0  1.022425  0
H  H13  1  0.27808234  0.48336150  0.34676988  1  0.074603  0  0.104674  0.106005  0  1.00605  0
H  H14  1  0.28007357  0.47807631  0.25742799  1  0.060868  0  0.107873  0.11339  0  0.982197  0
H  H15  1  0.43699507  0.19271953  0.96448505  1  0.067661  0  0.104221  0.103214  0  1.009064  0
H  H16  1  0.29276782  0.89132691  0.53201652  1  0.000569  0  0.087302  0.083487  0  0.989461  0
H  H17  1  0.67902946  0.89254672  0.45457587  1  -0.002079  0  0.088538  0.085148  0  0.99313  0
H  H18  1  0.29130414  0.89206498  0.46952835  1  0.041167  0  0.086146  0.081346  0  0.99135  0
H  H19  1  0.51914891  0.89298159  0.42353778  1  0.021201  0  0.091271  0.087689  0  0.975948  0
H  H20  1  0.29102401  0.10782586  0.46966258  1  -0.004433  0  0.085823  0.081412  0  0.99133  0
H  H21  1  0.51906811  0.10808916  0.42336254  1  0.023111  0  0.091269  0.087638  0  0.975484  0
H  H22  1  0.29341823  0.10709225  0.53212866  1  0.013123  0  0.086971  0.082816  0  0.99093  0
H  H23  1  0.67905549  0.10916649  0.45432866  1  0.043338  0  0.088387  0.084886  0  0.993435  0
H  H24  1  0.52270987  0.89221234  0.57650221  1  -0.008493  0  0.090908  0.087093  0  0.976255  0
H  H25  1  0.68113934  0.89179956  0.54448550  1  0.030655  0  0.088965  0.086232  0  0.993126  0
H  H26  1  0.52328002  0.10732006  0.57633379  1  -0.002959  0  0.091342  0.087597  0  0.975175  0
H  H27  1  0.68159414  0.10843489  0.54422494  1  0.027489  0  0.088634  0.085503  0  0.994008  0
H  H28  1  0.87660319  0.62526107  0.55767552  1  0.060808  0  0.113547  0.100552  0  0.962976  0
H  H29  1  0.12485135  0.62517193  0.55751239  1  0.056781  0  0.11323  0.100602  0  0.963407  0
H  H30  1  0.87707131  0.69349220  0.50059147  1  0.078183  0  0.111865  0.100973  0  0.98082  0
H  H31  1  0.12474485  0.69350088  0.50041821  1  0.071851  0  0.112826  0.101201  0  0.982859  0
H  H32  1  0.87547397  0.40466721  0.56606920  1  0.073173  0  0.11259  0.101139  0  0.96922  0
H  H33  1  0.12398138  0.40491604  0.56595260  1  0.075884  0  0.112486  0.101177  0  0.971047  0
H  H34  1  0.87580022  0.40202925  0.43712363  1  0.073312  0  0.114787  0.103108  0  0.960536  0
H  H35  1  0.12327002  0.40185829  0.43700000  1  0.079803  0  0.114164  0.101773  0  0.961277  0
H  H36  1  0.87671547  0.56429807  0.43086722  1  0.073662  0  0.113508  0.101715  0  0.967696  0
H  H37  1  0.12392226  0.56403014  0.43067093  1  0.075237  0  0.113504  0.102243  0  0.967189  0
H  H38  1  0.87539286  0.30985960  0.51505259  1  0.072727  0  0.111947  0.101237  0  0.98195  0
H  H39  1  0.12336662  0.30977027  0.51501468  1  0.071059  0  0.113017  0.101536  0  0.981983  0
H  H40  1  0.31617541  0.14736025  0.16114871  1  0.039266  0  0.090479  0.125425  0  1.005554  0
H  H41  1  0.30058537  0.07495464  0.10452004  1  0.017611  0  0.07792  0.09761  0  1.015159  0
H  H42  1  0.37777253  0.99490034  0.15325746  1  0.040335  0  0.092971  0.12638  0  0.993531  0
H  H43  1  0.55953621  0.07419254  0.09557519  1  -0.000461  0  0.085702  0.075067  0  0.989215  0
H  H44  1  0.57908502  0.13538345  0.15372009  1  0.124636  0  0.103382  0.114639  0  0.98541  0
H  H45  1  0.61405929  0.91801521  0.90490292  1  -0.000647  0  0.085819  0.115001  0  1.011171  0
H  H46  1  0.68358406  0.84393516  0.85339371  1  0.064057  0  0.104855  0.153766  0  0.975987  0
H  H47  1  0.50738563  0.88253267  0.85452430  1  0.085453  0  0.105468  0.155188  0  0.976036  0
C  C48  1  0.50122285  0.73947718  0.49988426  1  1.544331  0  0.224717  0.591331  0  4.105302  0
C  C49  1  0.49818135  0.50088705  0.59430920  1  1.509807  0  0.213101  0.587044  0  4.183011  0
C  C50  1  0.50124076  0.26077055  0.49975441  1  1.539725  0  0.225094  0.592512  0  4.102479  0
C  C51  1  0.49891521  0.49953739  0.40580365  1  1.626024  0  0.212465  0.586902  0  4.184818  0
C  C52  1  0.52917422  0.61952124  0.82096455  1  1.262144  0  0.239497  0.434798  0  4.095623  0
C  C53  1  0.47386205  0.39306435  0.82055186  1  1.387444  0  0.237239  0.431894  0  4.12651  0
C  C54  1  0.62683400  0.50961769  0.72197871  1  -0.051387  0  -0.084277  -0.152664  0  3.982024  0
C  C55  1  0.62592041  0.50771062  0.67252344  1  0.029442  0  -0.081034  -0.076823  0  3.976238  0
C  C56  1  0.37361789  0.50030251  0.67306449  1  0.057959  0  -0.080814  -0.078329  0  3.978669  0
C  C57  1  0.37382321  0.50223151  0.72250763  1  -0.033387  0  -0.084585  -0.151003  0  3.982151  0
C  C58  1  0.50060097  0.50693536  0.74663749  1  0.31506  0  0.090966  0.195998  0  4.018126  0
C  C59  1  0.50544068  0.50512457  0.89833275  1  0.07906  0  0.00404  0.041436  0  4.003032  0
C  C60  1  0.53140178  0.61802838  0.87358600  1  0.024609  0  -0.013205  -0.1424  0  3.929793  0
C  C61  1  0.55952894  0.72644259  0.89931375  1  -0.062703  0  0.016209  0.192719  0  3.928602  0
C  C62  1  0.47730629  0.39492181  0.87297001  1  0.005787  0  -0.013361  -0.075466  0  4.005613  0
C  C63  1  0.49945063  0.50300804  0.64770647  1  0.023402  0  -0.015954  -0.029319  0  3.956956  0
C  C64  1  0.50093787  0.49656473  0.35239282  1  -0.095371  0  -0.015326  -0.029552  0  3.954763  0
C  C65  1  0.51709054  0.61065566  0.02672965  1  0.02048  0  0.004351  0.044826  0  3.973065  0
C  C66  1  0.49937770  0.38201463  0.02524487  1  -0.032002  0  0.003164  0.04881  0  4.004766  0
C  C67  1  0.50764894  0.49489487  0.05098240  1  -0.061559  0  0.000952  -0.007407  0  3.933498  0
C  C68  1  0.51609919  0.71917748  0.05348512  1  -0.008572  0  -0.085923  -0.127011  0  3.985892  0
C  C69  1  0.51112210  0.71544499  0.10295711  1  -0.096785  0  -0.071259  -0.071331  0  3.98573  0
C  C70  1  0.50832958  0.60339929  0.12714318  1  0.005902  0  -0.013525  -0.074542  0  4.00308  0
C  C71  1  0.50671968  0.49036488  0.10182824  1  -0.036894  0  0.004013  0.041772  0  3.99758  0
C  C72  1  0.50502000  0.37500585  0.12660999  1  0.093564  0  -0.011868  -0.135597  0  3.924227  0
C  C73  1  0.50323338  0.37481136  0.17935619  1  1.266871  0  0.241799  0.43325  0  4.09357  0
C  C74  1  0.50667221  0.60625136  0.17953363  1  1.345698  0  0.23723  0.432214  0  4.12612  0
C  C75  1  0.62942551  0.49991236  0.27818077  1  -0.059124  0  -0.084707  -0.154927  0  3.981666  0
C  C76  1  0.62764249  0.50245905  0.32762677  1  0.014379  0  -0.079862  -0.074809  0  3.97387  0
C  C77  1  0.37572593  0.48775683  0.32699647  1  0.087568  0  -0.080391  -0.07657  0  3.973782  0
C  C78  1  0.37683230  0.48480197  0.27755891  1  -0.08951  0  -0.084577  -0.153271  0  3.980614  0
C  C79  1  0.50385729  0.49091842  0.25349408  1  0.379207  0  0.091048  0.198373  0  4.018193  0
C  C80  1  0.52734653  0.61218771  0.97483647  1  -0.049942  0  0.003031  0.04783  0  4.006371  0
C  C81  1  0.50691262  0.50046403  0.94916059  1  -0.073182  0  0.000844  -0.005505  0  3.931298  0
C  C82  1  0.48770112  0.38566303  0.97340621  1  0.041498  0  0.004068  0.044874  0  3.972223  0
C  C83  1  0.55566939  0.71980617  0.94927695  1  0.063813  0  -0.086517  -0.189702  0  3.930368  0
C  C84  1  0.45187724  0.28511306  0.89721472  1  -0.110913  0  -0.070721  -0.070754  0  3.982157  0
C  C85  1  0.50322103  0.27164940  0.05074800  1  0.023976  0  -0.084979  -0.186296  0  3.940467  0
C  C86  1  0.50752901  0.26402189  0.10071017  1  -0.018875  0  0.017528  0.144558  0  3.894289  0
C  C87  1  0.45767963  0.28028034  0.94670026  1  -0.041574  0  -0.085764  -0.127668  0  3.986629  0
C  C88  1  0.34704037  0.92840218  0.50060130  1  0.042938  0  -0.166578  -0.17687  0  3.896869  0
C  C89  1  0.57232573  0.92915630  0.45521366  1  -0.04606  0  -0.158032  -0.169055  0  3.861035  0
C  C90  1  0.34715184  0.07096672  0.50061319  1  -0.046076  0  -0.166815  -0.177678  0  3.898966  0
C  C91  1  0.57232920  0.07199266  0.45509281  1  0.013444  0  -0.158529  -0.168905  0  3.860688  0
C  C92  1  0.57448195  0.92852174  0.54441453  1  0.073825  0  -0.157611  -0.168898  0  3.859852  0
C  C93  1  0.49739832  0.87982662  0.50008787  1  0.046928  0  -0.018655  0.022761  0  3.811138  0
C  C94  1  0.49755414  0.12035653  0.49993585  1  0.056033  0  -0.017981  0.022632  0  3.810874  0
C  C95  1  0.57476617  0.07144259  0.54428675  1  -0.067196  0  -0.15795  -0.168852  0  3.859619  0
C  C96  1  0.91995894  0.61733044  0.52169219  1  0.171811  0  -0.068417  -0.089725  0  3.820185  0
C  C97  1  0.08137071  0.61730641  0.52158076  1  0.2967  0  -0.068329  -0.091039  0  3.818196  0
C  C98  1  0.91890573  0.39475392  0.53018090  1  0.29123  0  -0.068776  -0.092216  0  3.816207  0
C  C99  1  0.08048447  0.39477700  0.53011592  1  0.164965  0  -0.068942  -0.092442  0  3.816142  0
C  C100  1  0.91939257  0.48757046  0.45174388  1  0.294571  0  -0.068568  -0.091693  0  3.832366  0
C  C101  1  0.08050694  0.48748866  0.45164259  1  0.154506  0  -0.068522  -0.089962  0  3.831139  0
C  C102  1  0.51244652  0.13596966  0.12213544  1  -0.016018  0  -0.160793  -0.154724  0  3.970309  0
C  C103  1  0.36771471  0.08551283  0.13591962  1  -0.051524  0  -0.239844  -0.34212  0  3.943105  0
C  C104  1  0.59288619  0.84949548  0.87713358  1  -0.004365  0  -0.23447  -0.41695  0  3.963342  0
N  N105  1  0.50122194  0.50637304  0.79794326  1  -1.2306  0  -0.233126  -0.212091  0  3.580619  0
N  N106  1  0.50544982  0.49075291  0.20214385  1  -1.212629  0  -0.233629  -0.212914  0  3.586395  0
N  N107  1  0.86605916  0.49998988  0.50118300  1  -0.955014  0  -0.339518  -0.100293  0  3.448537  0
N  N108  1  0.13412043  0.49988006  0.50100973  1  -0.96223  0  -0.339711  -0.100656  0  3.449644  0
O  O109  1  0.38457619  0.68310783  0.49969656  1  -1.173008  0  -0.313712  -0.5464  0  2.402805  0
O  O110  1  0.62051985  0.68830571  0.49984114  1  -1.182017  0  -0.31624  -0.553933  0  2.362335  0
O  O111  1  0.37940183  0.49972397  0.57414941  1  -1.174621  0  -0.319138  -0.557831  0  2.323289  0
O  O112  1  0.61627124  0.50052333  0.57337239  1  -1.175424  0  -0.318818  -0.556748  0  2.326815  0
O  O113  1  0.38451515  0.31639240  0.49986355  1  -1.171515  0  -0.314477  -0.546655  0  2.393846  0
O  O114  1  0.62055199  0.31274644  0.49951338  1  -1.181808  0  -0.316852  -0.554327  0  2.355437  0
O  O115  1  0.37996648  0.49951929  0.42586511  1  -1.175391  0  -0.317279  -0.55875  0  2.342296  0
O  O116  1  0.61658495  0.50161635  0.42677703  1  -1.17602  0  -0.316936  -0.557631  0  2.346402  0
O  O117  1  0.54979036  0.71296070  0.79684242  1  -1.093616  0  -0.27052  -0.429961  0  2.102718  0
O  O118  1  0.50618079  0.70261755  0.20261113  1  -1.095351  0  -0.286318  -0.446692  0  2.059353  0
O  O119  1  0.44952870  0.29913291  0.79746736  1  -1.103152  0  -0.286384  -0.446342  0  2.063896  0
O  O120  1  0.49928788  0.28057552  0.20396596  1  -1.09328  0  -0.266043  -0.425374  0  2.11767  0
