# generated using pymatgen
data_CuH8C12(NO2)2
_symmetry_space_group_name_H-M   'P 1'
_cell_length_a   8.98849807
_cell_length_b   8.25534254
_cell_length_c   9.73972647
_cell_angle_alpha   115.22102017
_cell_angle_beta   97.58086545
_cell_angle_gamma   103.01307485
_symmetry_Int_Tables_number   1
_chemical_formula_structural   CuH8C12(NO2)2
_chemical_formula_sum   'Cu2 H16 C24 N4 O8'
_cell_volume   615.37477938
_cell_formula_units_Z   2
loop_
 _symmetry_equiv_pos_site_id
 _symmetry_equiv_pos_as_xyz
  1  'x, y, z'
loop_
 _atom_site_type_symbol
 _atom_site_label
 _atom_site_symmetry_multiplicity
 _atom_site_fract_x
 _atom_site_fract_y
 _atom_site_fract_z
 _atom_site_occupancy
 _atom_site_hle17_ddec_charge
 _atom_site_hle17_ddec_spin_density
 _atom_site_hle17_ddec_sum_bond_order
 _atom_site_hle17_magmom
 _atom_site_hse06_10hf_ddec_charge
 _atom_site_hse06_10hf_ddec_spin_density
 _atom_site_hse06_10hf_ddec_sum_bond_order
 _atom_site_hse06_10hf_magmom
 _atom_site_hse06_ddec_charge
 _atom_site_hse06_ddec_spin_density
 _atom_site_hse06_ddec_sum_bond_order
 _atom_site_hse06_magmom
 _atom_site_pbe_cm5_charge
 _atom_site_pbe_ddec_charge
 _atom_site_pbe_ddec_spin_density
 _atom_site_pbe_ddec_sum_bond_order
 _atom_site_pbe_magmom
Cu  Cu0  1  0.28046317  0.02171441  0.18345724  1  0.841149  -0.731078  1.898094  -0.517  0.825181  -0.8204  2.287757  -0.64  0.911568  -0.898082  2.223727  -0.729  0.741375  0.771704  -0.746268  2.331758  -0.565
Cu  Cu1  1  0.71953747  0.97828015  0.81654153  1  0.84123  0.731094  1.897987  0.517  0.825218  0.820403  2.287763  0.64  0.9116  0.898089  2.223725  0.729  0.741351  0.771646  0.746271  2.331892  0.565
H  H2  1  0.59019016  0.33878687  0.29505173  1  0.087228  -0.001149  0.938987  -0.002  0.09788  -0.001029  0.996575  -0.002  0.099887  -0.000744  0.99512  -0.001  0.120854  0.095727  -0.001247  0.998273  -0.002
H  H3  1  0.40981337  0.66120608  0.70494582  1  0.087198  0.00115  0.938987  0.002  0.097888  0.00103  0.996548  0.002  0.099898  0.000744  0.995089  0.001  0.120856  0.095738  0.001247  0.998245  0.002
H  H4  1  0.79080589  0.55419714  0.55801072  1  0.113253  -0.00044  0.955653  -0.001  0.123175  -0.000436  1.015988  -0.001  0.126251  -0.000317  1.014783  0.0  0.11035  0.120738  -0.000541  1.017124  -0.001
H  H5  1  0.20918946  0.44580620  0.44198839  1  0.113258  0.000438  0.955675  0.001  0.123177  0.000436  1.016006  0.001  0.126253  0.000317  1.0148  0.0  0.110367  0.120744  0.000541  1.017138  0.001
H  H6  1  0.74196115  0.52398990  0.79123117  1  0.113219  -0.000188  0.922037  0.0  0.126837  2.2e-05  0.97289  0.0  0.129991  2.8e-05  0.97034  0.0  0.11687  0.12398  9e-06  0.975566  0.0
H  H7  1  0.25802689  0.47601532  0.20877079  1  0.113208  0.000189  0.922214  0.0  0.126835  -2.2e-05  0.973057  0.0  0.129991  -2.8e-05  0.970503  0.0  0.116904  0.123979  -1e-05  0.975734  0.0
H  H8  1  0.50374319  0.27283709  0.76018370  1  0.134546  -0.000626  0.966134  -0.001  0.143918  -0.000539  1.024734  -0.001  0.148536  -0.000362  1.02114  -0.001  0.112924  0.139952  -0.000649  1.028082  -0.001
H  H9  1  0.49624609  0.72716089  0.23981488  1  0.134549  0.000626  0.966192  0.001  0.143876  0.000539  1.024854  0.001  0.148492  0.000362  1.021262  0.001  0.11292  0.139911  0.000649  1.028198  0.001
H  H10  1  0.29094302  0.06230425  0.71147525  1  0.125472  -0.000622  0.946437  -0.001  0.136575  -0.000606  1.001651  -0.001  0.140192  -0.000433  1.000193  0.0  0.115273  0.133522  -0.000682  1.003409  -0.001
H  H11  1  0.70906336  0.93769841  0.28852085  1  0.125492  0.000622  0.946401  0.001  0.136564  0.000606  1.001647  0.001  0.140179  0.000433  1.000194  0.0  0.115272  0.13351  0.000682  1.003401  0.001
H  H12  1  0.04303999  0.79764197  0.62926254  1  0.112617  -9.1e-05  0.962579  0.0  0.12394  5.1e-05  1.019855  0.0  0.127569  5.3e-05  1.01661  0.0  0.109559  0.121327  3.6e-05  1.022171  0.0
H  H13  1  0.95697477  0.20235478  0.37073973  1  0.112601  9.2e-05  0.962581  0.0  0.123865  -5.1e-05  1.019931  0.0  0.127487  -5.3e-05  1.016698  0.0  0.109569  0.121257  -3.6e-05  1.022244  0.0
H  H14  1  0.89742016  0.60936813  0.34056310  1  0.108914  -0.000442  0.929722  0.0  0.123477  -0.000448  0.979652  0.0  0.126664  -0.000329  0.9788  0.0  0.113943  0.120961  -0.000576  0.980701  -0.001
H  H15  1  0.10258929  0.39062202  0.65944549  1  0.108939  0.000443  0.92965  0.0  0.123493  0.000448  0.979589  0.0  0.126682  0.000329  0.978733  0.0  0.11392  0.120941  0.000576  0.980681  0.001
H  H16  1  0.00250831  0.70716832  0.15185292  1  0.09643  -0.001098  0.920546  -0.002  0.107301  -0.000968  0.974954  -0.002  0.110036  -0.000708  0.972439  -0.001  0.127218  0.105182  -0.001235  0.976786  -0.002
H  H17  1  0.99748699  0.29281958  0.84815010  1  0.09639  0.001098  0.920601  0.002  0.1073  0.000967  0.974965  0.002  0.110036  0.000708  0.972448  0.001  0.127225  0.105179  0.001233  0.976801  0.002
C  C18  1  0.57687312  0.32921214  0.40114780  1  0.125549  0.006317  3.711231  0.007  0.09671  0.001028  3.969201  0.002  0.105314  0.001844  3.988659  0.003  0.047556  0.091176  0.00049  3.957181  0.002
C  C19  1  0.42312695  0.67078816  0.59885289  1  0.125567  -0.006334  3.711396  -0.007  0.096713  -0.001028  3.969382  -0.002  0.105297  -0.001845  3.988838  -0.003  0.047539  0.091181  -0.000489  3.957354  -0.002
C  C20  1  0.68631277  0.44733462  0.54560837  1  -0.111691  -0.008027  3.725538  -0.009  -0.128079  -0.003777  3.98255  -0.004  -0.135027  -0.003393  4.003063  -0.004  -0.079736  -0.123719  -0.00399  3.969445  -0.005
C  C21  1  0.31368332  0.55267885  0.45439946  1  -0.111734  0.00805  3.725548  0.009  -0.128104  0.003776  3.982573  0.004  -0.135053  0.003394  4.003093  0.004  -0.079764  -0.123744  0.00399  3.969465  0.005
C  C22  1  0.65867402  0.42988530  0.67692864  1  0.025888  0.007116  3.671096  0.007  0.004289  0.002602  3.924651  0.003  0.010305  0.002672  3.939247  0.003  -0.056259  -0.000477  0.002566  3.916435  0.002
C  C23  1  0.34131769  0.57012095  0.32306693  1  0.02584  -0.007133  3.671307  -0.007  0.004218  -0.002602  3.924872  -0.003  0.010235  -0.002673  3.939472  -0.003  -0.056333  -0.000548  -0.002566  3.916655  -0.002
C  C24  1  0.52415898  0.29284772  0.65974661  1  -0.132869  -0.005642  3.651117  -0.006  -0.151449  -0.002534  3.896013  -0.003  -0.158263  -0.002318  3.914204  -0.002  -0.072964  -0.147298  -0.002587  3.885148  -0.003
C  C25  1  0.47582461  0.70714617  0.34024679  1  -0.13282  0.005661  3.651199  0.006  -0.151363  0.002535  3.896136  0.003  -0.158174  0.002319  3.914324  0.002  -0.072945  -0.14721  0.002588  3.885263  0.003
C  C26  1  0.41944870  0.17774747  0.51064247  1  0.161857  0.002848  3.762218  0.003  0.157876  -0.00035  4.011612  0.0  0.165252  0.000576  4.032909  0.001  0.11397  0.1531  -0.00104  3.997669  -0.001
C  C27  1  0.58054445  0.82224454  0.48935247  1  0.16197  -0.002867  3.761935  -0.003  0.157984  0.000349  4.011377  0.0  0.165345  -0.000578  4.032667  -0.001  0.114019  0.153212  0.001039  3.997423  0.001
C  C28  1  0.27508814  0.02496416  0.47592289  1  0.168721  0.003026  3.761414  0.003  0.164663  -0.000263  4.010306  0.0  0.17232  0.000611  4.031723  0.001  0.117181  0.159761  -0.000963  3.995992  0.0
C  C29  1  0.72490556  0.97503355  0.52407407  1  0.168696  -0.003021  3.761325  -0.003  0.16464  0.000262  4.01021  0.0  0.172302  -0.00061  4.031631  -0.001  0.117165  0.159733  0.000964  3.995887  0.0
C  C30  1  0.22333856  0.98140182  0.58885243  1  -0.128678  -0.005462  3.675286  -0.005  -0.145649  -0.002316  3.919717  -0.002  -0.152903  -0.002174  3.940251  -0.002  -0.072576  -0.141024  -0.002484  3.90682  -0.002
C  C31  1  0.77665914  0.01859422  0.41114342  1  -0.128716  0.005458  3.67512  0.005  -0.145636  0.002318  3.919519  0.002  -0.152889  0.002174  3.940049  0.002  -0.072562  -0.141003  0.002483  3.90661  0.002
C  C32  1  0.08587390  0.83171623  0.54188094  1  -0.002443  0.007001  3.697984  0.007  -0.022489  0.002577  3.948591  0.002  -0.017501  0.002652  3.96514  0.003  -0.064815  -0.026332  0.002518  3.938038  0.002
C  C33  1  0.91413019  0.16828248  0.45812071  1  -0.002359  -0.006998  3.697907  -0.007  -0.022387  -0.002578  3.948555  -0.002  -0.017395  -0.002653  3.965104  -0.003  -0.064834  -0.026237  -0.002518  3.937999  -0.002
C  C34  1  0.00404424  0.72926843  0.38335305  1  -0.111898  -0.007758  3.71902  -0.008  -0.125234  -0.003582  3.971745  -0.004  -0.132304  -0.003265  3.991507  -0.004  -0.076048  -0.120658  -0.003854  3.958955  -0.004
C  C35  1  0.99596085  0.27072600  0.61664930  1  -0.112017  0.007747  3.71883  0.008  -0.125328  0.003581  3.971569  0.004  -0.132399  0.003264  3.991328  0.004  -0.076049  -0.120723  0.003854  3.958785  0.004
C  C36  1  0.06138935  0.78095684  0.27693230  1  0.141655  0.006495  3.689009  0.007  0.113214  0.001231  3.946398  0.003  0.122925  0.001989  3.963346  0.003  0.057774  0.106504  0.000645  3.93594  0.002
C  C37  1  0.93861406  0.21904337  0.72307082  1  0.141891  -0.006492  3.688717  -0.007  0.113396  -0.001232  3.946107  -0.003  0.123113  -0.001988  3.963056  -0.003  0.057849  0.106694  -0.000645  3.935624  -0.002
C  C38  1  0.47581847  0.08076088  0.99018798  1  0.516908  0.00533  3.92263  0.009  0.484203  0.000672  4.226075  0.003  0.515859  0.000626  4.221246  0.002  0.191499  0.462084  0.000676  4.227793  0.003
C  C39  1  0.52418919  0.91923467  0.00980890  1  0.516947  -0.00533  3.922738  -0.009  0.484244  -0.000672  4.226187  -0.003  0.515901  -0.000626  4.221359  -0.002  0.191559  0.462121  -0.000678  4.227907  -0.003
C  C40  1  0.00555451  0.90237276  0.94118424  1  0.526187  0.004942  3.90975  0.008  0.493518  0.000213  4.209541  0.003  0.525847  0.000322  4.203965  0.002  0.195023  0.470842  0.000111  4.213295  0.003
C  C41  1  0.99445300  0.09765284  0.05882403  1  0.526381  -0.004942  3.909716  -0.008  0.493735  -0.000213  4.20945  -0.003  0.526061  -0.000322  4.203872  -0.002  0.195105  0.471058  -0.000111  4.213211  -0.003
N  N42  1  0.44636619  0.19865972  0.38456751  1  -0.328059  -0.073732  3.345442  -0.091  -0.285344  -0.053635  3.637911  -0.071  -0.314602  -0.045009  3.660248  -0.063  -0.34482  -0.269038  -0.057098  3.625869  -0.072
N  N43  1  0.55363148  0.80133623  0.61542522  1  -0.328116  0.07375  3.345345  0.091  -0.285441  0.053638  3.637887  0.071  -0.314656  0.04501  3.660201  0.063  -0.344824  -0.269113  0.057104  3.625837  0.072
N  N44  1  0.19301010  0.92536213  0.32248619  1  -0.326443  -0.071222  3.33096  -0.088  -0.285646  -0.052015  3.626323  -0.069  -0.314335  -0.043858  3.646714  -0.061  -0.341455  -0.26918  -0.055794  3.61526  -0.071
N  N45  1  0.80698723  0.07463266  0.67751432  1  -0.326636  0.071226  3.330855  0.088  -0.285791  0.052019  3.626199  0.069  -0.314497  0.043857  3.646608  0.061  -0.341487  -0.269301  0.055799  3.615127  0.071
O  O46  1  0.37520692  0.14245221  0.06223943  1  -0.551451  -0.087207  2.083803  -0.114  -0.534267  -0.053846  2.351754  -0.077  -0.57556  -0.040401  2.346838  -0.061  -0.326349  -0.504606  -0.062278  2.354207  -0.085
O  O47  1  0.62480389  0.85755023  0.93775713  1  -0.551498  0.087203  2.083846  0.114  -0.534316  0.053843  2.35182  0.077  -0.575611  0.040399  2.346907  0.061  -0.326412  -0.504631  0.062278  2.354275  0.085
O  O48  1  0.10840365  0.84048836  0.98980296  1  -0.556387  -0.085575  2.068094  -0.112  -0.541116  -0.052681  2.333339  -0.075  -0.581605  -0.039388  2.326181  -0.059  -0.33265  -0.512681  -0.061334  2.337447  -0.084
O  O49  1  0.89160133  0.15952860  0.01019586  1  -0.556477  0.085565  2.068161  0.112  -0.541228  0.052678  2.333419  0.075  -0.581716  0.039385  2.326257  0.059  -0.332649  -0.512769  0.061332  2.337536  0.084
O  O50  1  0.53786810  0.14139853  0.90629902  1  -0.572248  -0.013628  2.023552  -0.017  -0.548941  -0.007084  2.265856  -0.009  -0.574816  -0.00404  2.254082  -0.005  -0.315179  -0.528035  -0.01164  2.272572  -0.015
O  O51  1  0.46214024  0.85859552  0.09369640  1  -0.572246  0.013625  2.023685  0.017  -0.54893  0.007083  2.265968  0.009  -0.574802  0.004038  2.254193  0.005  -0.315189  -0.528038  0.011638  2.272686  0.015
O  O52  1  0.08687727  0.18390006  0.19373111  1  -0.577503  0.016315  2.04925  0.02  -0.554587  0.008469  2.301514  0.011  -0.58164  0.005046  2.291699  0.006  -0.308555  -0.53356  0.013136  2.306929  0.017
O  O53  1  0.91312528  0.81612013  0.80627674  1  -0.577461  -0.016322  2.049324  -0.02  -0.554579  -0.00847  2.301665  -0.011  -0.58164  -0.005047  2.291851  -0.006  -0.308535  -0.533537  -0.013141  2.307077  -0.017
