# generated using pymatgen
data_MnH12C10(NO3)2
_symmetry_space_group_name_H-M   'P 1'
_cell_length_a   8.25325217
_cell_length_b   8.12942118
_cell_length_c   8.12941364
_cell_angle_alpha   75.91299106
_cell_angle_beta   89.03634923
_cell_angle_gamma   89.03633477
_symmetry_Int_Tables_number   1
_chemical_formula_structural   MnH12C10(NO3)2
_chemical_formula_sum   'Mn2 H24 C20 N4 O12'
_cell_volume   528.91306404
_cell_formula_units_Z   2
loop_
 _symmetry_equiv_pos_site_id
 _symmetry_equiv_pos_as_xyz
  1  'x, y, z'
loop_
 _atom_site_type_symbol
 _atom_site_label
 _atom_site_symmetry_multiplicity
 _atom_site_fract_x
 _atom_site_fract_y
 _atom_site_fract_z
 _atom_site_occupancy
 _atom_site_pbe_cm5_charge
 _atom_site_pbe_ddec_charge
 _atom_site_pbe_ddec_spin_density
 _atom_site_pbe_ddec_sum_bond_order
 _atom_site_pbe_magmom
Mn  Mn0  1  0.25000077  0.15065172  0.84934919  1  0.602032  1.074753  4.679173  2.259521  4.505
Mn  Mn1  1  0.75000019  0.84934735  0.15065243  1  0.602042  1.074753  4.679156  2.25953  4.505
H  H2  1  0.93725326  0.98392705  0.78989022  1  0.313618  0.278608  -0.000135  0.999212  0.0
H  H3  1  0.56274725  0.21011130  0.01607423  1  0.313615  0.278587  -0.000135  0.999224  0.0
H  H4  1  0.06274648  0.01607328  0.21010987  1  0.313628  0.278616  -0.000135  0.999175  0.0
H  H5  1  0.43725248  0.78989030  0.98392676  1  0.313623  0.278602  -0.000135  0.99921  0.0
H  H6  1  0.88088060  0.41503914  0.41024375  1  0.109868  0.134491  -0.000262  0.992686  0.0
H  H7  1  0.61912010  0.58975508  0.58496139  1  0.109879  0.134491  -0.000262  0.992724  0.0
H  H8  1  0.11912037  0.58495991  0.58975664  1  0.10988  0.134497  -0.000262  0.992683  0.0
H  H9  1  0.38087965  0.41024398  0.41503902  1  0.109878  0.134496  -0.000262  0.992707  0.0
H  H10  1  0.91406527  0.23652156  0.32481159  1  0.104202  0.121631  -4.9e-05  1.011905  0.0
H  H11  1  0.58593382  0.67518727  0.76347847  1  0.104205  0.121637  -4.9e-05  1.011914  0.0
H  H12  1  0.08593328  0.76347748  0.67518638  1  0.104216  0.121659  -4.9e-05  1.011889  0.0
H  H13  1  0.41406592  0.32481305  0.23652162  1  0.104209  0.121642  -4.9e-05  1.011913  0.0
H  H14  1  0.63060996  0.19080026  0.38083302  1  0.098039  0.105198  -0.000175  1.012854  0.0
H  H15  1  0.86938968  0.61916582  0.80920130  1  0.098037  0.105186  -0.000175  1.012864  0.0
H  H16  1  0.36938979  0.80920007  0.61916707  1  0.09804  0.1052  -0.000175  1.012842  0.0
H  H17  1  0.13060887  0.38083324  0.19079912  1  0.09806  0.105218  -0.000175  1.012839  0.0
H  H18  1  0.62872563  0.30296498  0.54209890  1  0.09611  0.093491  -0.00014  1.021268  0.0
H  H19  1  0.87127559  0.45790109  0.69703738  1  0.096082  0.093429  -0.00014  1.021278  0.0
H  H20  1  0.37127655  0.69703406  0.45790025  1  0.096106  0.093503  -0.00014  1.021247  0.0
H  H21  1  0.12872415  0.54209926  0.30296516  1  0.096071  0.093415  -0.00014  1.021287  0.0
H  H22  1  0.72295078  0.93752131  0.56279098  1  0.119592  0.095786  5e-06  0.971556  0.001
H  H23  1  0.77704847  0.43720695  0.06248240  1  0.119592  0.095753  5e-06  0.971571  0.001
H  H24  1  0.27704776  0.06247899  0.43720666  1  0.119599  0.095786  5e-06  0.971588  0.001
H  H25  1  0.22295127  0.56279340  0.93752014  1  0.119599  0.095778  5e-06  0.971567  0.001
C  C26  1  0.97255681  0.18715159  0.58515426  1  0.249039  0.533765  0.006656  4.064633  0.006
C  C27  1  0.52744499  0.41484480  0.81284831  1  0.248994  0.533734  0.006657  4.064729  0.006
C  C28  1  0.02744418  0.81284617  0.41484399  1  0.249002  0.53373  0.006657  4.064759  0.006
C  C29  1  0.47255475  0.58515553  0.18715301  1  0.249002  0.53372  0.006657  4.064715  0.006
C  C30  1  0.86962967  0.27680653  0.43723769  1  -0.15874  -0.296045  0.001896  3.899235  0.002
C  C31  1  0.63037154  0.56276124  0.72319351  1  -0.158781  -0.296101  0.001896  3.899215  0.002
C  C32  1  0.13037130  0.72319250  0.56276024  1  -0.158778  -0.296097  0.001896  3.899259  0.002
C  C33  1  0.36962820  0.43723908  0.27680658  1  -0.158785  -0.296108  0.001896  3.899257  0.002
C  C34  1  0.69823874  0.21271290  0.48753582  1  -0.159003  -0.1686  0.000902  3.881886  0.001
C  C35  1  0.80176118  0.51246272  0.78729010  1  -0.158923  -0.168466  0.000902  3.881722  0.001
C  C36  1  0.30176101  0.78728742  0.51246304  1  -0.158983  -0.168571  0.000902  3.881874  0.001
C  C37  1  0.19823856  0.48753762  0.21271122  1  -0.158951  -0.168513  0.000902  3.881755  0.001
C  C38  1  0.72341260  0.04584802  0.62298245  1  0.015442  0.018945  0.002004  3.820323  0.001
C  C39  1  0.77658799  0.37701653  0.95415437  1  0.015452  0.018985  0.002004  3.820287  0.001
C  C40  1  0.27658836  0.95415229  0.37701639  1  0.015422  0.01884  0.002004  3.820473  0.001
C  C41  1  0.22341175  0.62298380  0.04584695  1  0.015444  0.018906  0.002004  3.820356  0.001
C  C42  1  0.59301138  0.00612999  0.76191391  1  0.226699  0.585854  0.020699  4.15849  0.02
C  C43  1  0.90698909  0.23808595  0.99386948  1  0.226711  0.585891  0.020699  4.158494  0.02
C  C44  1  0.40698958  0.99387033  0.23808616  1  0.226703  0.5859  0.020699  4.158544  0.02
C  C45  1  0.09301065  0.76191438  0.00613060  1  0.226709  0.585909  0.0207  4.158467  0.02
N  N46  1  0.88520077  0.06384045  0.68591980  1  -0.408686  -0.361224  0.0046  3.499371  0.005
N  N47  1  0.61479926  0.31407973  0.93616107  1  -0.408689  -0.361189  0.0046  3.499358  0.005
N  N48  1  0.11480020  0.93615859  0.31407937  1  -0.408639  -0.361114  0.004601  3.499264  0.005
N  N49  1  0.38519926  0.68592062  0.06384148  1  -0.408658  -0.361129  0.0046  3.499314  0.005
O  O50  1  0.45084069  0.05968574  0.72046813  1  -0.303283  -0.561732  0.043118  2.329782  0.027
O  O51  1  0.04915934  0.27953069  0.94031618  1  -0.303294  -0.561749  0.043116  2.329812  0.027
O  O52  1  0.54915905  0.94031458  0.27953195  1  -0.303286  -0.56174  0.043117  2.329877  0.027
O  O53  1  0.95084040  0.72046964  0.05968390  1  -0.303288  -0.561732  0.043117  2.329775  0.027
O  O54  1  0.63168407  0.91106331  0.90545503  1  -0.313432  -0.600333  0.044052  2.387362  0.027
O  O55  1  0.86831634  0.09454391  0.08893664  1  -0.313437  -0.600371  0.044054  2.38739  0.027
O  O56  1  0.36831688  0.08893701  0.09454504  1  -0.313437  -0.600351  0.044052  2.387364  0.027
O  O57  1  0.13168340  0.90545642  0.91106345  1  -0.313448  -0.600374  0.044053  2.387374  0.027
O  O58  1  0.11754715  0.22054764  0.60866280  1  -0.290488  -0.517194  0.037243  2.265772  0.024
O  O59  1  0.38245462  0.39133529  0.77945036  1  -0.290468  -0.517215  0.037244  2.265784  0.024
O  O60  1  0.88245384  0.77945012  0.39133546  1  -0.290487  -0.51723  0.037245  2.265815  0.024
O  O61  1  0.61754635  0.60866375  0.22054881  1  -0.29048  -0.517207  0.037243  2.265785  0.024
