# generated using pymatgen
data_UH6PbC14(NO5)2
_symmetry_space_group_name_H-M   'P 1'
_cell_length_a   8.83226354
_cell_length_b   10.70061378
_cell_length_c   10.69938982
_cell_angle_alpha   97.98582650
_cell_angle_beta   107.49043871
_cell_angle_gamma   107.48744420
_symmetry_Int_Tables_number   1
_chemical_formula_structural   UH6PbC14(NO5)2
_chemical_formula_sum   'U2 H12 Pb2 C28 N4 O20'
_cell_volume   890.19361826
_cell_formula_units_Z   2
loop_
 _symmetry_equiv_pos_site_id
 _symmetry_equiv_pos_as_xyz
  1  'x, y, z'
loop_
 _atom_site_type_symbol
 _atom_site_label
 _atom_site_symmetry_multiplicity
 _atom_site_fract_x
 _atom_site_fract_y
 _atom_site_fract_z
 _atom_site_occupancy
 _atom_site_hle17_bader_spin_density
 _atom_site_hle17_ddec_charge
 _atom_site_hle17_ddec_spin_density
 _atom_site_hle17_ddec_sum_bond_order
 _atom_site_hle17_magmom
 _atom_site_hse06_10hf_bader_spin_density
 _atom_site_hse06_10hf_ddec_charge
 _atom_site_hse06_10hf_ddec_spin_density
 _atom_site_hse06_10hf_ddec_sum_bond_order
 _atom_site_hse06_10hf_magmom
 _atom_site_hse06_bader_spin_density
 _atom_site_hse06_ddec_charge
 _atom_site_hse06_ddec_spin_density
 _atom_site_hse06_ddec_sum_bond_order
 _atom_site_hse06_magmom
 _atom_site_pbe_bader_spin_density
 _atom_site_pbe_cm5_charge
 _atom_site_pbe_ddec_charge
 _atom_site_pbe_ddec_spin_density
 _atom_site_pbe_ddec_sum_bond_order
 _atom_site_pbe_magmom
U  U0  1  0.99992311  0.49997153  0.99994710  1  0  2.39695  0  4.142894  0  0  2.412797  0  4.830523  0  0  2.527274  0  4.791569  0  0  2.137438  2.333396  0  4.856705  0
U  U1  1  0.49997080  0.00003154  0.50003290  1  0  2.396653  0  4.142591  0  0  2.412761  0  4.829979  0  0  2.527239  0  4.791034  0  0  2.13723  2.333393  0  4.856093  0
H  H2  1  0.71732421  0.65950129  0.17810057  1  0  0.126305  0  0.955336  0  0  0.131182  0  1.023522  0  0  0.135095  0  1.02128  0  0  0.118062  0.128434  0  1.025029  0
H  H3  1  0.78264420  0.82190491  0.34048853  1  0  0.126274  0  0.955337  0  0  0.131157  0  1.023555  0  0  0.135089  0  1.021266  0  0  0.117994  0.128403  0  1.025061  0
H  H4  1  0.28262118  0.34048827  0.82188574  1  0  0.126374  0  0.955418  0  0  0.131117  0  1.023797  0  0  0.135073  0  1.02146  0  0  0.117966  0.128357  0  1.025298  0
H  H5  1  0.21737935  0.17810204  0.65958016  1  0  0.126294  0  0.955436  0  0  0.131003  0  1.023836  0  0  0.134933  0  1.021557  0  0  0.117946  0.128254  0  1.025343  0
H  H6  1  0.47206613  0.25063458  0.19916147  1  0  0.116885  0  0.984188  0  0  0.123192  0  1.050264  0  0  0.127345  0  1.047572  0  0  0.114788  0.120269  0  1.051865  0
H  H7  1  0.02794823  0.80084239  0.74936756  1  0  0.116924  0  0.984366  0  0  0.123207  0  1.050489  0  0  0.127395  0  1.047742  0  0  0.114759  0.120282  0  1.052095  0
H  H8  1  0.52795469  0.74931245  0.80077768  1  0  0.116778  0  0.983886  0  0  0.123187  0  1.049929  0  0  0.127383  0  1.047176  0  0  0.114736  0.120257  0  1.051542  0
H  H9  1  0.97210580  0.19923949  0.25071805  1  0  0.116596  0  0.984376  0  0  0.123122  0  1.050255  0  0  0.127239  0  1.047606  0  0  0.114676  0.120201  0  1.051856  0
H  H10  1  0.74177121  0.44071771  0.22476876  1  0  0.117731  0  0.927121  0  0  0.13009  0  0.979221  0  0  0.133357  0  0.976868  0  0  0.120846  0.127756  0  0.981121  0
H  H11  1  0.75827865  0.77524161  0.55931708  1  0  0.117734  0  0.927322  0  0  0.130097  0  0.979372  0  0  0.133356  0  0.977031  0  0  0.120934  0.127767  0  0.981265  0
H  H12  1  0.25822996  0.55927995  0.77519687  1  0  0.117581  0  0.927278  0  0  0.129958  0  0.979318  0  0  0.133221  0  0.976973  0  0  0.120833  0.12762  0  0.981224  0
H  H13  1  0.24177771  0.22479574  0.44076481  1  0  0.117719  0  0.927236  0  0  0.13007  0  0.979302  0  0  0.133335  0  0.97695  0  0  0.12083  0.127734  0  0.981209  0
Pb  Pb14  1  0.75047133  0.06341169  0.93682911  1  0  1.481303  0  1.281811  0  0  1.311905  0  1.664974  0  0  1.378526  0  1.614568  0  0  0.721421  1.263686  0  1.69919  0
Pb  Pb15  1  0.25027121  0.93678180  0.06320383  1  0  1.481718  0  1.280789  0  0  1.312354  0  1.663772  0  0  1.37901  0  1.613359  0  0  0.721767  1.264102  0  1.697994  0
C  C16  1  0.31593673  0.36639903  0.13696422  1  0  0.115735  0  3.743602  0  0  0.126225  0  3.984796  0  0  0.127357  0  4.002544  0  0  0.126391  0.124998  0  3.973322  0
C  C17  1  0.18406857  0.86302459  0.63358754  1  0  0.11564  0  3.743947  0  0  0.126775  0  3.984346  0  0  0.127911  0  4.002098  0  0  0.12645  0.125538  0  3.972876  0
C  C18  1  0.68406603  0.63353179  0.86296918  1  0  0.115472  0  3.74293  0  0  0.126252  0  3.983802  0  0  0.127381  0  4.001561  0  0  0.126529  0.125029  0  3.972325  0
C  C19  1  0.81597654  0.13701678  0.36648560  1  0  0.115562  0  3.743426  0  0  0.126468  0  3.984251  0  0  0.127611  0  4.001991  0  0  0.126477  0.125241  0  3.972779  0
C  C20  1  0.60692909  0.57523879  0.17226842  1  0  -0.093685  0  3.651699  0  0  -0.118279  0  3.901067  0  0  -0.121959  0  3.921017  0  0  -0.061183  -0.115487  0  3.887262  0
C  C21  1  0.89307250  0.82774481  0.42475503  1  0  -0.093937  0  3.652783  0  0  -0.118658  0  3.902061  0  0  -0.122344  0  3.922007  0  0  -0.061179  -0.115852  0  3.888252  0
C  C22  1  0.39301747  0.42474568  0.82769785  1  0  -0.094149  0  3.652387  0  0  -0.118711  0  3.901575  0  0  -0.122413  0  3.921561  0  0  -0.061229  -0.115891  0  3.887748  0
C  C23  1  0.10697180  0.17228440  0.57530782  1  0  -0.093676  0  3.652427  0  0  -0.118227  0  3.901581  0  0  -0.121927  0  3.921551  0  0  -0.06097  -0.115434  0  3.887773  0
C  C24  1  0.47097046  0.34772867  0.18102313  1  0  -0.080564  0  3.643924  0  0  -0.103042  0  3.884108  0  0  -0.105755  0  3.901873  0  0  -0.060574  -0.101273  0  3.8722  0
C  C25  1  0.02906701  0.81897347  0.65227587  1  0  -0.080665  0  3.643547  0  0  -0.103317  0  3.883539  0  0  -0.106065  0  3.901309  0  0  -0.06068  -0.10154  0  3.871638  0
C  C26  1  0.52903446  0.65221734  0.81891478  1  0  -0.080177  0  3.643013  0  0  -0.102898  0  3.883125  0  0  -0.105637  0  3.900873  0  0  -0.060647  -0.101131  0  3.871228  0
C  C27  1  0.97098829  0.18108512  0.34780123  1  0  -0.080392  0  3.643795  0  0  -0.103173  0  3.88375  0  0  -0.105879  0  3.90156  0  0  -0.060536  -0.101406  0  3.871852  0
C  C28  1  0.61899598  0.45329552  0.19674307  1  0  0.007755  0  3.655362  0  0  -0.009319  0  3.905567  0  0  -0.008075  0  3.923033  0  0  -0.050423  -0.009984  0  3.893579  0
C  C29  1  0.88100837  0.80325866  0.54669548  1  0  0.007695  0  3.655312  0  0  -0.009364  0  3.905574  0  0  -0.008115  0  3.923037  0  0  -0.05056  -0.010037  0  3.893593  0
C  C30  1  0.38099187  0.54668592  0.80321330  1  0  0.007815  0  3.656086  0  0  -0.009217  0  3.90624  0  0  -0.007969  0  3.92372  0  0  -0.050467  -0.009887  0  3.894251  0
C  C31  1  0.11903888  0.19677967  0.45336935  1  0  0.007765  0  3.655296  0  0  -0.009238  0  3.905413  0  0  -0.007986  0  3.922863  0  0  -0.050438  -0.009906  0  3.893432  0
C  C32  1  0.14980030  0.25692727  0.10881052  1  0  0.646794  0  3.910143  0  0  0.598304  0  4.204198  0  0  0.635168  0  4.193534  0  0  0.231579  0.573239  0  4.210485  0
C  C33  1  0.35022407  0.89111639  0.74305629  1  0  0.646972  0  3.910538  0  0  0.598141  0  4.204991  0  0  0.635007  0  4.19432  0  0  0.231435  0.573079  0  4.211296  0
C  C34  1  0.85021973  0.74299743  0.89108982  1  0  0.647293  0  3.909959  0  0  0.598689  0  4.204168  0  0  0.635558  0  4.1935  0  0  0.231781  0.573618  0  4.210474  0
C  C35  1  0.64983365  0.10885107  0.25698262  1  0  0.647063  0  3.90937  0  0  0.598122  0  4.204052  0  0  0.634975  0  4.193413  0  0  0.231728  0.573063  0  4.210336  0
C  C36  1  0.44737033  0.58758488  0.13563318  1  0  0.114899  0  3.747306  0  0  0.123855  0  3.990795  0  0  0.125242  0  4.009311  0  0  0.1267  0.122741  0  3.978175  0
C  C37  1  0.05260660  0.86441335  0.41239599  1  0  0.114734  0  3.746888  0  0  0.124086  0  3.990157  0  0  0.125492  0  4.008642  0  0  0.126586  0.122965  0  3.977539  0
C  C38  1  0.55255623  0.41237123  0.86432424  1  0  0.115348  0  3.74686  0  0  0.124457  0  3.990078  0  0  0.125853  0  4.00859  0  0  0.126839  0.123343  0  3.977448  0
C  C39  1  0.94745098  0.13566343  0.58767016  1  0  0.114613  0  3.747199  0  0  0.123944  0  3.99027  0  0  0.125344  0  4.008767  0  0  0.126384  0.122835  0  3.97765  0
C  C40  1  0.42166302  0.71645954  0.11632520  1  0  0.623685  0  3.913036  0  0  0.578858  0  4.2078  0  0  0.614177  0  4.199481  0  0  0.22902  0.555097  0  4.212268  0
C  C41  1  0.07823590  0.88372331  0.28348151  1  0  0.624473  0  3.911595  0  0  0.579053  0  4.207293  0  0  0.614384  0  4.198933  0  0  0.229023  0.555293  0  4.211771  0
C  C42  1  0.57811106  0.28346107  0.88363468  1  0  0.623122  0  3.913486  0  0  0.578092  0  4.208581  0  0  0.613432  0  4.200245  0  0  0.228424  0.554325  0  4.213047  0
C  C43  1  0.92181151  0.11639391  0.71657280  1  0  0.624056  0  3.912622  0  0  0.578813  0  4.207869  0  0  0.614156  0  4.199523  0  0  0.229204  0.555048  0  4.212339  0
N  N44  1  0.30376724  0.48416633  0.11514894  1  0  -0.372961  0  3.259367  0  0  -0.352547  0  3.529519  0  0  -0.371457  0  3.555353  0  0  -0.334773  -0.339646  0  3.512301  0
N  N45  1  0.19622898  0.88488053  0.51582834  1  0  -0.373348  0  3.259694  0  0  -0.353173  0  3.529553  0  0  -0.372095  0  3.555383  0  0  -0.335026  -0.340269  0  3.512336  0
N  N46  1  0.69618590  0.51575436  0.88479422  1  0  -0.373216  0  3.259614  0  0  -0.352928  0  3.529669  0  0  -0.371853  0  3.555496  0  0  -0.334979  -0.340022  0  3.512453  0
N  N47  1  0.80381073  0.11518816  0.48424539  1  0  -0.372682  0  3.258928  0  0  -0.352454  0  3.528781  0  0  -0.371367  0  3.554603  0  0  -0.334581  -0.339561  0  3.511569  0
O  O48  1  0.01867760  0.29214906  0.06805695  1  0  -0.702929  0  2.149994  0  0  -0.661794  0  2.420302  0  0  -0.699798  0  2.416541  0  0  -0.339802  -0.634015  0  2.420543  0
O  O49  1  0.48136098  0.93199263  0.70790285  1  0  -0.702571  0  2.149123  0  0  -0.661619  0  2.419761  0  0  -0.699645  0  2.41609  0  0  -0.339746  -0.633814  0  2.419884  0
O  O50  1  0.98137281  0.70783951  0.93190458  1  0  -0.702718  0  2.149379  0  0  -0.661596  0  2.419632  0  0  -0.699592  0  2.41589  0  0  -0.339851  -0.633813  0  2.419822  0
O  O51  1  0.51867928  0.06809321  0.29214254  1  0  -0.702858  0  2.149728  0  0  -0.661593  0  2.420097  0  0  -0.699581  0  2.416345  0  0  -0.339804  -0.633817  0  2.420293  0
O  O52  1  0.26151788  0.70421242  0.07506753  1  0  -0.697421  0  2.126563  0  0  -0.654475  0  2.397459  0  0  -0.693663  0  2.393946  0  0  -0.338309  -0.626837  0  2.398453  0
O  O53  1  0.23837809  0.92495361  0.29569067  1  0  -0.697808  0  2.125601  0  0  -0.654695  0  2.396684  0  0  -0.693929  0  2.393263  0  0  -0.338343  -0.62706  0  2.397671  0
O  O54  1  0.73825690  0.29565971  0.92493535  1  0  -0.697466  0  2.126532  0  0  -0.654309  0  2.397159  0  0  -0.693498  0  2.393608  0  0  -0.337897  -0.626717  0  2.398276  0
O  O55  1  0.76166807  0.07514027  0.70432084  1  0  -0.697382  0  2.126478  0  0  -0.654218  0  2.397377  0  0  -0.693394  0  2.393851  0  0  -0.338088  -0.626592  0  2.398372  0
O  O56  1  0.97734376  0.55360981  0.15889112  1  0  -0.682438  0  1.546253  0  0  -0.688351  0  1.833693  0  0  -0.709368  0  1.820043  0  0  -0.761363  -0.67617  0  1.843613  0
O  O57  1  0.52249929  0.84108572  0.44636035  1  0  -0.682147  0  1.546106  0  0  -0.688177  0  1.833514  0  0  -0.709187  0  1.819873  0  0  -0.761144  -0.676012  0  1.843418  0
O  O58  1  0.02241188  0.44626307  0.84097351  1  0  -0.682293  0  1.545839  0  0  -0.688256  0  1.833247  0  0  -0.709271  0  1.819589  0  0  -0.761298  -0.676072  0  1.843158  0
O  O59  1  0.47747846  0.15899004  0.55372997  1  0  -0.682264  0  1.545786  0  0  -0.688309  0  1.833242  0  0  -0.709331  0  1.819602  0  0  -0.761232  -0.676135  0  1.843152  0
O  O60  1  0.14006121  0.14208380  0.12601755  1  0  -0.631772  0  2.007846  0  0  -0.577909  0  2.24672  0  0  -0.607612  0  2.239989  0  0  -0.277874  -0.556857  0  2.250174  0
O  O61  1  0.35984827  0.87369583  0.85782762  1  0  -0.631906  0  2.008416  0  0  -0.578081  0  2.247579  0  0  -0.607784  0  2.240837  0  0  -0.278061  -0.557047  0  2.25105  0
O  O62  1  0.85988211  0.85780326  0.87378863  1  0  -0.632288  0  2.00789  0  0  -0.578553  0  2.24704  0  0  -0.608261  0  2.240299  0  0  -0.278317  -0.557512  0  2.250513  0
O  O63  1  0.64016779  0.12606003  0.14214090  1  0  -0.632113  0  2.007247  0  0  -0.578216  0  2.246428  0  0  -0.607925  0  2.239706  0  0  -0.278268  -0.557167  0  2.249879  0
O  O64  1  0.54199490  0.82341806  0.13953983  1  0  -0.547011  0  1.931408  0  0  -0.508132  0  2.155419  0  0  -0.532759  0  2.149664  0  0  -0.272123  -0.490563  0  2.158369  0
O  O65  1  0.95781638  0.86050755  0.17656810  1  0  -0.547199  0  1.930267  0  0  -0.508295  0  2.154605  0  0  -0.532926  0  2.148898  0  0  -0.272439  -0.490744  0  2.157551  0
O  O66  1  0.45765857  0.17657425  0.86038725  1  0  -0.546783  0  1.930886  0  0  -0.507819  0  2.15473  0  0  -0.532421  0  2.148964  0  0  -0.272188  -0.490275  0  2.157678  0
O  O67  1  0.04217902  0.13964617  0.82354670  1  0  -0.547493  0  1.931264  0  0  -0.508392  0  2.155406  0  0  -0.533078  0  2.14971  0  0  -0.272385  -0.490819  0  2.158347  0
