# generated using pymatgen
data_NdH10(C3O2)4
_symmetry_space_group_name_H-M   'P 1'
_cell_length_a   13.33214361
_cell_length_b   13.63742154
_cell_length_c   18.05813490
_cell_angle_alpha   89.99999494
_cell_angle_beta   90.00011793
_cell_angle_gamma   91.63332597
_symmetry_Int_Tables_number   1
_chemical_formula_structural   NdH10(C3O2)4
_chemical_formula_sum   'Nd8 H80 C96 O64'
_cell_volume   3281.92501093
_cell_formula_units_Z   8
loop_
 _symmetry_equiv_pos_site_id
 _symmetry_equiv_pos_as_xyz
  1  'x, y, z'
loop_
 _atom_site_type_symbol
 _atom_site_label
 _atom_site_symmetry_multiplicity
 _atom_site_fract_x
 _atom_site_fract_y
 _atom_site_fract_z
 _atom_site_occupancy
 _atom_site_pbe_bader_charge
 _atom_site_pbe_bader_spin_density
 _atom_site_pbe_cm5_charge
 _atom_site_pbe_ddec_charge
 _atom_site_pbe_ddec_spin_density
 _atom_site_pbe_ddec_sum_bond_order
 _atom_site_pbe_magmom
Nd  Nd0  1  0.09335168  0.14609295  0.96746100  1  2.269091  0  1.494244  2.153821  0  2.102059  0
Nd  Nd1  1  0.40664851  0.35390803  0.46746109  1  2.26905  0  1.494215  2.153801  0  2.102083  0
Nd  Nd2  1  0.90665131  0.85390756  0.03253946  1  2.269122  0  1.494217  2.153835  0  2.101986  0
Nd  Nd3  1  0.59335150  0.64609322  0.53253826  1  2.269065  0  1.494221  2.15377  0  2.102119  0
Nd  Nd4  1  0.34876031  0.40131695  0.01255581  1  2.276424  0  1.493547  2.165159  0  2.085183  0
Nd  Nd5  1  0.15124009  0.09868331  0.51255526  1  2.276329  0  1.493521  2.165124  0  2.085203  0
Nd  Nd6  1  0.65123815  0.59868283  0.98744354  1  2.27639  0  1.493552  2.165131  0  2.085243  0
Nd  Nd7  1  0.84875767  0.90131795  0.48744409  1  2.276209  0  1.493525  2.165179  0  2.085101  0
H  H8  1  0.00283431  0.06562904  0.82077912  1  0.602517  0  0.331466  0.412022  0  0.876389  0
H  H9  1  0.49716465  0.43436975  0.32077878  1  0.602522  0  0.331461  0.412025  0  0.876385  0
H  H10  1  0.99717022  0.93437293  0.17922355  1  0.602444  0  0.331485  0.412044  0  0.876384  0
H  H11  1  0.50283534  0.56563077  0.67922112  1  0.602513  0  0.331432  0.411994  0  0.876434  0
H  H12  1  0.02609915  0.97034271  0.86659668  1  0.663504  0  0.301326  0.409661  0  0.922053  0
H  H13  1  0.47390109  0.52965613  0.36659579  1  0.663599  0  0.301307  0.409633  0  0.922085  0
H  H14  1  0.97390459  0.02965779  0.13340433  1  0.663565  0  0.30133  0.409695  0  0.922014  0
H  H15  1  0.52609962  0.47034365  0.63340356  1  0.663597  0  0.301297  0.40964  0  0.922085  0
H  H16  1  0.31338294  0.16639129  0.90896675  1  0.656976  0  0.301514  0.403789  0  0.934096  0
H  H17  1  0.18661779  0.33360822  0.40896595  1  0.656982  0  0.301527  0.403826  0  0.934043  0
H  H18  1  0.68661852  0.83360849  0.09103481  1  0.656996  0  0.301532  0.403787  0  0.934084  0
H  H19  1  0.81338295  0.66639229  0.59103395  1  0.656973  0  0.301528  0.403811  0  0.934061  0
H  H20  1  0.26838509  0.07763267  0.85915648  1  0.609399  0  0.332727  0.418935  0  0.866233  0
H  H21  1  0.23161480  0.42236831  0.35915741  1  0.609404  0  0.332724  0.418962  0  0.866192  0
H  H22  1  0.73161574  0.92237078  0.14084120  1  0.609377  0  0.332721  0.418965  0  0.866178  0
H  H23  1  0.76838455  0.57763587  0.64084582  1  0.609405  0  0.33272  0.41898  0  0.866166  0
H  H24  1  0.16816234  0.46792050  0.12166162  1  0.600889  0  0.330711  0.411817  0  0.873314  0
H  H25  1  0.33183846  0.03208269  0.62166467  1  0.600864  0  0.330751  0.411902  0  0.87319  0
H  H26  1  0.83183905  0.53207708  0.87833883  1  0.600881  0  0.330696  0.411775  0  0.873381  0
H  H27  1  0.66816366  0.96791415  0.37833301  1  0.600871  0  0.330751  0.41189  0  0.873208  0
H  H28  1  0.12838919  0.38187796  0.06914454  1  0.652623  0  0.300729  0.405596  0  0.929956  0
H  H29  1  0.37161142  0.11812376  0.56914654  1  0.652619  0  0.300739  0.405576  0  0.929972  0
H  H30  1  0.87161002  0.61812182  0.93085425  1  0.652631  0  0.300746  0.405621  0  0.929924  0
H  H31  1  0.62838784  0.88187749  0.43085447  1  0.652615  0  0.30073  0.405583  0  0.929971  0
H  H32  1  0.35513038  0.51820465  0.17171234  1  0.612983  0  0.333368  0.415863  0  0.865711  0
H  H33  1  0.14486924  0.98179200  0.67171230  1  0.612639  0  0.333384  0.415851  0  0.865719  0
H  H34  1  0.64487024  0.48179220  0.82828756  1  0.612623  0  0.333382  0.415858  0  0.865711  0
H  H35  1  0.85512932  0.01821072  0.32828815  1  0.612596  0  0.333376  0.415855  0  0.865712  0
H  H36  1  0.45740562  0.53956591  0.12878882  1  0.645425  0  0.301505  0.409824  0  0.922896  0
H  H37  1  0.04259473  0.96043367  0.62878863  1  0.645413  0  0.301498  0.409791  0  0.922941  0
H  H38  1  0.54259502  0.46043167  0.87121052  1  0.645371  0  0.30148  0.409784  0  0.922952  0
H  H39  1  0.95740526  0.03956684  0.37121127  1  0.645415  0  0.30148  0.409748  0  0.922996  0
H  H40  1  0.05877359  0.14065644  0.24059465  1  0.080703  0  0.106439  0.109954  0  1.025642  0
H  H41  1  0.44122437  0.35934162  0.74059619  1  0.080726  0  0.106454  0.110013  0  1.02564  0
H  H42  1  0.94122562  0.85934334  0.75940525  1  0.080693  0  0.106451  0.110005  0  1.025695  0
H  H43  1  0.55877332  0.64065744  0.25940482  1  0.080723  0  0.106456  0.109978  0  1.025628  0
H  H44  1  0.99096880  0.38406256  0.38182146  1  0.095903  0  0.104572  0.10512  0  1.018899  0
H  H45  1  0.50902692  0.11593303  0.88182124  1  0.095882  0  0.104564  0.105123  0  1.018971  0
H  H46  1  0.00903121  0.61593869  0.61817734  1  0.095891  0  0.10459  0.105164  0  1.018908  0
H  H47  1  0.49096995  0.88406382  0.11817811  1  0.095895  0  0.104593  0.105158  0  1.018908  0
H  H48  1  0.94321985  0.48268296  0.27099547  1  0.08733  0  0.101681  0.103446  0  1.021546  0
H  H49  1  0.55677790  0.01731556  0.77099533  1  0.087322  0  0.101684  0.103421  0  1.02152  0
H  H50  1  0.05678086  0.51731682  0.72900277  1  0.087325  0  0.101671  0.10343  0  1.021532  0
H  H51  1  0.44322131  0.98268422  0.22900347  1  0.08732  0  0.101672  0.103447  0  1.021508  0
H  H52  1  0.96057583  0.41098936  0.14454222  1  0.096733  0  0.114521  0.120632  0  0.979265  0
H  H53  1  0.53942617  0.08901208  0.64454261  1  0.096746  0  0.114495  0.120593  0  0.979324  0
H  H54  1  0.03942486  0.58900968  0.85545602  1  0.096753  0  0.114534  0.120608  0  0.979317  0
H  H55  1  0.46057614  0.91099063  0.35545729  1  0.096732  0  0.114538  0.12061  0  0.979314  0
H  H56  1  0.14372028  0.25881051  0.73939761  1  0.117529  0  0.113526  0.123493  0  0.997222  0
H  H57  1  0.35627993  0.24118754  0.23939874  1  0.117478  0  0.113521  0.123486  0  0.997191  0
H  H58  1  0.85627743  0.74118928  0.26059952  1  0.117527  0  0.11351  0.123498  0  0.997201  0
H  H59  1  0.64372146  0.75881004  0.76060338  1  0.117549  0  0.113529  0.123518  0  0.997148  0
H  H60  1  0.30148125  0.48601441  0.61830991  1  0.139076  0  0.108423  0.106282  0  1.051734  0
H  H61  1  0.19852085  0.01398290  0.11831026  1  0.139238  0  0.108442  0.106266  0  1.051746  0
H  H62  1  0.69852096  0.51398536  0.38169054  1  0.139097  0  0.108437  0.106288  0  1.051719  0
H  H63  1  0.80148139  0.98601761  0.88168908  1  0.139106  0  0.108427  0.106248  0  1.051805  0
H  H64  1  0.31771842  0.58622773  0.73413861  1  0.083416  0  0.104755  0.103513  0  0.985625  0
H  H65  1  0.18228290  0.91376965  0.23413835  1  0.083367  0  0.104725  0.103451  0  0.985679  0
H  H66  1  0.68228220  0.41376912  0.26586406  1  0.083358  0  0.104738  0.103459  0  0.985708  0
H  H67  1  0.81771784  0.08623086  0.76586100  1  0.083373  0  0.104723  0.103457  0  0.985638  0
H  H68  1  0.25772928  0.51538144  0.85433370  1  0.126272  0  0.112377  0.113295  0  1.028899  0
H  H69  1  0.24227015  0.98461667  0.35433353  1  0.126254  0  0.112358  0.113255  0  1.028932  0
H  H70  1  0.74226829  0.48461395  0.14566786  1  0.126413  0  0.112357  0.113227  0  1.028958  0
H  H71  1  0.75772977  0.01538164  0.64566637  1  0.126245  0  0.112368  0.113275  0  1.028909  0
H  H72  1  0.78954677  0.29008172  0.99407778  1  0.131223  0  0.116291  0.130136  0  0.987917  0
H  H73  1  0.71045477  0.20992192  0.49407481  1  0.131302  0  0.116315  0.130209  0  0.987854  0
H  H74  1  0.21045711  0.70992318  0.00592710  1  0.131276  0  0.116315  0.130204  0  0.987878  0
H  H75  1  0.28954226  0.79008007  0.50592121  1  0.131314  0  0.116307  0.130143  0  0.987921  0
H  H76  1  0.69360047  0.98755130  0.01526176  1  0.092626  0  0.10776  0.103303  0  1.053101  0
H  H77  1  0.80639863  0.51245242  0.51526200  1  0.092538  0  0.107715  0.103204  0  1.053198  0
H  H78  1  0.30640404  0.01244993  0.98473925  1  0.092748  0  0.107727  0.10325  0  1.053144  0
H  H79  1  0.19359990  0.48754957  0.48473845  1  0.092569  0  0.107719  0.103231  0  1.05315  0
H  H80  1  0.52520346  0.03976475  0.05917428  1  0.072104  0  0.097374  0.095912  0  1.018935  0
H  H81  1  0.97479619  0.46024111  0.55917475  1  0.072078  0  0.097402  0.095945  0  1.018886  0
H  H82  1  0.47480028  0.96023576  0.94082672  1  0.072073  0  0.097383  0.095875  0  1.018933  0
H  H83  1  0.02520232  0.53976014  0.44082570  1  0.072051  0  0.097386  0.095885  0  1.0189  0
H  H84  1  0.49036914  0.21781093  0.06998655  1  0.14928  0  0.109861  0.109306  0  1.046625  0
H  H85  1  0.00963382  0.28219372  0.56998688  1  0.149304  0  0.109888  0.109356  0  1.046555  0
H  H86  1  0.50963460  0.78218957  0.93001224  1  0.149258  0  0.109889  0.109355  0  1.046582  0
H  H87  1  0.99036540  0.71780607  0.43001136  1  0.149226  0  0.109873  0.109356  0  1.046647  0
C  C88  1  0.02577020  0.22982043  0.10949194  1  1.524175  0  0.210331  0.587517  0  4.194941  0
C  C89  1  0.47422975  0.27018056  0.60949297  1  1.524681  0  0.210379  0.58762  0  4.194875  0
C  C90  1  0.97423052  0.77017935  0.89050796  1  1.524222  0  0.210373  0.587563  0  4.194958  0
C  C91  1  0.52577028  0.72982142  0.39050748  1  1.524159  0  0.210341  0.587521  0  4.19498  0
C  C92  1  0.01030385  0.27150483  0.18482252  1  -0.054002  0  -0.015423  -0.033834  0  3.976964  0
C  C93  1  0.48969479  0.22849543  0.68482247  1  -0.053945  0  -0.015434  -0.033849  0  3.976831  0
C  C94  1  0.98969612  0.72849495  0.81517683  1  -0.053929  0  -0.01539  -0.033779  0  3.976811  0
C  C95  1  0.51030522  0.77150582  0.31517743  1  -0.053985  0  -0.01541  -0.033783  0  3.977095  0
C  C96  1  0.03257151  0.21517985  0.24716785  1  0.042772  0  -0.073244  -0.099121  0  3.909875  0
C  C97  1  0.46742652  0.28481967  0.74716998  1  0.042793  0  -0.073247  -0.09915  0  3.909939  0
C  C98  1  0.96742698  0.78482067  0.75283095  1  0.042779  0  -0.073231  -0.099113  0  3.909921  0
C  C99  1  0.53257269  0.71518011  0.25283158  1  0.042772  0  -0.073229  -0.09907  0  3.909869  0
C  C100  1  0.02783418  0.25684171  0.31776871  1  -0.048982  0  -0.017797  -0.037973  0  3.983163  0
C  C101  1  0.47216173  0.24315562  0.81776919  1  -0.049025  0  -0.017796  -0.038104  0  3.98349  0
C  C102  1  0.97216426  0.74315734  0.68223175  1  -0.049035  0  -0.017833  -0.038155  0  3.983358  0
C  C103  1  0.52783517  0.75684197  0.18223182  1  -0.048994  0  -0.017831  -0.03812  0  3.983267  0
C  C104  1  0.99595518  0.35348601  0.32620719  1  -0.083045  0  -0.078323  -0.085418  0  3.948269  0
C  C105  1  0.50404045  0.14651178  0.82620697  1  -0.082705  0  -0.078356  -0.085489  0  3.948416  0
C  C106  1  0.00404333  0.64651524  0.67379216  1  -0.082673  0  -0.078337  -0.085458  0  3.94829  0
C  C107  1  0.49595724  0.85348727  0.17379294  1  -0.082677  0  -0.07837  -0.085488  0  3.948348  0
C  C108  1  0.97008543  0.40845253  0.26429158  1  -0.086307  0  -0.090266  -0.08959  0  4.018513  0
C  C109  1  0.52991080  0.09154599  0.76429085  1  -0.086656  0  -0.09017  -0.089384  0  4.018199  0
C  C110  1  0.02991380  0.59154798  0.73570666  1  -0.086634  0  -0.09018  -0.089435  0  4.018338  0
C  C111  1  0.47008764  0.90845306  0.23570795  1  -0.086692  0  -0.090189  -0.089486  0  4.018351  0
C  C112  1  0.97905010  0.36827936  0.19352847  1  0.013773  0  -0.075636  -0.089248  0  3.945528  0
C  C113  1  0.52094894  0.13171916  0.69352772  1  0.013759  0  -0.075731  -0.089356  0  3.945485  0
C  C114  1  0.02094979  0.63171822  0.80647032  1  0.013695  0  -0.075762  -0.089368  0  3.945633  0
C  C115  1  0.47905253  0.86828061  0.30647163  1  0.013787  0  -0.07573  -0.089324  0  3.945597  0
C  C116  1  0.06368303  0.20148435  0.38334251  1  1.51344  0  0.211071  0.580803  0  4.200107  0
C  C117  1  0.43631531  0.29851297  0.88334404  1  1.513372  0  0.211234  0.581099  0  4.200084  0
C  C118  1  0.93631543  0.79851544  0.61665684  1  1.513479  0  0.211186  0.581016  0  4.199877  0
C  C119  1  0.56368311  0.70148535  0.11665642  1  1.513459  0  0.211121  0.580897  0  4.20003  0
C  C120  1  0.16298369  0.33602930  0.87509159  1  1.585193  0  0.229992  0.644369  0  4.173954  0
C  C121  1  0.33701542  0.16396948  0.37509214  1  1.585057  0  0.229961  0.644267  0  4.174103  0
C  C122  1  0.83701390  0.66396682  0.12490609  1  1.585081  0  0.229907  0.644211  0  4.174221  0
C  C123  1  0.66298377  0.83602957  0.62490887  1  1.585176  0  0.230049  0.644478  0  4.173884  0
C  C124  1  0.19620737  0.38314494  0.80404441  1  -0.06687  0  -0.014747  -0.049221  0  3.966908  0
C  C125  1  0.30379305  0.11685384  0.30404547  1  -0.066869  0  -0.014684  -0.04913  0  3.966888  0
C  C126  1  0.80379100  0.61685191  0.19595438  1  -0.066861  0  -0.014697  -0.049208  0  3.967178  0
C  C127  1  0.69620764  0.88314521  0.69595554  1  -0.066862  0  -0.014753  -0.049275  0  3.966946  0
C  C128  1  0.18231500  0.33025191  0.73832278  1  -0.021026  0  -0.070721  -0.09621  0  3.917245  0
C  C129  1  0.31768749  0.16974686  0.23832385  1  -0.021029  0  -0.070689  -0.096151  0  3.917145  0
C  C130  1  0.81768494  0.66974713  0.26167546  1  -0.021076  0  -0.07074  -0.096206  0  3.91726  0
C  C131  1  0.68231548  0.83025291  0.76167771  1  -0.021115  0  -0.070673  -0.096182  0  3.917182  0
C  C132  1  0.22185844  0.36662181  0.67174284  1  -0.035425  0  -0.020549  -0.054863  0  3.975655  0
C  C133  1  0.27814303  0.13337477  0.17174330  1  -0.035293  0  -0.02057  -0.054955  0  3.97566  0
C  C134  1  0.77814227  0.63337797  0.32825651  1  -0.035314  0  -0.020543  -0.054907  0  3.975622  0
C  C135  1  0.72185916  0.86662427  0.82825771  1  -0.035346  0  -0.020565  -0.054882  0  3.975728  0
C  C136  1  0.27094241  0.45896039  0.67051628  1  -0.050122  0  -0.078499  -0.087364  0  3.96036  0
C  C137  1  0.22905981  0.04103619  0.17051668  1  -0.050342  0  -0.078538  -0.087305  0  3.960333  0
C  C138  1  0.72905976  0.54103791  0.32948362  1  -0.050176  0  -0.078507  -0.087323  0  3.960303  0
C  C139  1  0.77094238  0.95896285  0.82948323  1  -0.050227  0  -0.078501  -0.087351  0  3.96043  0
C  C140  1  0.28149052  0.51344639  0.73560773  1  -0.133129  0  -0.091481  -0.097018  0  4.019772  0
C  C141  1  0.21851003  0.98655026  0.23560863  1  -0.132873  0  -0.091449  -0.096997  0  4.019759  0
C  C142  1  0.71851010  0.48655046  0.26439273  1  -0.132865  0  -0.091508  -0.09707  0  4.019868  0
C  C143  1  0.78149064  0.01344805  0.76439127  1  -0.132848  0  -0.091426  -0.09692  0  4.01978  0
C  C144  1  0.24648678  0.47491954  0.80277355  1  -0.032143  0  -0.069131  -0.073498  0  3.942347  0
C  C145  1  0.25351283  0.02507778  0.30277454  1  -0.032412  0  -0.069138  -0.073485  0  3.942259  0
C  C146  1  0.75351231  0.52507658  0.19722635  1  -0.032585  0  -0.069078  -0.073328  0  3.942358  0
C  C147  1  0.74648709  0.97492053  0.69722536  1  -0.032384  0  -0.069152  -0.073505  0  3.942343  0
C  C148  1  0.21580958  0.30420522  0.60362008  1  1.581059  0  0.232389  0.645448  0  4.165623  0
C  C149  1  0.28419250  0.19579282  0.10362055  1  1.581069  0  0.232318  0.645376  0  4.165543  0
C  C150  1  0.78419040  0.69579529  0.39637761  1  1.581021  0  0.232305  0.645379  0  4.165866  0
C  C151  1  0.71581126  0.80420841  0.89637991  1  1.580815  0  0.23224  0.645301  0  4.165534  0
C  C152  1  0.61470898  0.37136841  0.03247059  1  1.567627  0  0.229901  0.639186  0  4.179379  0
C  C153  1  0.88529278  0.12863524  0.53247039  1  1.567917  0  0.229848  0.639085  0  4.179615  0
C  C154  1  0.38529178  0.62863284  0.96753042  1  1.567643  0  0.229945  0.639221  0  4.179321  0
C  C155  1  0.11470273  0.87136602  0.46752896  1  1.568722  0  0.229844  0.639142  0  4.179449  0
C  C156  1  0.63706197  0.26464650  0.03156354  1  -0.05619  0  -0.017107  -0.050358  0  3.968513  0
C  C157  1  0.86293826  0.23535642  0.53156330  1  -0.056231  0  -0.017109  -0.050364  0  3.968625  0
C  C158  1  0.36294106  0.73535547  0.96843858  1  -0.047565  0  -0.017097  -0.050231  0  3.968542  0
C  C159  1  0.13705875  0.76464484  0.46843605  1  -0.056554  0  -0.017113  -0.050338  0  3.96866  0
C  C160  1  0.73170485  0.23525114  0.00836132  1  -0.043781  0  -0.067962  -0.087499  0  3.896301  0
C  C161  1  0.76829762  0.26475324  0.50835983  1  -0.043487  0  -0.067926  -0.087501  0  3.89633  0
C  C162  1  0.26829969  0.76475083  0.99164301  1  -0.043975  0  -0.067995  -0.087577  0  3.896281  0
C  C163  1  0.23170094  0.73524948  0.49163841  1  -0.04376  0  -0.067941  -0.087458  0  3.896453  0
C  C164  1  0.67720562  0.06495342  0.02095783  1  -0.093236  0  -0.081052  -0.094311  0  3.969115  0
C  C165  1  0.82279387  0.43505097  0.52095696  1  -0.093326  0  -0.081009  -0.094215  0  3.969165  0
C  C166  1  0.32280050  0.93505148  0.97904484  1  -0.093475  0  -0.080955  -0.09416  0  3.968843  0
C  C167  1  0.17720386  0.56494955  0.47904239  1  -0.093653  0  -0.081007  -0.094196  0  3.96892  0
C  C168  1  0.58335500  0.09449392  0.04511141  1  -0.068015  0  -0.098712  -0.103793  0  4.029048  0
C  C169  1  0.91664309  0.40551120  0.54511124  1  -0.068001  0  -0.098727  -0.10381  0  4.02911  0
C  C170  1  0.41664728  0.90550805  0.95489070  1  -0.068065  0  -0.098648  -0.103615  0  4.028995  0
C  C171  1  0.08335320  0.59449079  0.45488810  1  -0.067569  0  -0.098683  -0.103662  0  4.028901  0
C  C172  1  0.56317920  0.19401173  0.05089549  1  -0.051301  0  -0.071864  -0.065177  0  3.93487  0
C  C173  1  0.93681885  0.30599193  0.55089591  1  -0.051443  0  -0.071932  -0.065261  0  3.934851  0
C  C174  1  0.43682226  0.80598805  0.94910496  1  -0.059952  0  -0.07195  -0.065404  0  3.93494  0
C  C175  1  0.06317511  0.69400787  0.44910344  1  -0.051405  0  -0.071971  -0.065403  0  3.93506  0
C  C176  1  0.75223974  0.13549459  0.00358953  1  0.02058  0  -0.018459  -0.045642  0  3.971006  0
C  C177  1  0.74776119  0.36450906  0.50358800  1  0.020569  0  -0.018536  -0.04573  0  3.971069  0
C  C178  1  0.24776407  0.86450812  0.99641535  1  0.020883  0  -0.018563  -0.045853  0  3.970822  0
C  C179  1  0.25223735  0.63549292  0.49641079  1  0.020606  0  -0.018433  -0.045671  0  3.971003  0
C  C180  1  0.85530742  0.10528815  0.98282640  1  1.56911  0  0.224919  0.634554  0  4.194116  0
C  C181  1  0.64469249  0.39471256  0.48282443  1  1.569047  0  0.224949  0.634509  0  4.194219  0
C  C182  1  0.14469559  0.89471309  0.01717627  1  1.569423  0  0.224832  0.634461  0  4.194259  0
C  C183  1  0.35530525  0.60528796  0.51717381  1  1.569347  0  0.224822  0.634441  0  4.194306  0
O  O184  1  0.01897188  0.13719327  0.09897424  1  -1.179856  0  -0.348569  -0.629081  0  2.300569  0
O  O185  1  0.48102806  0.36280846  0.59897583  1  -1.179909  0  -0.348604  -0.62913  0  2.300468  0
O  O186  1  0.98102961  0.86280724  0.90102511  1  -1.179834  0  -0.348595  -0.629112  0  2.30053  0
O  O187  1  0.51897272  0.63719352  0.40102518  1  -1.179821  0  -0.348561  -0.629067  0  2.300516  0
O  O188  1  0.04982034  0.28740917  0.05600747  1  -1.17725  0  -0.343067  -0.61488  0  2.239278  0
O  O189  1  0.45017946  0.21259182  0.55600848  1  -1.177727  0  -0.343047  -0.614865  0  2.239222  0
O  O190  1  0.95018035  0.71258987  0.94399243  1  -1.177243  0  -0.343071  -0.614895  0  2.239272  0
O  O191  1  0.54982057  0.78741016  0.44399253  1  -1.177265  0  -0.34308  -0.614887  0  2.239277  0
O  O192  1  0.05968501  0.10779403  0.38474299  1  -1.154236  0  -0.340593  -0.623209  0  2.28093  0
O  O193  1  0.44031336  0.39220402  0.88474396  1  -1.154163  0  -0.340628  -0.623321  0  2.281023  0
O  O194  1  0.94031423  0.89220649  0.61525691  1  -1.154232  0  -0.340646  -0.623287  0  2.280926  0
O  O195  1  0.55968356  0.60779430  0.11525539  1  -1.154267  0  -0.340602  -0.623231  0  2.280932  0
O  O196  1  0.10205984  0.25034567  0.43743672  1  -1.185994  0  -0.347628  -0.624081  0  2.300386  0
O  O197  1  0.39794020  0.24965311  0.93743874  1  -1.186019  0  -0.347737  -0.624189  0  2.300488  0
O  O198  1  0.89793940  0.74965484  0.56256263  1  -1.186025  0  -0.347694  -0.624171  0  2.300334  0
O  O199  1  0.60205974  0.75034594  0.06256226  1  -1.186034  0  -0.347663  -0.624099  0  2.300396  0
O  O200  1  0.09078481  0.27317280  0.87326965  1  -1.178821  0  -0.397874  -0.64567  0  2.185522  0
O  O201  1  0.40921205  0.22682599  0.37327086  1  -1.178728  0  -0.397855  -0.645654  0  2.185625  0
O  O202  1  0.90921274  0.72682185  0.12672693  1  -1.178649  0  -0.397798  -0.645582  0  2.185629  0
O  O203  1  0.59078487  0.77317234  0.62673126  1  -1.178797  0  -0.397879  -0.645707  0  2.185451  0
O  O204  1  0.21155072  0.35752029  0.93415587  1  -1.217779  0  -0.408262  -0.697443  0  2.316723  0
O  O205  1  0.28844856  0.14247849  0.43415690  1  -1.217722  0  -0.40829  -0.697393  0  2.316708  0
O  O206  1  0.78844535  0.64247510  0.06584293  1  -1.217837  0  -0.408264  -0.697392  0  2.316772  0
O  O207  1  0.71154838  0.85752057  0.56584466  1  -1.217691  0  -0.408314  -0.697514  0  2.316747  0
O  O208  1  0.16181511  0.22579887  0.60624877  1  -1.204951  0  -0.395768  -0.664759  0  2.270781  0
O  O209  1  0.33818550  0.27419991  0.10624876  1  -1.204919  0  -0.395728  -0.664698  0  2.270742  0
O  O210  1  0.83818410  0.77420091  0.39374947  1  -1.204958  0  -0.395724  -0.664733  0  2.270828  0
O  O211  1  0.66181528  0.72580206  0.89375280  1  -1.204805  0  -0.395769  -0.664739  0  2.270701  0
O  O212  1  0.26553755  0.33126189  0.54661755  1  -1.222871  0  -0.411992  -0.703147  0  2.366469  0
O  O213  1  0.23446205  0.16873397  0.04661850  1  -1.222863  0  -0.411963  -0.703104  0  2.366387  0
O  O214  1  0.73446163  0.66873716  0.45338069  1  -1.222807  0  -0.411967  -0.703094  0  2.366519  0
O  O215  1  0.76554021  0.83126727  0.95338251  1  -1.22275  0  -0.411843  -0.702997  0  2.366296  0
O  O216  1  0.52350375  0.39694760  0.03580973  1  -1.211526  0  -0.41263  -0.706871  0  2.348641  0
O  O217  1  0.97649884  0.10305825  0.53581023  1  -1.211571  0  -0.41258  -0.70681  0  2.348653  0
O  O218  1  0.47649617  0.60305072  0.96418851  1  -1.211571  0  -0.412634  -0.70687  0  2.348646  0
O  O219  1  0.02349745  0.89694374  0.46418967  1  -1.21168  0  -0.412626  -0.706866  0  2.348663  0
O  O220  1  0.68782376  0.43320247  0.02784059  1  -1.199954  0  -0.393283  -0.65946  0  2.245425  0
O  O221  1  0.81217948  0.06680118  0.52784029  1  -1.200181  0  -0.393239  -0.659388  0  2.245543  0
O  O222  1  0.31217627  0.56679951  0.97216152  1  -1.199898  0  -0.393276  -0.659459  0  2.245368  0
O  O223  1  0.18781753  0.93320008  0.47215961  1  -1.200448  0  -0.393189  -0.659374  0  2.245417  0
O  O224  1  0.91390391  0.16738178  0.95129605  1  -1.187336  0  -0.3934  -0.652786  0  2.221193  0
O  O225  1  0.58609666  0.33261893  0.45129732  1  -1.187335  0  -0.393382  -0.652719  0  2.221321  0
O  O226  1  0.08609910  0.83261946  0.04870440  1  -1.187623  0  -0.393352  -0.652699  0  2.22128  0
O  O227  1  0.41390335  0.66738232  0.54870258  1  -1.187551  0  -0.393376  -0.65273  0  2.221258  0
O  O228  1  0.88133225  0.01836747  0.99894381  1  -1.232573  0  -0.422562  -0.728471  0  2.390755  0
O  O229  1  0.61866545  0.48163324  0.49894179  1  -1.232518  0  -0.422572  -0.728452  0  2.390768  0
O  O230  1  0.11866921  0.98163230  0.00105664  1  -1.232394  0  -0.4225  -0.728413  0  2.390733  0
O  O231  1  0.38133081  0.51836802  0.50105755  1  -1.232355  0  -0.422508  -0.728447  0  2.390905  0
O  O232  1  0.05230835  0.03775733  0.85365630  1  -1.250212  0  -0.614826  -0.831418  0  1.966771  0
O  O233  1  0.44769150  0.46224292  0.35365590  1  -1.250263  0  -0.614801  -0.831387  0  1.966827  0
O  O234  1  0.94769763  0.96224317  0.14634470  1  -1.250162  0  -0.614856  -0.831491  0  1.966683  0
O  O235  1  0.55230854  0.53775906  0.64634345  1  -1.25024  0  -0.614774  -0.831369  0  1.96685  0
O  O236  1  0.25066048  0.13136490  0.89123065  1  -1.258455  0  -0.627206  -0.849986  0  2.076622  0
O  O237  1  0.24933945  0.36863462  0.39123050  1  -1.258465  0  -0.627215  -0.850058  0  2.076553  0
O  O238  1  0.74934099  0.86863488  0.10877036  1  -1.258446  0  -0.627223  -0.850027  0  2.076573  0
O  O239  1  0.75066053  0.63136590  0.60876885  1  -1.258446  0  -0.627208  -0.850035  0  2.076533  0
O  O240  1  0.18450357  0.43153043  0.07741288  1  -1.246388  0  -0.62579  -0.845253  0  2.016493  0
O  O241  1  0.31549781  0.06847129  0.57741535  1  -1.246374  0  -0.62583  -0.845314  0  2.016379  0
O  O242  1  0.81549566  0.56847008  0.92258591  1  -1.246392  0  -0.625785  -0.845228  0  2.016552  0
O  O243  1  0.68450145  0.93152996  0.42258621  1  -1.246384  0  -0.625833  -0.845317  0  2.016397  0
O  O244  1  0.39265269  0.50009005  0.12810100  1  -1.248047  0  -0.622885  -0.846105  0  1.996955  0
O  O245  1  0.10734689  0.99990880  0.62810201  1  -1.247657  0  -0.622893  -0.846065  0  1.996994  0
O  O246  1  0.60734725  0.49990900  0.87189724  1  -1.247612  0  -0.622887  -0.846066  0  1.99698  0
O  O247  1  0.89265233  0.00009098  0.37189734  1  -1.247573  0  -0.62286  -0.846024  0  1.997046  0
