# generated using pymatgen
data_Al2H15C30(NO6)3
_symmetry_space_group_name_H-M   'P 1'
_cell_length_a   4.09066773
_cell_length_b   17.16998571
_cell_length_c   17.17007939
_cell_angle_alpha   120.00014638
_cell_angle_beta   89.99878250
_cell_angle_gamma   90.00302051
_symmetry_Int_Tables_number   1
_chemical_formula_structural   Al2H15C30(NO6)3
_chemical_formula_sum   'Al2 H15 C30 N3 O18'
_cell_volume   1044.39896403
_cell_formula_units_Z   1
loop_
 _symmetry_equiv_pos_site_id
 _symmetry_equiv_pos_as_xyz
  1  'x, y, z'
loop_
 _atom_site_type_symbol
 _atom_site_label
 _atom_site_symmetry_multiplicity
 _atom_site_fract_x
 _atom_site_fract_y
 _atom_site_fract_z
 _atom_site_occupancy
 _atom_site_pbe_bader_charge
 _atom_site_pbe_bader_spin_density
 _atom_site_pbe_cm5_charge
 _atom_site_pbe_ddec_charge
 _atom_site_pbe_ddec_spin_density
 _atom_site_pbe_ddec_sum_bond_order
 _atom_site_pbe_magmom
Al  Al0  1  0.07271012  0.50000211  0.49999178  1  2.509521  0  0.435172  1.622663  0  2.545021  0
Al  Al1  1  0.99116759  0.16666884  0.83333306  1  2.51007  0  0.437362  1.608063  0  2.564046  0
H  H2  1  0.78840004  0.40300216  0.82774158  1  0.119236  0  0.121929  0.137736  0  0.98889  0
H  H3  1  0.94922802  0.17482791  0.57397761  1  0.060328  0  0.098614  0.111666  0  1.00983  0
H  H4  1  0.33043755  0.12042545  0.52947370  1  0.032457  0  0.104742  0.118091  0  0.970842  0
H  H5  1  0.39952969  0.20858325  0.44934181  1  0.085997  0  0.10566  0.12519  0  0.970627  0
H  H6  1  0.01240600  0.26003914  0.48969203  1  0.095138  0  0.100405  0.120428  0  1.013059  0
H  H7  1  0.78839535  0.92476698  0.59701299  1  0.125678  0  0.121938  0.137743  0  0.988902  0
H  H8  1  0.94938340  0.89911057  0.82517483  1  0.06054  0  0.098609  0.11169  0  1.009795  0
H  H9  1  0.33058340  0.90901423  0.87957260  1  0.079678  0  0.104835  0.118051  0  0.971092  0
H  H10  1  0.39969955  0.74072337  0.79140918  1  0.080066  0  0.105491  0.12511  0  0.970483  0
H  H11  1  0.01254127  0.72962261  0.73994691  1  0.10524  0  0.100436  0.120455  0  1.013123  0
H  H12  1  0.78827542  0.17225163  0.07524712  1  0.164505  0  0.122049  0.13783  0  0.98876  0
H  H13  1  0.94943677  0.42606371  0.10085869  1  0.059299  0  0.098488  0.111578  0  1.009787  0
H  H14  1  0.33068238  0.47055611  0.09096293  1  0.049652  0  0.104947  0.118286  0  0.970775  0
H  H15  1  0.39975810  0.55068433  0.25925416  1  0.073784  0  0.105569  0.125162  0  0.970413  0
H  H16  1  0.01255732  0.51032354  0.27034672  1  0.092028  0  0.100384  0.120431  0  1.013308  0
C  C17  1  0.57151075  0.41809953  0.36448428  1  1.661366  0  0.28209  0.67636  0  4.099538  0
C  C18  1  0.57151181  0.44638866  0.58189250  1  1.670589  0  0.281963  0.676061  0  4.100165  0
C  C19  1  0.57155298  0.63550806  0.55360836  1  1.618767  0  0.281973  0.676013  0  4.099994  0
C  C20  1  0.49369231  0.24166577  0.77163885  1  1.578691  0  0.278274  0.669242  0  4.062839  0
C  C21  1  0.49368715  0.02996820  0.75834051  1  1.574126  0  0.278308  0.669294  0  4.062448  0
C  C22  1  0.49368481  0.22836808  0.97002572  1  1.620183  0  0.27819  0.66916  0  4.062508  0
C  C23  1  0.50977798  0.29295674  0.72333050  1  0.017403  0  -0.005162  -0.079091  0  3.96498  0
C  C24  1  0.55095502  0.39638499  0.63265027  1  -0.042766  0  0.013654  -0.089096  0  3.904142  0
C  C25  1  0.37569270  0.26283303  0.63821408  1  0.021688  0  0.008588  0.073396  0  3.871051  0
C  C26  1  0.68430685  0.42621345  0.71882722  1  0.27301  0  0.078814  0.033647  0  3.929859  0
C  C27  1  0.40383469  0.31207626  0.59369260  1  -0.030824  0  -0.002427  0.053115  0  3.873013  0
C  C28  1  0.67213530  0.37605206  0.76227980  1  0.032074  0  -0.064435  -0.12271  0  3.938063  0
C  C29  1  0.20191655  0.18524400  0.55972253  1  0.006804  0  -0.14669  -0.200329  0  3.851717  0
C  C30  1  0.23976933  0.24000504  0.50865602  1  -0.062561  0  -0.14781  -0.199606  0  3.819045  0
C  C31  1  0.50984013  0.93036400  0.70704873  1  0.052224  0  -0.005219  -0.078924  0  3.964904  0
C  C32  1  0.55100272  0.73626811  0.60362075  1  0.028079  0  0.013686  -0.088817  0  3.90441  0
C  C33  1  0.37579122  0.87536789  0.73717089  1  -0.014609  0  0.008453  0.073097  0  3.870937  0
C  C34  1  0.68434528  0.79262393  0.57379642  1  0.243823  0  0.078691  0.033499  0  3.929849  0
C  C35  1  0.40391798  0.78160022  0.68792742  1  -0.020506  0  -0.002374  0.053118  0  3.873191  0
C  C36  1  0.67218162  0.88623790  0.62395201  1  0.017076  0  -0.064416  -0.122826  0  3.938006  0
C  C37  1  0.20205087  0.87444737  0.81476062  1  -0.055741  0  -0.146812  -0.200319  0  3.851539  0
C  C38  1  0.23990848  0.76861733  0.75999423  1  -0.035394  0  -0.147509  -0.199385  0  3.81838  0
C  C39  1  0.50980183  0.27668226  0.06962455  1  -0.014714  0  -0.005099  -0.078963  0  3.964937  0
C  C40  1  0.55096772  0.36735552  0.26373157  1  0.009792  0  0.013673  -0.088916  0  3.903858  0
C  C41  1  0.37578653  0.36180341  0.12462257  1  0.05889  0  0.008505  0.073222  0  3.871187  0
C  C42  1  0.68427159  0.28117188  0.20737786  1  0.291368  0  0.078658  0.033466  0  3.929639  0
C  C43  1  0.40390008  0.40632717  0.21838767  1  -0.089912  0  -0.002333  0.0531  0  3.87266  0
C  C44  1  0.67209198  0.23772283  0.11376939  1  -0.088315  0  -0.064586  -0.122884  0  3.937832  0
C  C45  1  0.20210694  0.44031030  0.12552890  1  0.003635  0  -0.146872  -0.200503  0  3.851543  0
C  C46  1  0.23994036  0.49137548  0.23136067  1  -0.043577  0  -0.147593  -0.199463  0  3.818714  0
N  N47  1  0.84791353  0.51434638  0.76625666  1  0.379278  0  0.058904  0.514356  0  4.205813  0
N  N48  1  0.84794143  0.75191830  0.48566135  1  0.386519  0  0.059009  0.514491  0  4.205699  0
N  N49  1  0.84779304  0.23373190  0.24808127  1  0.374698  0  0.058739  0.51448  0  4.205772  0
O  O50  1  0.81168295  0.60291679  0.57474979  1  -1.250435  0  -0.223456  -0.579887  0  2.384235  0
O  O51  1  0.81165687  0.47183926  0.39707267  1  -1.243822  0  -0.22361  -0.580141  0  2.383982  0
O  O52  1  0.81162911  0.42523591  0.52814799  1  -1.251144  0  -0.223494  -0.579952  0  2.38427  0
O  O53  1  0.33718294  0.59221382  0.50158924  1  -1.247914  0  -0.231572  -0.595861  0  2.410163  0
O  O54  1  0.33716900  0.49839799  0.59060501  1  -1.247742  0  -0.231569  -0.595766  0  2.410287  0
O  O55  1  0.33713790  0.40938104  0.40777963  1  -1.246472  0  -0.23164  -0.595915  0  2.410024  0
O  O56  1  0.72175582  0.17218776  0.92731658  1  -1.256569  0  -0.240014  -0.604677  0  2.353027  0
O  O57  1  0.72178370  0.25513658  0.82781313  1  -1.257868  0  -0.24005  -0.604785  0  2.353003  0
O  O58  1  0.72173824  0.07268592  0.74487004  1  -1.260488  0  -0.24011  -0.604857  0  2.353206  0
O  O59  1  0.25263476  0.24680267  0.93481847  1  -1.2487  0  -0.232226  -0.59155  0  2.342238  0
O  O60  1  0.25259843  0.06516596  0.81197370  1  -1.250784  0  -0.232363  -0.59163  0  2.342222  0
O  O61  1  0.25262887  0.18802704  0.75320216  1  -1.251824  0  -0.232348  -0.591559  0  2.342746  0
O  O62  1  0.81311918  0.56477121  0.73447151  1  -0.445319  0  -0.10679  -0.305903  0  1.977096  0
O  O63  1  0.01036233  0.53306416  0.83442219  1  -0.455133  0  -0.14163  -0.341028  0  1.890446  0
O  O64  1  0.81314823  0.66970401  0.43523567  1  -0.447161  0  -0.106714  -0.305817  0  1.977003  0
O  O65  1  0.01039483  0.80137554  0.46695408  1  -0.461853  0  -0.141716  -0.341167  0  1.890582  0
O  O66  1  0.81305289  0.26552931  0.33029734  1  -0.440357  0  -0.106703  -0.305913  0  1.977267  0
O  O67  1  0.01010794  0.16554207  0.19861869  1  -0.4608  0  -0.141462  -0.341048  0  1.890081  0
