# generated using pymatgen
data_ErH6C8NO8
_symmetry_space_group_name_H-M   'P 1'
_cell_length_a   7.64583501
_cell_length_b   7.68755832
_cell_length_c   9.79318627
_cell_angle_alpha   111.13812609
_cell_angle_beta   97.87960533
_cell_angle_gamma   91.69413851
_symmetry_Int_Tables_number   1
_chemical_formula_structural   ErH6C8NO8
_chemical_formula_sum   'Er2 H12 C16 N2 O16'
_cell_volume   529.87357650
_cell_formula_units_Z   2
loop_
 _symmetry_equiv_pos_site_id
 _symmetry_equiv_pos_as_xyz
  1  'x, y, z'
loop_
 _atom_site_type_symbol
 _atom_site_label
 _atom_site_symmetry_multiplicity
 _atom_site_fract_x
 _atom_site_fract_y
 _atom_site_fract_z
 _atom_site_occupancy
 _atom_site_hle17_bader_spin_density
 _atom_site_hle17_ddec_charge
 _atom_site_hle17_ddec_spin_density
 _atom_site_hle17_ddec_sum_bond_order
 _atom_site_hle17_magmom
 _atom_site_hse06_10hf_bader_spin_density
 _atom_site_hse06_10hf_ddec_charge
 _atom_site_hse06_10hf_ddec_spin_density
 _atom_site_hse06_10hf_ddec_sum_bond_order
 _atom_site_hse06_10hf_magmom
 _atom_site_hse06_bader_spin_density
 _atom_site_hse06_ddec_charge
 _atom_site_hse06_ddec_spin_density
 _atom_site_hse06_ddec_sum_bond_order
 _atom_site_hse06_magmom
 _atom_site_pbe_bader_spin_density
 _atom_site_pbe_cm5_charge
 _atom_site_pbe_ddec_charge
 _atom_site_pbe_ddec_spin_density
 _atom_site_pbe_ddec_sum_bond_order
 _atom_site_pbe_magmom
Er  Er0  1  0.35874833  0.53293479  0.69997771  1  0  2.232835  0  1.650733  0  0  2.0806  0  2.139327  0  0  2.220674  0  1.928093  0  0  1.48831  2.043562  0  2.170188  0
Er  Er1  1  0.64125516  0.46706653  0.30002295  1  0  2.232854  0  1.650651  0  0  2.080651  0  2.139175  0  0  2.220692  0  1.928006  0  0  1.48824  2.04361  0  2.170029  0
H  H2  1  0.58209008  0.94229313  0.89627709  1  0  0.140245  0  0.947776  0  0  0.14538  0  1.014466  0  0  0.150525  0  1.00928  0  0  0.121387  0.141438  0  1.018565  0
H  H3  1  0.41791703  0.05771639  0.10373246  1  0  0.140272  0  0.947671  0  0  0.145405  0  1.014355  0  0  0.150555  0  1.009158  0  0  0.121416  0.14146  0  1.018455  0
H  H4  1  0.02649349  0.36374911  0.09403929  1  0  0.127768  0  0.927254  0  0  0.134934  0  0.989885  0  0  0.139199  0  0.986226  0  0  0.133284  0.131932  0  0.992297  0
H  H5  1  0.97350571  0.63626079  0.90596445  1  0  0.127755  0  0.927323  0  0  0.134923  0  0.989948  0  0  0.139151  0  0.986334  0  0  0.133297  0.131938  0  0.992344  0
H  H6  1  0.98684624  0.02057562  0.64964341  1  0  0.11633  0  0.907281  0  0  0.125462  0  0.966827  0  0  0.129412  0  0.96225  0  0  0.136649  0.122347  0  0.970445  0
H  H7  1  0.01315902  0.97944107  0.35036294  1  0  0.116286  0  0.907326  0  0  0.125443  0  0.966862  0  0  0.129389  0  0.962291  0  0  0.136659  0.122354  0  0.970442  0
H  H8  1  0.12415959  0.26412672  0.86502656  1  0  0.309598  0  0.908605  0  0  0.287008  0  0.971336  0  0  0.297443  0  0.962595  0  0  0.317295  0.279874  0  0.977188  0
H  H9  1  0.87583792  0.73588057  0.13496706  1  0  0.309641  0  0.9085  0  0  0.287039  0  0.971245  0  0  0.297478  0  0.962501  0  0  0.317322  0.279908  0  0.977095  0
H  H10  1  0.53851490  0.19699372  0.62420562  1  0  0.423384  0  0.831516  0  0  0.407771  0  0.882772  0  0  0.415853  0  0.87528  0  0  0.319323  0.402245  0  0.888776  0
H  H11  1  0.46147855  0.80300103  0.37578698  1  0  0.423366  0  0.831552  0  0  0.407763  0  0.882793  0  0  0.415845  0  0.875298  0  0  0.319306  0.402235  0  0.888799  0
H  H12  1  0.67862180  0.34273243  0.61187219  1  0  0.442304  0  0.856134  0  0  0.410311  0  0.920806  0  0  0.422809  0  0.902765  0  0  0.297044  0.401616  0  0.933571  0
H  H13  1  0.32137647  0.65725782  0.38812674  1  0  0.442325  0  0.856087  0  0  0.41032  0  0.920785  0  0  0.422822  0  0.902738  0  0  0.297043  0.401626  0  0.933548  0
C  C14  1  0.68218242  0.79897871  0.62336300  1  0  0.706059  0  3.892328  0  0  0.660799  0  4.177899  0  0  0.696863  0  4.172612  0  0  0.228442  0.636878  0  4.184335  0
C  C15  1  0.31781348  0.20102575  0.37663472  1  0  0.705967  0  3.892212  0  0  0.660705  0  4.177804  0  0  0.696776  0  4.17251  0  0  0.228459  0.636785  0  4.184239  0
C  C16  1  0.77159774  0.95993509  0.75732924  1  0  -0.097306  0  3.765962  0  0  -0.073309  0  4.01055  0  0  -0.082857  0  4.029838  0  0  -0.010876  -0.066812  0  3.995561  0
C  C17  1  0.22840310  0.04006639  0.24266710  1  0  -0.097331  0  3.766062  0  0  -0.073387  0  4.010717  0  0  -0.082938  0  4.030006  0  0  -0.010918  -0.066894  0  3.995737  0
C  C18  1  0.70370028  0.01447554  0.89010203  1  0  -0.111585  0  3.567337  0  0  -0.151473  0  3.818514  0  0  -0.148583  0  3.829956  0  0  -0.06312  -0.15237  0  3.809489  0
C  C19  1  0.29630848  0.98552555  0.10990114  1  0  -0.111517  0  3.567291  0  0  -0.1514  0  3.818376  0  0  -0.148515  0  3.829825  0  0  -0.063064  -0.152295  0  3.809355  0
C  C20  1  0.79127088  0.16169662  0.01931887  1  0  0.346872  0  3.932692  0  0  0.344698  0  4.195951  0  0  0.354486  0  4.219037  0  0  0.097612  0.337331  0  4.183237  0
C  C21  1  0.20873425  0.83830744  0.98068276  1  0  0.346691  0  3.933012  0  0  0.344629  0  4.196078  0  0  0.354426  0  4.219145  0  0  0.097562  0.337258  0  4.183375  0
C  C22  1  0.94811078  0.24990026  0.00255239  1  0  0.004786  0  3.524969  0  0  -0.047847  0  3.790461  0  0  -0.043921  0  3.804351  0  0  0.050625  -0.049983  0  3.78086  0
C  C23  1  0.05189616  0.75010789  0.99745470  1  0  0.004822  0  3.525159  0  0  -0.047836  0  3.790587  0  0  -0.043869  0  3.804481  0  0  0.050629  -0.049984  0  3.780969  0
C  C24  1  0.92641542  0.05401343  0.74912229  1  0  0.114578  0  3.588508  0  0  0.054567  0  3.855293  0  0  0.065634  0  3.86467  0  0  0.05678  0.047923  0  3.848153  0
C  C25  1  0.07358541  0.94599921  0.25088242  1  0  0.114599  0  3.588575  0  0  0.054543  0  3.855409  0  0  0.065616  0  3.864781  0  0  0.056712  0.047884  0  3.848254  0
C  C26  1  0.95518858  0.45569477  0.54747181  1  0  0.572445  0  3.904556  0  0  0.527492  0  4.200497  0  0  0.557529  0  4.198843  0  0  0.21885  0.506859  0  4.206346  0
C  C27  1  0.04481183  0.54430234  0.45253445  1  0  0.572233  0  3.905203  0  0  0.527373  0  4.201023  0  0  0.557417  0  4.199365  0  0  0.218786  0.506743  0  4.206867  0
C  C28  1  0.42176573  0.42682637  0.98670848  1  0  0.565903  0  3.904172  0  0  0.521216  0  4.200913  0  0  0.551023  0  4.199683  0  0  0.2208  0.500843  0  4.20686  0
C  C29  1  0.57821939  0.57315322  0.01328087  1  0  0.565703  0  3.90422  0  0  0.521105  0  4.200851  0  0  0.550916  0  4.19962  0  0  0.220687  0.500731  0  4.206797  0
N  N30  1  0.00707949  0.19389943  0.87129291  1  0  -0.176285  0  3.522601  0  0  -0.103865  0  3.759587  0  0  -0.116563  0  3.773401  0  0  -0.337066  -0.09529  0  3.749276  0
N  N31  1  0.99292301  0.80610473  0.12870949  1  0  -0.176276  0  3.522643  0  0  -0.103824  0  3.759606  0  0  -0.116532  0  3.773413  0  0  -0.337059  -0.095257  0  3.749311  0
O  O32  1  0.55807349  0.69732728  0.63886274  1  0  -0.762266  0  2.118972  0  0  -0.709039  0  2.387332  0  0  -0.751096  0  2.372296  0  0  -0.413445  -0.691652  0  2.396298  0
O  O33  1  0.44193643  0.30266123  0.36112974  1  0  -0.762286  0  2.118899  0  0  -0.709028  0  2.387186  0  0  -0.751078  0  2.372148  0  0  -0.413427  -0.691636  0  2.396145  0
O  O34  1  0.73567437  0.76999626  0.50028057  1  0  -0.720977  0  1.997725  0  0  -0.671592  0  2.234255  0  0  -0.70668  0  2.221029  0  0  -0.365612  -0.654204  0  2.240876  0
O  O35  1  0.26431444  0.23001553  0.49971651  1  0  -0.720893  0  1.997777  0  0  -0.671512  0  2.234325  0  0  -0.706603  0  2.22108  0  0  -0.365619  -0.654129  0  2.240951  0
O  O36  1  0.73201164  0.21157824  0.14517016  1  0  -0.753082  0  2.084934  0  0  -0.704746  0  2.339657  0  0  -0.746851  0  2.333657  0  0  -0.462466  -0.684636  0  2.339572  0
O  O37  1  0.26798742  0.78841902  0.85482987  1  0  -0.752993  0  2.08499  0  0  -0.704694  0  2.339672  0  0  -0.746811  0  2.333659  0  0  -0.46245  -0.684587  0  2.339592  0
O  O38  1  0.04436988  0.45526387  0.66484018  1  0  -0.626628  0  2.060741  0  0  -0.585407  0  2.308669  0  0  -0.617507  0  2.297506  0  0  -0.348341  -0.569964  0  2.314274  0
O  O39  1  0.95564030  0.54472570  0.33517408  1  0  -0.626443  0  2.061316  0  0  -0.585256  0  2.309206  0  0  -0.617354  0  2.298049  0  0  -0.348195  -0.569816  0  2.314802  0
O  O40  1  0.79392934  0.39045191  0.49710562  1  0  -0.681473  0  2.114589  0  0  -0.623607  0  2.349797  0  0  -0.659499  0  2.337737  0  0  -0.355163  -0.605995  0  2.356426  0
O  O41  1  0.20607585  0.60955195  0.50290923  1  0  -0.681509  0  2.114595  0  0  -0.623638  0  2.349757  0  0  -0.659538  0  2.337686  0  0  -0.355215  -0.606025  0  2.356385  0
O  O42  1  0.31175410  0.38989170  0.86629242  1  0  -0.678782  0  2.077999  0  0  -0.623335  0  2.318563  0  0  -0.660035  0  2.305894  0  0  -0.374582  -0.605541  0  2.324133  0
O  O43  1  0.68823641  0.61007805  0.13368135  1  0  -0.678696  0  2.078238  0  0  -0.623299  0  2.318794  0  0  -0.65999  0  2.306129  0  0  -0.374494  -0.605505  0  2.324363  0
O  O44  1  0.41210710  0.35652264  0.08245235  1  0  -0.606776  0  2.080513  0  0  -0.560257  0  2.322556  0  0  -0.592238  0  2.313477  0  0  -0.3323  -0.54439  0  2.326727  0
O  O45  1  0.58788042  0.64347794  0.91754236  1  0  -0.606753  0  2.080277  0  0  -0.560262  0  2.322288  0  0  -0.59225  0  2.313209  0  0  -0.332321  -0.544398  0  2.326483  0
O  O46  1  0.59490602  0.32307708  0.67709721  1  0  -0.887877  0  1.8681  0  0  -0.845744  0  2.058859  0  0  -0.875597  0  2.028403  0  0  -0.623399  -0.831993  0  2.075865  0
O  O47  1  0.40508893  0.67691898  0.32289898  1  0  -0.887886  0  1.868093  0  0  -0.845777  0  2.058862  0  0  -0.875626  0  2.028405  0  0  -0.623387  -0.832021  0  2.075868  0
