# generated using pymatgen
data_ZnMo2H11C15N3O7
_symmetry_space_group_name_H-M   'P 1'
_cell_length_a   8.70052348
_cell_length_b   10.25030101
_cell_length_c   11.14186986
_cell_angle_alpha   91.66003596
_cell_angle_beta   110.77569608
_cell_angle_gamma   112.48740379
_symmetry_Int_Tables_number   1
_chemical_formula_structural   ZnMo2H11C15N3O7
_chemical_formula_sum   'Zn2 Mo4 H22 C30 N6 O14'
_cell_volume   842.67830480
_cell_formula_units_Z   2
loop_
 _symmetry_equiv_pos_site_id
 _symmetry_equiv_pos_as_xyz
  1  'x, y, z'
loop_
 _atom_site_type_symbol
 _atom_site_label
 _atom_site_symmetry_multiplicity
 _atom_site_fract_x
 _atom_site_fract_y
 _atom_site_fract_z
 _atom_site_occupancy
 _atom_site_hle17_bader_spin_density
 _atom_site_hle17_ddec_charge
 _atom_site_hle17_ddec_spin_density
 _atom_site_hle17_ddec_sum_bond_order
 _atom_site_hle17_magmom
 _atom_site_hse06_10hf_bader_spin_density
 _atom_site_hse06_10hf_ddec_charge
 _atom_site_hse06_10hf_ddec_spin_density
 _atom_site_hse06_10hf_ddec_sum_bond_order
 _atom_site_hse06_10hf_magmom
 _atom_site_hse06_bader_spin_density
 _atom_site_hse06_ddec_charge
 _atom_site_hse06_ddec_spin_density
 _atom_site_hse06_ddec_sum_bond_order
 _atom_site_hse06_magmom
 _atom_site_pbe_bader_spin_density
 _atom_site_pbe_cm5_charge
 _atom_site_pbe_ddec_charge
 _atom_site_pbe_ddec_spin_density
 _atom_site_pbe_ddec_sum_bond_order
 _atom_site_pbe_magmom
Zn  Zn0  1  0.06948043  0.27910552  0.18154042  1  0  1.055593  0  1.941395  0  0  0.879569  0  2.423297  0  0  0.927017  0  2.367881  0  0  0.688756  0.84711  0  2.46085  0
Zn  Zn1  1  0.93051889  0.72089522  0.81845926  1  0  1.055629  0  1.941386  0  0  0.879624  0  2.423274  0  0  0.927071  0  2.367858  0  0  0.688781  0.847172  0  2.460829  0
Mo  Mo2  1  0.09885089  0.62154365  0.14365728  1  0  2.177034  0  4.154133  0  0  2.158647  0  4.733855  0  0  2.261324  0  4.692915  0  0  1.500886  2.086705  0  4.765375  0
Mo  Mo3  1  0.90114909  0.37845601  0.85634345  1  0  2.177004  0  4.154056  0  0  2.158617  0  4.733773  0  0  2.261296  0  4.692832  0  0  1.50088  2.086675  0  4.765294  0
Mo  Mo4  1  0.95812719  0.90984111  0.11140672  1  0  2.193787  0  4.09311  0  0  2.180036  0  4.661212  0  0  2.28006  0  4.620833  0  0  1.510822  2.107763  0  4.695008  0
Mo  Mo5  1  0.04187279  0.09015856  0.88859491  1  0  2.193706  0  4.093276  0  0  2.179956  0  4.661395  0  0  2.279996  0  4.620994  0  0  1.510766  2.107683  0  4.695191  0
H  H6  1  0.36395304  0.43323724  0.06066395  1  0  0.083565  0  0.95563  0  0  0.092765  0  1.018429  0  0  0.095294  0  1.016168  0  0  0.11714  0.090846  0  1.020195  0
H  H7  1  0.63604818  0.56676242  0.93933533  1  0  0.083626  0  0.955571  0  0  0.092843  0  1.018342  0  0  0.095372  0  1.016083  0  0  0.11715  0.090921  0  1.020115  0
H  H8  1  0.70328875  0.53124204  0.13692992  1  0  0.105644  0  0.971379  0  0  0.114521  0  1.03327  0  0  0.117604  0  1.032149  0  0  0.10719  0.11217  0  1.034357  0
H  H9  1  0.29671132  0.46875548  0.86306898  1  0  0.10565  0  0.971377  0  0  0.114524  0  1.033272  0  0  0.117604  0  1.032154  0  0  0.107181  0.112174  0  1.034358  0
H  H10  1  0.88326151  0.51064156  0.36058570  1  0  0.105885  0  0.943269  0  0  0.118544  0  0.998593  0  0  0.121474  0  0.996606  0  0  0.107684  0.116491  0  1.000006  0
H  H11  1  0.11673913  0.48935703  0.63941519  1  0  0.10589  0  0.943273  0  0  0.118549  0  0.998598  0  0  0.121479  0  0.996611  0  0  0.107686  0.116496  0  1.00001  0
H  H12  1  0.72157751  0.40069928  0.50448095  1  0  0.127266  0  0.977865  0  0  0.138635  0  1.035783  0  0  0.142638  0  1.033288  0  0  0.106142  0.135766  0  1.037761  0
H  H13  1  0.27842057  0.59930146  0.49551929  1  0  0.127274  0  0.977861  0  0  0.138647  0  1.035773  0  0  0.142648  0  1.033281  0  0  0.106148  0.135777  0  1.037752  0
H  H14  1  0.56564467  0.29865859  0.60983729  1  0  0.114908  0  0.99398  0  0  0.120784  0  1.062027  0  0  0.124127  0  1.061034  0  0  0.106638  0.118438  0  1.062743  0
H  H15  1  0.43435587  0.70134216  0.39016184  1  0  0.114856  0  0.994002  0  0  0.120751  0  1.062029  0  0  0.124094  0  1.061038  0  0  0.106629  0.118405  0  1.062743  0
H  H16  1  0.35816611  0.19783403  0.72330195  1  0  0.12038  0  0.950935  0  0  0.130678  0  1.007489  0  0  0.133946  0  1.004775  0  0  0.109309  0.12807  0  1.010078  0
H  H17  1  0.64183454  0.80216456  0.27669803  1  0  0.120359  0  0.950943  0  0  0.130662  0  1.007501  0  0  0.13393  0  1.004788  0  0  0.1093  0.128055  0  1.010091  0
H  H18  1  0.02862958  0.13457987  0.60798525  1  0  0.1147  0  0.986664  0  0  0.12101  0  1.054534  0  0  0.124593  0  1.052997  0  0  0.107251  0.118801  0  1.055053  0
H  H19  1  0.97136917  0.86541979  0.39201514  1  0  0.114705  0  0.986692  0  0  0.121047  0  1.054517  0  0  0.124633  0  1.052968  0  0  0.107256  0.118834  0  1.055042  0
H  H20  1  0.75600008  0.09309042  0.49426373  1  0  0.119784  0  0.944431  0  0  0.131925  0  1.000097  0  0  0.135327  0  0.998706  0  0  0.111599  0.129448  0  1.001605  0
H  H21  1  0.24399934  0.90690817  0.50573682  1  0  0.11979  0  0.944453  0  0  0.131917  0  1.000134  0  0  0.135319  0  0.998742  0  0  0.111603  0.129441  0  1.001639  0
H  H22  1  0.43439044  0.01818925  0.33481544  1  0  0.104792  0  0.94214  0  0  0.11726  0  0.997913  0  0  0.120189  0  0.995751  0  0  0.108819  0.115171  0  0.999546  0
H  H23  1  0.56560840  0.98180827  0.66518402  1  0  0.104797  0  0.942151  0  0  0.117254  0  0.997933  0  0  0.120181  0  0.995777  0  0  0.108814  0.115166  0  0.999567  0
H  H24  1  0.37707387  0.05953211  0.10510380  1  0  0.097601  0  0.973502  0  0  0.097869  0  1.05171  0  0  0.100866  0  1.050529  0  0  0.104643  0.095849  0  1.052442  0
H  H25  1  0.62292554  0.94046648  0.89489495  1  0  0.097599  0  0.973502  0  0  0.097874  0  1.051699  0  0  0.100872  0  1.050517  0  0  0.104637  0.095854  0  1.05243  0
H  H26  1  0.64097502  0.18078655  0.04456249  1  0  0.0981  0  0.931367  0  0  0.107875  0  0.991376  0  0  0.110656  0  0.989092  0  0  0.119469  0.105839  0  0.992987  0
H  H27  1  0.35902562  0.81921204  0.95543750  1  0  0.098108  0  0.931363  0  0  0.107888  0  0.991369  0  0  0.110667  0  0.989087  0  0  0.119473  0.105853  0  0.992979  0
C  C28  1  0.44937311  0.42927706  0.15807882  1  0  0.145379  0  3.692037  0  0  0.113385  0  3.946739  0  0  0.119816  0  3.965215  0  0  0.056025  0.109229  0  3.934075  0
C  C29  1  0.55062687  0.57072260  0.84192012  1  0  0.145229  0  3.691932  0  0  0.113234  0  3.946633  0  0  0.119661  0  3.965108  0  0  0.055982  0.109077  0  3.933967  0
C  C30  1  0.63665373  0.48124980  0.20038981  1  0  -0.105491  0  3.6994  0  0  -0.116807  0  3.949266  0  0  -0.123997  0  3.971589  0  0  -0.074582  -0.111857  0  3.934193  0
C  C31  1  0.36334502  0.51874986  0.79960878  1  0  -0.105458  0  3.699373  0  0  -0.116773  0  3.949239  0  0  -0.123952  0  3.971563  0  0  -0.074591  -0.111823  0  3.93417  0
C  C32  1  0.73645467  0.47067177  0.32599390  1  0  0.000863  0  3.708656  0  0  -0.019429  0  3.961274  0  0  -0.016459  0  3.98087  0  0  -0.064961  -0.021462  0  3.948653  0
C  C33  1  0.26354531  0.52932790  0.67400593  1  0  0.000828  0  3.708719  0  0  -0.019462  0  3.961337  0  0  -0.016493  0  3.980932  0  0  -0.064975  -0.021495  0  3.948715  0
C  C34  1  0.64662644  0.41023158  0.40577491  1  0  -0.140524  0  3.683416  0  0  -0.159646  0  3.928919  0  0  -0.166704  0  3.950593  0  0  -0.079492  -0.155562  0  3.915914  0
C  C35  1  0.35337411  0.58976916  0.59422510  1  0  -0.140559  0  3.683428  0  0  -0.159678  0  3.92895  0  0  -0.166739  0  3.950623  0  0  -0.079509  -0.155595  0  3.915944  0
C  C36  1  0.45832707  0.36201195  0.35699037  1  0  0.168973  0  3.761924  0  0  0.166739  0  4.001532  0  0  0.172331  0  4.023091  0  0  0.119993  0.163263  0  3.987325  0
C  C37  1  0.54167281  0.63798987  0.64300950  1  0  0.169083  0  3.761799  0  0  0.166825  0  4.001453  0  0  0.17242  0  4.023013  0  0  0.12005  0.16335  0  3.987247  0
C  C38  1  0.35083847  0.29954564  0.43519923  1  0  0.200671  0  3.760542  0  0  0.194234  0  4.001804  0  0  0.201817  0  4.021189  0  0  0.127687  0.189214  0  3.988663  0
C  C39  1  0.64916132  0.70045832  0.56480246  1  0  0.200701  0  3.760412  0  0  0.194272  0  4.001685  0  0  0.201857  0  4.021067  0  0  0.127715  0.189253  0  3.988545  0
C  C40  1  0.42224065  0.27411361  0.56134254  1  0  -0.129998  0  3.649271  0  0  -0.148769  0  3.894841  0  0  -0.156115  0  3.915634  0  0  -0.074274  -0.143863  0  3.881324  0
C  C41  1  0.57776169  0.72588821  0.43865711  1  0  -0.129916  0  3.649297  0  0  -0.148682  0  3.894857  0  0  -0.15603  0  3.915649  0  0  -0.07425  -0.14378  0  3.881344  0
C  C42  1  0.30523413  0.21607787  0.62405751  1  0  0.0104  0  3.684917  0  0  -0.007255  0  3.933539  0  0  -0.003373  0  3.952006  0  0  -0.060284  -0.009987  0  3.922189  0
C  C43  1  0.69476699  0.78392395  0.37594269  1  0  0.010443  0  3.684834  0  0  -0.007241  0  3.933507  0  0  -0.003361  0  3.951981  0  0  -0.06026  -0.009974  0  3.922154  0
C  C44  1  0.12077694  0.18178691  0.56000766  1  0  -0.132387  0  3.657394  0  0  -0.153168  0  3.908191  0  0  -0.160726  0  3.929441  0  0  -0.072602  -0.148026  0  3.893667  0
C  C45  1  0.87922674  0.81821277  0.43999319  1  0  -0.132485  0  3.657456  0  0  -0.15329  0  3.908268  0  0  -0.160851  0  3.92952  0  0  -0.072657  -0.148145  0  3.893746  0
C  C46  1  0.05789965  0.20806889  0.43316765  1  0  0.200126  0  3.756231  0  0  0.194583  0  3.996554  0  0  0.202006  0  4.016292  0  0  0.130033  0.189686  0  3.982829  0
C  C47  1  0.94210203  0.79193400  0.56683364  1  0  0.20021  0  3.756303  0  0  0.194677  0  3.996608  0  0  0.202102  0  4.016345  0  0  0.130089  0.189783  0  3.982883  0
C  C48  1  0.86514457  0.17004105  0.35021070  1  0  0.169734  0  3.751923  0  0  0.164914  0  3.992325  0  0  0.170625  0  4.013709  0  0  0.120689  0.161407  0  3.977715  0
C  C49  1  0.13485541  0.82995861  0.64978914  1  0  0.169758  0  3.751917  0  0  0.164942  0  3.992303  0  0  0.170656  0  4.01369  0  0  0.120704  0.161435  0  3.977695  0
C  C50  1  0.72556646  0.10886350  0.39360408  1  0  -0.131419  0  3.681736  0  0  -0.146968  0  3.924004  0  0  -0.153836  0  3.945123  0  0  -0.072332  -0.143115  0  3.911143  0
C  C51  1  0.27443238  0.89113402  0.60639538  1  0  -0.131405  0  3.681743  0  0  -0.146942  0  3.92401  0  0  -0.153819  0  3.945131  0  0  -0.072328  -0.143093  0  3.91115  0
C  C52  1  0.54723612  0.06761741  0.30521469  1  0  0.008125  0  3.695657  0  0  -0.010255  0  3.942738  0  0  -0.007053  0  3.961304  0  0  -0.060081  -0.011692  0  3.930402  0
C  C53  1  0.45276386  0.93238225  0.69478425  1  0  0.008086  0  3.69568  0  0  -0.010282  0  3.942758  0  0  -0.007083  0  3.961324  0  0  -0.060095  -0.01172  0  3.930423  0
C  C54  1  0.51380186  0.09102812  0.17774276  1  0  -0.097188  0  3.696033  0  0  -0.110338  0  3.952263  0  0  -0.117333  0  3.974875  0  0  -0.074409  -0.105593  0  3.936524  0
C  C55  1  0.48619945  0.90896940  0.82225649  1  0  -0.097158  0  3.696027  0  0  -0.110322  0  3.952259  0  0  -0.117309  0  3.974869  0  0  -0.074393  -0.105573  0  3.936519  0
C  C56  1  0.66007439  0.15701387  0.14246519  1  0  0.152206  0  3.665732  0  0  0.121603  0  3.915327  0  0  0.128392  0  3.933225  0  0  0.060237  0.117462  0  3.90267  0
C  C57  1  0.33992503  0.84298473  0.85753356  1  0  0.152179  0  3.665742  0  0  0.121576  0  3.91534  0  0  0.128358  0  3.933242  0  0  0.060234  0.117432  0  3.902684  0
N  N58  1  0.36223681  0.37064718  0.23423730  1  0  -0.358322  0  3.247404  0  0  -0.291976  0  3.518688  0  0  -0.309955  0  3.53482  0  0  -0.315046  -0.279984  0  3.50774  0
N  N59  1  0.63776251  0.62935356  0.76576148  1  0  -0.358297  0  3.247313  0  0  -0.291962  0  3.518626  0  0  -0.309943  0  3.53476  0  0  -0.315024  -0.27997  0  3.507678  0
N  N60  1  0.17360846  0.26729794  0.37589426  1  0  -0.400091  0  3.340746  0  0  -0.329705  0  3.606519  0  0  -0.348694  0  3.620496  0  0  -0.331481  -0.317302  0  3.597459  0
N  N61  1  0.82639266  0.73270388  0.62410684  1  0  -0.400215  0  3.340653  0  0  -0.329846  0  3.606457  0  0  -0.348831  0  3.620424  0  0  -0.331551  -0.317445  0  3.597402  0
N  N62  1  0.83109976  0.19425305  0.22663344  1  0  -0.358038  0  3.257073  0  0  -0.28676  0  3.522176  0  0  -0.305086  0  3.538198  0  0  -0.316701  -0.274205  0  3.511127  0
N  N63  1  0.16890022  0.80574662  0.77336819  1  0  -0.358054  0  3.257073  0  0  -0.286775  0  3.522169  0  0  -0.305103  0  3.538193  0  0  -0.316721  -0.274221  0  3.511121  0
O  O64  1  0.30862823  0.71744464  0.14102951  1  0  -0.722106  0  1.41177  0  0  -0.712312  0  1.661834  0  0  -0.741752  0  1.652388  0  0  -0.531914  -0.691442  0  1.668557  0
O  O65  1  0.69137118  0.28255395  0.85897103  1  0  -0.722115  0  1.411732  0  0  -0.712312  0  1.661776  0  0  -0.74176  0  1.652346  0  0  -0.531909  -0.691442  0  1.668499  0
O  O66  1  0.13871875  0.63192217  0.30849159  1  0  -0.753545  0  1.446019  0  0  -0.742069  0  1.697607  0  0  -0.770521  0  1.685732  0  0  -0.541053  -0.721162  0  1.706304  0
O  O67  1  0.86127944  0.36807642  0.69150861  1  0  -0.753537  0  1.446022  0  0  -0.742054  0  1.697608  0  0  -0.770507  0  1.685733  0  0  -0.541064  -0.721147  0  1.706305  0
O  O68  1  0.94219877  0.71574336  0.09291673  1  0  -0.939073  0  1.794324  0  0  -0.923246  0  2.110389  0  0  -0.966182  0  2.098477  0  0  -0.605245  -0.892351  0  2.118322  0
O  O69  1  0.05780178  0.28425738  0.90708419  1  0  -0.939075  0  1.794346  0  0  -0.923247  0  2.110408  0  0  -0.966184  0  2.098492  0  0  -0.605236  -0.892352  0  2.118342  0
O  O70  1  0.01316690  0.42584658  0.08893048  1  0  -0.974273  0  1.834116  0  0  -0.933442  0  2.181207  0  0  -0.974742  0  2.160857  0  0  -0.594246  -0.904417  0  2.194783  0
O  O71  1  0.98683119  0.57415415  0.91107065  1  0  -0.974266  0  1.834064  0  0  -0.933446  0  2.181165  0  0  -0.974747  0  2.160814  0  0  -0.594284  -0.904436  0  2.194772  0
O  O72  1  0.99392894  0.89937604  0.93996666  1  0  -1.012997  0  1.851093  0  0  -0.975565  0  2.200433  0  0  -1.017046  0  2.181011  0  0  -0.606033  -0.945572  0  2.213305  0
O  O73  1  0.00607104  0.10062362  0.06003407  1  0  -1.012952  0  1.851116  0  0  -0.975512  0  2.20045  0  0  -1.016995  0  2.181032  0  0  -0.606015  -0.945518  0  2.213318  0
O  O74  1  0.74830064  0.87027320  0.11252634  1  0  -0.691386  0  1.407709  0  0  -0.674572  0  1.644369  0  0  -0.7006  0  1.635027  0  0  -0.517869  -0.65619  0  1.651705  0
O  O75  1  0.25169811  0.12972647  0.88747405  1  0  -0.691348  0  1.4077  0  0  -0.674568  0  1.644387  0  0  -0.700598  0  1.63504  0  0  -0.51787  -0.656182  0  1.651719  0
O  O76  1  0.12134115  0.97298361  0.26943984  1  0  -0.728684  0  1.441463  0  0  -0.723309  0  1.699168  0  0  -0.749933  0  1.689111  0  0  -0.528391  -0.704953  0  1.707156  0
O  O77  1  0.87865883  0.02701605  0.73056268  1  0  -0.728664  0  1.441514  0  0  -0.723276  0  1.699221  0  0  -0.749909  0  1.689167  0  0  -0.528362  -0.70492  0  1.707207  0
