# generated using pymatgen
data_Hf3H23C33N3O16
_symmetry_space_group_name_H-M   'P 1'
_cell_length_a   14.01272047
_cell_length_b   14.02449408
_cell_length_c   14.11188577
_cell_angle_alpha   87.99867475
_cell_angle_beta   86.02224395
_cell_angle_gamma   89.12596003
_symmetry_Int_Tables_number   1
_chemical_formula_structural   Hf3H23C33N3O16
_chemical_formula_sum   'Hf6 H46 C66 N6 O32'
_cell_volume   2764.68907121
_cell_formula_units_Z   2
loop_
 _symmetry_equiv_pos_site_id
 _symmetry_equiv_pos_as_xyz
  1  'x, y, z'
loop_
 _atom_site_type_symbol
 _atom_site_label
 _atom_site_symmetry_multiplicity
 _atom_site_fract_x
 _atom_site_fract_y
 _atom_site_fract_z
 _atom_site_occupancy
 _atom_site_pbe_bader_charge
 _atom_site_pbe_bader_spin_density
 _atom_site_pbe_cm5_charge
 _atom_site_pbe_ddec_charge
 _atom_site_pbe_ddec_spin_density
 _atom_site_pbe_ddec_sum_bond_order
 _atom_site_pbe_magmom
Hf  Hf0  1  0.81445475  0.19338949  0.95263019  1  2.624298  0  1.498748  2.147941  0  3.303608  0
Hf  Hf1  1  0.71638389  0.99174849  0.85526827  1  2.620179  0  1.501393  2.146467  0  3.32141  0
Hf  Hf2  1  0.03419396  0.07560240  0.95949357  1  2.616867  0  1.500626  2.145914  0  3.328461  0
Hf  Hf3  1  0.92455257  0.09719831  0.74339110  1  2.622451  0  1.498889  2.148228  0  3.298717  0
Hf  Hf4  1  0.82700289  0.96775224  0.06800013  1  2.624164  0  1.499338  2.148944  0  3.297465  0
Hf  Hf5  1  0.93947269  0.87488733  0.85818075  1  2.616487  0  1.498965  2.149789  0  3.296736  0
H  H6  1  0.16649521  0.44338897  0.20489380  1  0.086372  0  0.11244  0.130506  0  0.994798  0
H  H7  1  0.15450040  0.63064338  0.21767927  1  0.075669  0  0.099437  0.111405  0  1.071169  0
H  H8  1  0.59176505  0.62484406  0.61223777  1  0.075706  0  0.111854  0.130655  0  0.995788  0
H  H9  1  0.60732040  0.43658991  0.60317527  1  0.068704  0  0.099626  0.112973  0  1.057902  0
H  H10  1  0.21302514  0.73978919  0.48791797  1  0.080735  0  0.114581  0.132489  0  0.989751  0
H  H11  1  0.19145047  0.75154567  0.30282138  1  0.085418  0  0.104456  0.120577  0  1.041622  0
H  H12  1  0.54354080  0.31790068  0.32399866  1  0.083413  0  0.114429  0.132635  0  0.98964  0
H  H13  1  0.56554833  0.30173018  0.50965116  1  0.068272  0  0.104701  0.121966  0  1.029051  0
H  H14  1  0.43010395  0.72488391  0.19532728  1  0.085365  0  0.113379  0.131591  0  0.995634  0
H  H15  1  0.24568250  0.71983425  0.16858702  1  0.066761  0  0.104463  0.115423  0  1.049561  0
H  H16  1  0.31746401  0.34572918  0.62472771  1  0.085601  0  0.113184  0.131988  0  0.995276  0
H  H17  1  0.50278609  0.34893074  0.65147900  1  0.08013  0  0.103535  0.115908  0  1.038944  0
H  H18  1  0.73880692  0.17651349  0.77360466  1  0.599712  0  0.327991  0.393566  0  0.893829  0
H  H19  1  0.90848470  0.13297871  0.11678504  1  0.612022  0  0.336957  0.417461  0  0.858767  0
H  H20  1  0.09279415  0.99709106  0.79174445  1  0.626289  0  0.33769  0.417953  0  0.858186  0
H  H21  1  0.77176154  0.81891010  0.95102193  1  0.616643  0  0.336566  0.416447  0  0.860692  0
H  H22  1  0.20836670  0.33401403  0.88548638  1  0.094608  0  0.116185  0.125315  0  0.975764  0
H  H23  1  0.16652972  0.30681408  0.67629730  1  0.096624  0  0.10685  0.124636  0  0.990424  0
H  H24  1  0.57195968  0.39625937  0.89877332  1  0.102124  0  0.112527  0.122011  0  0.985345  0
H  H25  1  0.48779623  0.22835065  0.79632471  1  0.078599  0  0.107533  0.129624  0  0.991562  0
H  H26  1  0.18489888  0.67132749  0.91505557  1  0.098864  0  0.113851  0.122733  0  0.9838  0
H  H27  1  0.24628117  0.83540730  0.03779130  1  0.101112  0  0.105878  0.124338  0  1.006135  0
H  H28  1  0.57435073  0.77258440  0.14246947  1  0.036571  0  0.107811  0.128071  0  0.989108  0
H  H29  1  0.53858689  0.73522876  0.93347078  1  0.082251  0  0.115578  0.124288  0  0.976485  0
H  H30  1  0.27676776  0.48713386  0.94223900  1  0.104551  0  0.1228  0.110215  0  0.996303  0
H  H31  1  0.47183121  0.58011794  0.87898942  1  0.130191  0  0.122651  0.110482  0  0.996608  0
H  H32  1  0.55239846  0.04521812  0.26174133  1  0.095616  0  0.114468  0.121815  0  0.979811  0
H  H33  1  0.60302273  0.25129343  0.19435399  1  0.067075  0  0.104248  0.121756  0  0.998008  0
H  H34  1  0.52702584  0.05006437  0.62152429  1  0.108903  0  0.115332  0.127008  0  0.97937  0
H  H35  1  0.69395758  0.16454546  0.52048532  1  0.120307  0  0.10695  0.127241  0  0.994981  0
H  H36  1  0.06302390  0.87781916  0.27596628  1  0.065408  0  0.105274  0.122756  0  1.005728  0
H  H37  1  0.22505461  0.00962441  0.19262521  1  0.130042  0  0.116351  0.127918  0  0.977944  0
H  H38  1  0.20194779  0.01563663  0.54842408  1  0.08142  0  0.112677  0.119411  0  0.98306  0
H  H39  1  0.12976934  0.81153114  0.59748315  1  0.037632  0  0.104632  0.12371  0  0.999917  0
H  H40  1  0.32687418  0.07541853  0.31783825  1  0.113195  0  0.123825  0.111431  0  0.998504  0
H  H41  1  0.42503236  0.98211475  0.48954615  1  0.111857  0  0.123214  0.10998  0  0.99922  0
H  H42  1  0.65512472  0.75729685  0.66205716  1  0.051567  0  0.105593  0.122774  0  0.993864  0
H  H43  1  0.86317502  0.70080865  0.60016154  1  0.078843  0  0.116837  0.125373  0  0.973073  0
H  H44  1  0.86256041  0.34209287  0.54630611  1  0.122243  0  0.112585  0.121629  0  0.985521  0
H  H45  1  0.74696167  0.42664417  0.71920585  1  0.09219  0  0.105717  0.128744  0  0.995431  0
H  H46  1  0.02962788  0.65860189  0.09681362  1  0.097626  0  0.102924  0.122031  0  1.008735  0
H  H47  1  0.89079191  0.72092364  0.26395169  1  0.119858  0  0.113421  0.122537  0  0.984752  0
H  H48  1  0.89238116  0.36933596  0.20955271  1  0.090439  0  0.115794  0.123711  0  0.976138  0
H  H49  1  0.10025018  0.32831854  0.13339398  1  0.042448  0  0.106345  0.124652  0  0.99551  0
H  H50  1  0.83668447  0.44726404  0.35912309  1  0.090687  0  0.121927  0.108205  0  0.998456  0
H  H51  1  0.91927226  0.62356185  0.45099557  1  0.117732  0  0.121959  0.108514  0  1.001591  0
C  C52  1  0.01405775  0.44553921  0.25740266  1  0.255943  0  0.077326  0.122891  0  3.95641  0
C  C53  1  0.10564981  0.48213781  0.23700227  1  0.008773  0  -0.099561  -0.176907  0  3.982327  0
C  C54  1  0.09966679  0.58156670  0.24482748  1  -0.074876  0  -0.106888  -0.188369  0  4.039846  0
C  C55  1  0.00586380  0.60725763  0.27302948  1  0.309974  0  0.064777  0.090791  0  3.946403  0
C  C56  1  0.74179628  0.62491775  0.55244814  1  0.268827  0  0.076466  0.116385  0  3.958289  0
C  C57  1  0.65172107  0.58650736  0.57796491  1  -0.027378  0  -0.101729  -0.179343  0  3.986889  0
C  C58  1  0.65961599  0.48694124  0.57266980  1  -0.010533  0  -0.107698  -0.192282  0  4.050845  0
C  C59  1  0.75297243  0.46288570  0.54079855  1  0.312661  0  0.063785  0.084411  0  3.946697  0
C  C60  1  0.25510521  0.89110495  0.47064695  1  0.305938  0  0.061801  0.085143  0  3.945641  0
C  C61  1  0.23421994  0.79990778  0.44109119  1  -0.048488  0  -0.096973  -0.166215  0  3.992522  0
C  C62  1  0.22194297  0.80634687  0.34327396  1  -0.062795  0  -0.105424  -0.19364  0  4.014728  0
C  C63  1  0.23975707  0.89968615  0.31035885  1  0.331469  0  0.082755  0.135243  0  3.946057  0
C  C64  1  0.49642568  0.16810563  0.33881442  1  0.290568  0  0.063515  0.087758  0  3.947969  0
C  C65  1  0.52034624  0.25790736  0.37005572  1  -0.03115  0  -0.097149  -0.166415  0  3.988504  0
C  C66  1  0.53358984  0.24901949  0.46760798  1  0.001128  0  -0.105609  -0.195994  0  4.023834  0
C  C67  1  0.51399767  0.15546021  0.49856490  1  0.266663  0  0.080516  0.131407  0  3.947244  0
C  C68  1  0.44945118  0.67070820  0.05004055  1  0.29771  0  0.074316  0.110245  0  3.947808  0
C  C69  1  0.39942347  0.69209830  0.13615690  1  -0.019187  0  -0.097322  -0.169088  0  3.981872  0
C  C70  1  0.30165456  0.68791148  0.12291277  1  -0.045382  0  -0.104706  -0.190611  0  4.048435  0
C  C71  1  0.28946031  0.65993221  0.03071948  1  0.322769  0  0.068428  0.092784  0  3.939972  0
C  C72  1  0.29858190  0.39899235  0.77018328  1  0.267976  0  0.074234  0.11647  0  3.955764  0
C  C73  1  0.34865202  0.37749180  0.68419814  1  0.054668  0  -0.099811  -0.174528  0  3.985361  0
C  C74  1  0.44665871  0.37986116  0.69790524  1  -0.032603  0  -0.105982  -0.191199  0  4.046897  0
C  C75  1  0.45874662  0.40684700  0.79041700  1  0.259142  0  0.066444  0.095946  0  3.941583  0
C  C76  1  0.98756620  0.27517229  0.05697859  1  1.515403  0  0.221224  0.655648  0  4.147849  0
C  C77  1  0.60485404  0.19866550  0.88625721  1  1.550759  0  0.225648  0.660932  0  4.128421  0
C  C78  1  0.84405301  0.30735582  0.74311021  1  1.512612  0  0.223777  0.659383  0  4.130255  0
C  C79  1  0.69806207  0.14023810  0.14808308  1  1.553336  0  0.22702  0.673341  0  4.1129  0
C  C80  1  0.76636874  0.80151441  0.74576831  1  1.513318  0  0.227848  0.6732  0  4.117314  0
C  C81  1  0.14229747  0.86710687  0.93530560  1  1.550702  0  0.229417  0.670571  0  4.117059  0
C  C82  1  0.72007894  0.07222022  0.64363271  1  1.533481  0  0.224158  0.65687  0  4.133155  0
C  C83  1  0.62885645  0.87043404  0.03260067  1  1.524948  0  0.219326  0.653137  0  4.15047  0
C  C84  1  0.03426752  0.98271253  0.16434650  1  1.539535  0  0.227704  0.667167  0  4.118795  0
C  C85  1  0.11502484  0.20458209  0.78376048  1  1.521704  0  0.227566  0.672367  0  4.118097  0
C  C86  1  0.04457271  0.92501243  0.65392784  1  1.548091  0  0.22133  0.656964  0  4.141968  0
C  C87  1  0.91987712  0.76464242  0.06993550  1  1.55633  0  0.227999  0.670513  0  4.115039  0
C  C88  1  0.21582667  0.34684670  0.80841035  1  -0.089294  0  -0.069173  -0.08549  0  3.986718  0
C  C89  1  0.16426293  0.29289046  0.75295420  1  0.016478  0  -0.101852  -0.242797  0  3.906994  0
C  C90  1  0.52990859  0.35985430  0.84901409  1  -0.080954  0  -0.06724  -0.082775  0  3.927976  0
C  C91  1  0.53585562  0.26369925  0.84109852  1  0.031412  0  -0.092332  -0.229325  0  3.877154  0
C  C92  1  0.21868015  0.70618422  0.97182358  1  -0.06257  0  -0.066259  -0.083631  0  3.933529  0
C  C93  1  0.20549851  0.80088507  0.98595042  1  0.008441  0  -0.090512  -0.222101  0  3.875115  0
C  C94  1  0.57806575  0.78373026  0.06539488  1  0.023767  0  -0.106489  -0.253151  0  3.924118  0
C  C95  1  0.53002302  0.72542650  0.01082474  1  -0.037209  0  -0.069532  -0.08584  0  3.992391  0
C  C96  1  0.34592092  0.49639228  0.90268412  1  0.40158  0  0.010686  -0.064332  0  3.988776  0
C  C97  1  0.40274757  0.57075306  0.91859695  1  0.296773  0  0.009787  -0.073882  0  3.98493  0
C  C98  1  0.54804020  0.12315883  0.25903177  1  -0.070131  0  -0.06711  -0.078482  0  3.978073  0
C  C99  1  0.60950561  0.17366075  0.19860270  1  -0.002152  0  -0.107832  -0.250397  0  3.912434  0
C  C100  1  0.56212464  0.10310869  0.57292100  1  0.009237  0  -0.070302  -0.093276  0  3.95144  0
C  C101  1  0.65772580  0.11737633  0.57405669  1  -0.107193  0  -0.092274  -0.228718  0  3.883543  0
C  C102  1  0.09815397  0.93133708  0.22830975  1  -0.03262  0  -0.09105  -0.222202  0  3.875734  0
C  C103  1  0.19203880  0.95080167  0.23520586  1  -0.015335  0  -0.069705  -0.095269  0  3.953382  0
C  C104  1  0.19949354  0.93782925  0.54711935  1  -0.007853  0  -0.070206  -0.082556  0  3.982516  0
C  C105  1  0.12973083  0.88923807  0.59922523  1  -0.040741  0  -0.109152  -0.253396  0  3.925103  0
C  C106  1  0.33825584  0.02481400  0.37648937  1  0.349548  0  0.014773  -0.0623  0  3.977429  0
C  C107  1  0.41369702  0.03302178  0.43109404  1  0.368019  0  0.0153  -0.060473  0  3.979345  0
C  C108  1  0.73287246  0.75441482  0.66349482  1  0.048104  0  -0.103836  -0.244982  0  3.916358  0
C  C109  1  0.78513314  0.70069407  0.60029463  1  -0.032339  0  -0.067537  -0.084023  0  3.99031  0
C  C110  1  0.80837288  0.38532583  0.58497091  1  -0.008084  0  -0.067259  -0.080364  0  3.932292  0
C  C111  1  0.79575148  0.37755683  0.68121700  1  -0.087558  0  -0.093889  -0.232342  0  3.878631  0
C  C112  1  0.97316470  0.70049157  0.13340977  1  -0.106104  0  -0.092467  -0.223635  0  3.867664  0
C  C113  1  0.95243737  0.68542104  0.22816018  1  0.004946  0  -0.066307  -0.082927  0  3.936014  0
C  C114  1  0.97043487  0.37296909  0.20536062  1  -0.022191  0  -0.071363  -0.089638  0  3.998662  0
C  C115  1  0.02230001  0.32630512  0.13620966  1  0.041827  0  -0.103871  -0.246612  0  3.930227  0
C  C116  1  0.88293055  0.50810204  0.36636040  1  0.366561  0  0.011278  -0.065485  0  3.988579  0
C  C117  1  0.87317810  0.56258921  0.44392659  1  0.371876  0  0.010097  -0.073188  0  3.98851  0
N  N118  1  0.95646294  0.52133471  0.29437689  1  -1.18597  0  -0.227514  -0.008367  0  3.670448  0
N  N119  1  0.79973956  0.54933750  0.51604380  1  -1.19108  0  -0.227771  0.004196  0  3.672477  0
N  N120  1  0.27437243  0.94821994  0.38662790  1  -1.18087  0  -0.222309  -0.011211  0  3.684  0
N  N121  1  0.47766503  0.10949250  0.42168583  1  -1.159216  0  -0.223195  -0.011335  0  3.691854  0
N  N122  1  0.38115435  0.63681749  0.99002188  1  -1.186836  0  -0.222995  0.008217  0  3.663009  0
N  N123  1  0.36721410  0.43044789  0.83105492  1  -1.196944  0  -0.225091  -0.014417  0  3.692764  0
O  O124  1  0.04881463  0.21573104  0.02057117  1  -1.171298  0  -0.352462  -0.593345  0  2.322505  0
O  O125  1  0.59813307  0.10937060  0.87314791  1  -1.172686  0  -0.325683  -0.577767  0  2.185376  0
O  O126  1  0.82874680  0.31360004  0.83301041  1  -1.136144  0  -0.324374  -0.577839  0  2.178932  0
O  O127  1  0.73837939  0.20406823  0.09182643  1  -1.181477  0  -0.364911  -0.609648  0  2.313034  0
O  O128  1  0.73451365  0.05748239  0.16559908  1  -1.184723  0  -0.349506  -0.592796  0  2.218562  0
O  O129  1  0.89413919  0.24240688  0.70064651  1  -1.1771  0  -0.360035  -0.592799  0  2.336053  0
O  O130  1  0.66983663  0.23826603  0.93009852  1  -1.176567  0  -0.357822  -0.591804  0  2.335354  0
O  O131  1  0.90385889  0.29146253  0.02763698  1  -1.180427  0  -0.346539  -0.585722  0  2.21343  0
O  O132  1  0.76429115  0.05506974  0.97013663  1  -1.19863  0  -0.763166  -1.055615  0  2.239465  0
O  O133  1  0.93490307  0.14401853  0.88025237  1  -1.197081  0  -0.761216  -1.056601  0  2.23428  0
O  O134  1  0.77844632  0.13569154  0.81180383  1  -1.231939  0  -0.657422  -0.982601  0  2.443253  0
O  O135  1  0.90054735  0.10632203  0.05538083  1  -1.237311  0  -0.661533  -0.995516  0  2.433486  0
O  O136  1  0.70330738  0.85699675  0.78601550  1  -1.171756  0  -0.362923  -0.60672  0  2.325472  0
O  O137  1  0.14933736  0.95576123  0.95174864  1  -1.17691  0  -0.331391  -0.58463  0  2.206387  0
O  O138  1  0.80998944  0.08687578  0.63226359  1  -1.152977  0  -0.325119  -0.576308  0  2.184478  0
O  O139  1  0.68562705  0.90212112  0.09118368  1  -1.16888  0  -0.351803  -0.589542  0  2.308601  0
O  O140  1  0.94477183  0.96579772  0.17652568  1  -1.161057  0  -0.329213  -0.584076  0  2.200438  0
O  O141  1  0.06119764  0.17141977  0.72320787  1  -1.17698  0  -0.357746  -0.599424  0  2.306044  0
O  O142  1  0.00655509  0.86306120  0.71351994  1  -1.170188  0  -0.353531  -0.595354  0  2.309388  0
O  O143  1  0.93847055  0.75763543  0.98045015  1  -1.16576  0  -0.329198  -0.586218  0  2.191999  0
O  O144  1  0.01093932  0.00975412  0.63976699  1  -1.181628  0  -0.348606  -0.586548  0  2.20779  0
O  O145  1  0.85851290  0.82209510  0.10939956  1  -1.18825  0  -0.365148  -0.603219  0  2.326578  0
O  O146  1  0.67717236  0.02493446  0.71289908  1  -1.177703  0  -0.359647  -0.594969  0  2.34053  0
O  O147  1  0.13197821  0.16260210  0.86342173  1  -1.176609  0  -0.353885  -0.596086  0  2.237114  0
O  O148  1  0.07363873  0.04081459  0.10183388  1  -1.18713  0  -0.363165  -0.603948  0  2.326119  0
O  O149  1  0.61420129  0.91039150  0.95127528  1  -1.18292  0  -0.3524  -0.590748  0  2.22551  0
O  O150  1  0.84881651  0.78250686  0.77663073  1  -1.179493  0  -0.347625  -0.591276  0  2.219304  0
O  O151  1  0.08485235  0.83115413  0.87997469  1  -1.185085  0  -0.362846  -0.600703  0  2.321363  0
O  O152  1  0.94917629  0.95628884  0.97700844  1  -1.204356  0  -0.751468  -1.061795  0  2.192442  0
O  O153  1  0.85621217  0.97785917  0.79757497  1  -1.196827  0  -0.761615  -1.055451  0  2.2337  0
O  O154  1  0.02917149  0.00633371  0.82189485  1  -1.248705  0  -0.665338  -0.997812  0  2.450543  0
O  O155  1  0.79926012  0.88160785  0.93915012  1  -1.2406  0  -0.661673  -0.995333  0  2.436638  0
