# generated using pymatgen
data_CuH4C6N5
_symmetry_space_group_name_H-M   'P 1'
_cell_length_a   7.25365930
_cell_length_b   15.10020637
_cell_length_c   15.58558876
_cell_angle_alpha   97.66468933
_cell_angle_beta   95.06888362
_cell_angle_gamma   95.74335805
_symmetry_Int_Tables_number   1
_chemical_formula_structural   CuH4C6N5
_chemical_formula_sum   'Cu8 H32 C48 N40'
_cell_volume   1674.39498140
_cell_formula_units_Z   8
loop_
 _symmetry_equiv_pos_site_id
 _symmetry_equiv_pos_as_xyz
  1  'x, y, z'
loop_
 _atom_site_type_symbol
 _atom_site_label
 _atom_site_symmetry_multiplicity
 _atom_site_fract_x
 _atom_site_fract_y
 _atom_site_fract_z
 _atom_site_occupancy
 _atom_site_pbe_bader_charge
 _atom_site_pbe_bader_spin_density
 _atom_site_pbe_cm5_charge
 _atom_site_pbe_ddec_charge
 _atom_site_pbe_ddec_spin_density
 _atom_site_pbe_ddec_sum_bond_order
 _atom_site_pbe_magmom
Cu  Cu0  1  0.25335173  0.79044955  0.71452753  1  0.650836  0  0.53929  0.18054  0  2.527596  0
Cu  Cu1  1  0.74664887  0.20955000  0.28547087  1  0.65071  0  0.539273  0.180584  0  2.527515  0
Cu  Cu2  1  0.09553732  0.14331968  0.21612693  1  0.668632  0  0.552077  0.223622  0  2.438731  0
Cu  Cu3  1  0.90445446  0.85667876  0.78387800  1  0.668561  0  0.552091  0.223668  0  2.438738  0
Cu  Cu4  1  0.24654622  0.64121834  0.85212759  1  0.680279  0  0.560377  0.246169  0  2.383765  0
Cu  Cu5  1  0.75346278  0.35878652  0.14787244  1  0.680268  0  0.560439  0.246143  0  2.383702  0
Cu  Cu6  1  0.40648877  0.28799761  0.34993489  1  0.660104  0  0.551738  0.221439  0  2.443197  0
Cu  Cu7  1  0.59350338  0.71200135  0.65006241  1  0.660009  0  0.551759  0.221345  0  2.443263  0
H  H8  1  0.71854666  0.04349968  0.92666416  1  0.111494  0  0.114017  0.127466  0  0.981282  0
H  H9  1  0.28146380  0.95650510  0.07333272  1  0.111581  0  0.113984  0.127434  0  0.98124  0
H  H10  1  0.08844105  0.45516028  0.85141806  1  0.076768  0  0.113564  0.084545  0  1.003705  0
H  H11  1  0.91159137  0.54483885  0.14857859  1  0.076513  0  0.113528  0.084592  0  1.003578  0
H  H12  1  0.40467550  0.65075279  0.03141052  1  0.117107  0  0.112488  0.082006  0  1.018799  0
H  H13  1  0.59533107  0.34924883  0.96859353  1  0.117117  0  0.112483  0.081993  0  1.018845  0
H  H14  1  0.78503590  0.38667673  0.64021535  1  0.10161  0  0.112121  0.124731  0  0.985832  0
H  H15  1  0.21493797  0.61331720  0.35978889  1  0.101615  0  0.112068  0.124638  0  0.985858  0
H  H16  1  0.91570247  0.96041475  0.21239292  1  0.101269  0  0.113275  0.082708  0  1.008003  0
H  H17  1  0.08428577  0.03959041  0.78760937  1  0.101206  0  0.113282  0.082629  0  1.008104  0
H  H18  1  0.92599540  0.14868900  0.04188329  1  0.142363  0  0.11488  0.084898  0  1.014666  0
H  H19  1  0.07400844  0.85131730  0.95811793  1  0.142461  0  0.114919  0.085021  0  1.0146  0
H  H20  1  0.57648164  0.28132624  0.52484406  1  0.102743  0  0.112451  0.080728  0  1.02452  0
H  H21  1  0.42349941  0.71867290  0.47515531  1  0.102796  0  0.11239  0.080713  0  1.0243  0
H  H22  1  0.41016561  0.54771099  0.14563347  1  0.099523  0  0.112627  0.125236  0  0.985403  0
H  H23  1  0.58983510  0.45228930  0.85436823  1  0.09955  0  0.112639  0.12526  0  0.985402  0
H  H24  1  0.58483003  0.47040174  0.35513228  1  0.154286  0  0.116791  0.08874  0  0.997193  0
H  H25  1  0.41516654  0.52960412  0.64487625  1  0.1541  0  0.116802  0.08874  0  0.997168  0
H  H26  1  0.79071894  0.58369351  0.46366282  1  0.100299  0  0.113574  0.126396  0  0.981994  0
H  H27  1  0.20926991  0.41630511  0.53634905  1  0.100309  0  0.113588  0.126411  0  0.981979  0
H  H28  1  0.08213756  0.88539291  0.42273037  1  0.109061  0  0.111538  0.122562  0  0.987945  0
H  H29  1  0.91787720  0.11461253  0.57726806  1  0.109201  0  0.111488  0.122506  0  0.987977  0
H  H30  1  0.08312377  0.34383325  0.95791226  1  0.094605  0  0.113165  0.124699  0  0.98677  0
H  H31  1  0.91690436  0.65616522  0.04208218  1  0.094523  0  0.11319  0.124738  0  0.986676  0
H  H32  1  0.70727985  0.84727302  0.10400153  1  0.082152  0  0.111161  0.122486  0  0.989634  0
H  H33  1  0.29270505  0.15273484  0.89599897  1  0.082165  0  0.111188  0.122475  0  0.989676  0
H  H34  1  0.41982566  0.08749023  0.60851622  1  0.096797  0  0.111046  0.122526  0  0.988316  0
H  H35  1  0.58018088  0.91250674  0.39149117  1  0.096722  0  0.111033  0.122498  0  0.988309  0
H  H36  1  0.41637285  0.97601810  0.71457855  1  0.131689  0  0.115609  0.088311  0  0.996683  0
H  H37  1  0.58362105  0.02397284  0.28542244  1  0.131677  0  0.115588  0.088337  0  0.996684  0
H  H38  1  0.08601786  0.78304424  0.53722039  1  0.123927  0  0.114855  0.086542  0  1.011152  0
H  H39  1  0.91397853  0.21695459  0.46277260  1  0.123972  0  0.114838  0.086499  0  1.011066  0
C  C40  1  0.25120385  0.05706777  0.44292073  1  0.928878  0  0.199908  0.204458  0  4.1036  0
C  C41  1  0.74880215  0.94293183  0.55708307  1  0.929244  0  0.199998  0.20467  0  4.103661  0
C  C42  1  0.75972442  0.02273246  0.98913801  1  -0.040494  0  -0.079314  -0.155127  0  3.932707  0
C  C43  1  0.24027099  0.97727322  0.01086082  1  -0.040143  0  -0.07921  -0.155003  0  3.932292  0
C  C44  1  0.69597626  0.93669858  0.00640544  1  -0.081376  0  0.017465  0.081302  0  3.991542  0
C  C45  1  0.30401854  0.06330979  0.99359302  1  -0.081677  0  0.017425  0.081267  0  3.991045  0
C  C46  1  0.57216492  0.87416892  0.94249786  1  0.947811  0  0.202572  0.203888  0  4.094846  0
C  C47  1  0.42783284  0.12584009  0.05750080  1  0.947329  0  0.2026  0.203999  0  4.094578  0
C  C48  1  0.15887681  0.47242216  0.91726248  1  0.480968  0  0.03639  0.080455  0  3.951634  0
C  C49  1  0.84115166  0.52757768  0.08273342  1  0.481283  0  0.03639  0.080333  0  3.951441  0
C  C50  1  0.33468799  0.58217943  0.01834826  1  0.423418  0  0.038143  0.084793  0  3.947631  0
C  C51  1  0.66532121  0.41782143  0.98165326  1  0.424025  0  0.038201  0.084842  0  3.947789  0
C  C52  1  0.92738916  0.55695143  0.62478577  1  0.939572  0  0.200643  0.205008  0  4.09347  0
C  C53  1  0.07260543  0.44304694  0.37521735  1  0.937664  0  0.200695  0.204984  0  4.093503  0
C  C54  1  0.74291444  0.40744584  0.57779934  1  0.012628  0  -0.082963  -0.163793  0  3.931814  0
C  C55  1  0.25707678  0.59255058  0.42220470  1  0.013876  0  -0.082943  -0.163633  0  3.93194  0
C  C56  1  0.86804211  0.97567625  0.14815564  1  0.444914  0  0.040109  0.085087  0  3.947525  0
C  C57  1  0.13194063  0.02432895  0.85184511  1  0.444879  0  0.040096  0.08521  0  3.947605  0
C  C58  1  0.80441636  0.49398545  0.56090422  1  -0.01301  0  0.018882  0.081232  0  3.9916  0
C  C59  1  0.19558413  0.50600953  0.43910073  1  -0.0282  0  0.018818  0.081082  0  3.991501  0
C  C60  1  0.87448320  0.08106130  0.05252083  1  0.451208  0  0.038287  0.09346  0  3.925714  0
C  C61  1  0.12551223  0.91894437  0.94747736  1  0.451344  0  0.038178  0.093174  0  3.925658  0
C  C62  1  0.62852495  0.34899476  0.51431685  1  0.431571  0  0.037921  0.086913  0  3.942519  0
C  C63  1  0.37146550  0.65099898  0.48568750  1  0.430539  0  0.038003  0.086884  0  3.942594  0
C  C64  1  0.25103852  0.99501156  0.50674602  1  -0.038866  0  0.016812  0.078933  0  3.998992  0
C  C65  1  0.74897401  0.00498660  0.49325728  1  -0.038806  0  0.01696  0.078872  0  3.999047  0
C  C66  1  0.33758329  0.52517626  0.08107899  1  -0.017262  0  -0.0818  -0.161948  0  3.940047  0
C  C67  1  0.66242103  0.47482194  0.91892137  1  -0.01735  0  -0.081817  -0.162004  0  3.940088  0
C  C68  1  0.63179861  0.45501793  0.41936022  1  0.390277  0  0.040045  0.093059  0  3.929977  0
C  C69  1  0.36819969  0.54498376  0.58064281  1  0.390342  0  0.04  0.092963  0  3.930117  0
C  C70  1  0.74587532  0.51734683  0.47947333  1  0.033637  0  -0.07978  -0.155126  0  3.935586  0
C  C71  1  0.25412287  0.48265028  0.52053625  1  0.04953  0  -0.079737  -0.155034  0  3.935516  0
C  C72  1  0.15781470  0.90766047  0.48671004  1  0.054533  0  -0.081548  -0.15901  0  3.933356  0
C  C73  1  0.84219444  0.09233959  0.51328562  1  0.054258  0  -0.081583  -0.159005  0  3.933339  0
C  C74  1  0.15600799  0.41126551  0.97619091  1  0.020375  0  -0.080118  -0.159495  0  3.941599  0
C  C75  1  0.84401337  0.58873376  0.02380587  1  0.020249  0  -0.080138  -0.159535  0  3.94152  0
C  C76  1  0.75321198  0.91348492  0.08813701  1  0.052742  0  -0.08256  -0.160869  0  3.935375  0
C  C77  1  0.24677135  0.08652228  0.91186335  1  0.053071  0  -0.082627  -0.160987  0  3.935318  0
C  C78  1  0.34426910  0.02057800  0.59059102  1  0.046004  0  -0.081578  -0.160956  0  3.936559  0
C  C79  1  0.65573973  0.97942150  0.40940969  1  0.046225  0  -0.081601  -0.160815  0  3.936644  0
C  C80  1  0.24700034  0.43727787  0.06045019  1  0.036505  0  0.018523  0.082824  0  3.994906  0
C  C81  1  0.75301253  0.56272083  0.93954678  1  0.036031  0  0.018425  0.082682  0  3.99502  0
C  C82  1  0.34203312  0.95937279  0.64949779  1  0.417389  0  0.043178  0.094621  0  3.928468  0
C  C83  1  0.65796279  0.04062010  0.35050094  1  0.417135  0  0.043084  0.094415  0  3.928552  0
C  C84  1  0.24750885  0.37523560  0.12396591  1  0.894844  0  0.20189  0.211208  0  4.085356  0
C  C85  1  0.75248615  0.62475857  0.87602908  1  0.894526  0  0.202043  0.211574  0  4.085186  0
C  C86  1  0.16026091  0.85074569  0.54954932  1  0.40892  0  0.040359  0.094637  0  3.922967  0
C  C87  1  0.83973808  0.14925240  0.45044243  1  0.409136  0  0.040433  0.094815  0  3.923043  0
N  N88  1  0.10868631  0.61140177  0.73787048  1  -0.216986  0  -0.166616  -0.027177  0  3.651779  0
N  N89  1  0.89131311  0.38860398  0.26213432  1  -0.216797  0  -0.166587  -0.027055  0  3.651585  0
N  N90  1  0.09932881  0.67480590  0.68439905  1  -0.204773  0  -0.167295  -0.034406  0  3.673138  0
N  N91  1  0.90066107  0.32519517  0.31560158  1  -0.204859  0  -0.167271  -0.034429  0  3.672855  0
N  N92  1  0.31378146  0.31740652  0.23787585  1  -0.207173  0  -0.167301  -0.023438  0  3.650265  0
N  N93  1  0.68620209  0.68258646  0.76211975  1  -0.207122  0  -0.167204  -0.02321  0  3.650343  0
N  N94  1  0.38736848  0.75966037  0.88498255  1  -0.224499  0  -0.1653  -0.028685  0  3.638113  0
N  N95  1  0.61263736  0.24034236  0.11501003  1  -0.224116  0  -0.165268  -0.028642  0  3.638184  0
N  N96  1  0.18397879  0.26003431  0.18483206  1  -0.217856  0  -0.164727  -0.023142  0  3.634259  0
N  N97  1  0.81600880  0.73995787  0.81515980  1  -0.217595  0  -0.164589  -0.023048  0  3.63414  0
N  N98  1  0.40304458  0.81778903  0.82635242  1  -0.190424  0  -0.16801  -0.031278  0  3.68392  0
N  N99  1  0.59696177  0.18221578  0.17364298  1  -0.190768  0  -0.168179  -0.031546  0  3.684275  0
N  N100  1  0.30641055  0.17437194  0.38399359  1  -0.189935  0  -0.16227  -0.027129  0  3.645827  0
N  N101  1  0.69358963  0.82562631  0.61600658  1  -0.189941  0  -0.162225  -0.026923  0  3.645479  0
N  N102  1  0.98596691  0.64209287  0.61326393  1  -0.644766  0  -0.214791  -0.260879  0  3.222983  0
N  N103  1  0.01402572  0.35790350  0.38673888  1  -0.643741  0  -0.214861  -0.260934  0  3.222776  0
N  N104  1  0.24691119  0.55704035  0.93712310  1  -1.213542  0  -0.373178  -0.205761  0  3.689225  0
N  N105  1  0.75310403  0.44295700  0.06287511  1  -1.213645  0  -0.373196  -0.205659  0  3.689287  0
N  N106  1  0.57311561  0.37160149  0.43569183  1  -1.218992  0  -0.376365  -0.204625  0  3.697169  0
N  N107  1  0.42687528  0.62839822  0.56430870  1  -1.219038  0  -0.376336  -0.204494  0  3.697524  0
N  N108  1  0.34118955  0.14138710  0.45786209  1  -0.654763  0  -0.218284  -0.261365  0  3.191244  0
N  N109  1  0.65881435  0.85861446  0.54213797  1  -0.655105  0  -0.218367  -0.261579  0  3.191317  0
N  N110  1  0.19696134  0.11200885  0.32613728  1  -0.214829  0  -0.166986  -0.029031  0  3.663918  0
N  N111  1  0.80303998  0.88798875  0.67386480  1  -0.214874  0  -0.167039  -0.02917  0  3.663927  0
N  N112  1  0.92857022  0.05873468  0.13142746  1  -1.210272  0  -0.374842  -0.20319  0  3.697735  0
N  N113  1  0.07141707  0.94127179  0.86857235  1  -1.210321  0  -0.374801  -0.203046  0  3.697762  0
N  N114  1  0.16153489  0.03764597  0.36166747  1  -0.642254  0  -0.219995  -0.266035  0  3.186649  0
N  N115  1  0.83846783  0.96235160  0.63833403  1  -0.642287  0  -0.22001  -0.26604  0  3.18678  0
N  N116  1  0.00174609  0.53685876  0.70156802  1  -0.629938  0  -0.218999  -0.261394  0  3.174188  0
N  N117  1  0.99825418  0.46314025  0.29843673  1  -0.629958  0  -0.219016  -0.261366  0  3.17455  0
N  N118  1  0.49233428  0.79389781  0.95834543  1  -0.623267  0  -0.21746  -0.256206  0  3.181434  0
N  N119  1  0.50767342  0.20610700  0.04165132  1  -0.623539  0  -0.217454  -0.256213  0  3.181466  0
N  N120  1  0.51877599  0.88996807  0.86103536  1  -0.632036  0  -0.216295  -0.26337  0  3.217248  0
N  N121  1  0.48122911  0.11003747  0.13896263  1  -0.631696  0  -0.21618  -0.263224  0  3.217122  0
N  N122  1  0.35562932  0.39019231  0.20087785  1  -0.624567  0  -0.215553  -0.265431  0  3.208616  0
N  N123  1  0.64436301  0.60980265  0.79912159  1  -0.624529  0  -0.215687  -0.265686  0  3.208847  0
N  N124  1  0.14042174  0.29512044  0.11298432  1  -0.62875  0  -0.214031  -0.264484  0  3.217635  0
N  N125  1  0.85958023  0.70487358  0.88700777  1  -0.628523  0  -0.214222  -0.264805  0  3.217389  0
N  N126  1  0.25135661  0.87539042  0.63004515  1  -1.241108  0  -0.369785  -0.194848  0  3.688316  0
N  N127  1  0.74864299  0.12460581  0.36995477  1  -1.241112  0  -0.36979  -0.194938  0  3.68859  0
