# generated using pymatgen
data_NiH26(C9N2)4
_symmetry_space_group_name_H-M   'P 1'
_cell_length_a   9.28406531
_cell_length_b   12.98154585
_cell_length_c   16.23082512
_cell_angle_alpha   105.50308007
_cell_angle_beta   89.99931459
_cell_angle_gamma   110.93985900
_symmetry_Int_Tables_number   1
_chemical_formula_structural   NiH26(C9N2)4
_chemical_formula_sum   'Ni2 H52 C72 N16'
_cell_volume   1750.55580429
_cell_formula_units_Z   2
loop_
 _symmetry_equiv_pos_site_id
 _symmetry_equiv_pos_as_xyz
  1  'x, y, z'
loop_
 _atom_site_type_symbol
 _atom_site_label
 _atom_site_symmetry_multiplicity
 _atom_site_fract_x
 _atom_site_fract_y
 _atom_site_fract_z
 _atom_site_occupancy
 _atom_site_pbe_bader_charge
 _atom_site_pbe_bader_spin_density
 _atom_site_pbe_cm5_charge
 _atom_site_pbe_ddec_charge
 _atom_site_pbe_ddec_spin_density
 _atom_site_pbe_ddec_sum_bond_order
 _atom_site_pbe_magmom
Ni  Ni0  1  0.09520690  0.05592393  0.60742040  1  1.112005  1.536922  0.662103  0.547714  1.764118  2.726769  1.523
Ni  Ni1  1  0.96085929  0.05610343  0.10751143  1  1.116846  1.536772  0.662609  0.547546  1.763986  2.728993  1.522
H  H2  1  0.21092806  0.02014189  0.77979490  1  0.084274  0.000959  0.108391  0.087014  0.000259  1.028563  0.001
H  H3  1  0.22454487  0.81921147  0.79424214  1  0.076247  0.001397  0.095908  0.112554  0.000636  1.013975  0.001
H  H4  1  0.15668579  0.67375130  0.63182557  1  0.048234  0.001423  0.091571  0.108513  0.000581  1.052746  0.001
H  H5  1  0.04126261  0.72417526  0.32092286  1  0.074139  0.00126  0.090862  0.106555  0.000453  1.053016  0.001
H  H6  1  0.99782553  0.89561576  0.27150392  1  0.101144  0.001008  0.093017  0.109361  0.00039  1.060993  0.001
H  H7  1  0.02307312  0.06414295  0.41896017  1  0.113587  0.001157  0.106804  0.080671  0.000229  1.049531  0.001
H  H8  1  0.34239678  0.71267287  0.49329505  1  0.063659  4.3e-05  0.102551  0.105149  1.8e-05  1.003722  0.0
H  H9  1  0.33983886  0.51856799  0.41912841  1  0.077479  6.4e-05  0.102035  0.106182  3.5e-05  1.030472  0.0
H  H10  1  0.84520761  0.39636827  0.35511039  1  0.077157  2.8e-05  0.109505  0.116476  1.2e-05  0.998203  0.0
H  H11  1  0.85163757  0.59332126  0.42285819  1  0.056122  -1e-06  0.101418  0.100305  -8e-06  1.008437  0.0
H  H12  1  0.89822003  0.27071414  0.24596037  1  0.144006  0.000345  0.129521  0.088343  -2.3e-05  1.084277  0.0
H  H13  1  0.21351572  0.12050769  0.29046752  1  0.112179  0.000552  0.11638  0.108816  0.000147  1.032384  0.0
H  H14  1  0.28518604  0.32965748  0.41432049  1  0.104162  0.000838  0.117664  0.114625  0.000345  1.049708  0.0
H  H15  1  0.42458463  0.03574314  0.61676885  1  0.096664  0.001152  0.106686  0.085611  0.000324  1.038248  0.001
H  H16  1  0.69901498  0.22370620  0.65600956  1  0.075417  0.001293  0.092337  0.10647  0.000555  1.056908  0.001
H  H17  1  0.62811368  0.40131578  0.64157261  1  0.028208  0.001635  0.096587  0.116294  0.00066  1.027674  0.001
H  H18  1  0.08903525  0.44090192  0.55511020  1  0.080702  0.001276  0.092334  0.10757  0.000504  1.056892  0.001
H  H19  1  0.79522875  0.28561116  0.50691582  1  0.095639  0.001211  0.095225  0.11371  0.000556  1.022391  0.001
H  H20  1  0.79871137  0.08519100  0.52817447  1  0.08413  0.001049  0.11144  0.087279  0.000229  1.012899  0.001
H  H21  1  0.52126343  0.42329022  0.50111706  1  0.069974  3.5e-05  0.105596  0.106446  1.4e-05  0.995658  0.0
H  H22  1  0.66959722  0.62888786  0.51372409  1  0.07969  1e-05  0.10657  0.111167  -9e-06  1.017544  0.0
H  H23  1  0.43087315  0.72719611  0.73070115  1  0.092619  3.7e-05  0.111402  0.11935  -5e-06  1.004122  0.0
H  H24  1  0.27295515  0.52119529  0.71280186  1  0.088807  7e-05  0.106171  0.111155  3.3e-05  0.990744  0.0
H  H25  1  0.86447791  0.79483954  0.58960016  1  0.140447  0.000343  0.13146  0.091001  -4e-05  1.053654  0.0
H  H26  1  0.74291674  0.08538209  0.67552614  1  0.08681  0.000612  0.117933  0.106097  0.000141  1.035357  0.0
H  H27  1  0.49065017  0.89231465  0.68150926  1  0.128089  0.000925  0.119269  0.120236  0.000371  1.049464  0.001
H  H28  1  0.80982736  0.01991990  0.27988796  1  0.103539  0.000919  0.108706  0.087039  0.000238  1.028798  0.001
H  H29  1  0.59520374  0.81905003  0.29424626  1  0.041769  0.00137  0.095665  0.112301  0.000616  1.013285  0.001
H  H30  1  0.51715030  0.67382795  0.13174757  1  0.067046  0.001175  0.091779  0.108498  0.000454  1.052866  0.001
H  H31  1  0.68361286  0.72446872  0.82086495  1  0.072014  0.00128  0.090906  0.106609  0.000469  1.053221  0.001
H  H32  1  0.89814025  0.89626990  0.77164064  1  0.078839  0.001013  0.093309  0.10999  0.00039  1.061128  0.001
H  H33  1  0.04083054  0.06474013  0.91929905  1  0.109131  0.00116  0.106599  0.080336  0.00023  1.049567  0.001
H  H34  1  0.37038617  0.71324296  0.99306942  1  0.06222  4.3e-05  0.102568  0.105251  1.9e-05  1.003892  0.0
H  H35  1  0.17863112  0.51912331  0.91912269  1  0.048406  5.9e-05  0.101837  0.106724  3.1e-05  1.030204  0.0
H  H36  1  0.55070306  0.39630165  0.85543057  1  0.033064  2.7e-05  0.10944  0.115828  1.1e-05  0.99899  0.0
H  H37  1  0.74144540  0.59319825  0.92310196  1  0.044514  3e-06  0.101366  0.101574  -5e-06  1.007581  0.0
H  H38  1  0.37244019  0.27106019  0.74606612  1  0.145997  0.000342  0.129459  0.088186  -1.9e-05  1.084308  0.0
H  H39  1  0.90709097  0.12052670  0.79049881  1  0.121773  0.00056  0.11632  0.108788  0.00015  1.031119  0.0
H  H40  1  0.04400583  0.32980778  0.91430995  1  0.123851  0.000802  0.117245  0.113646  0.000335  1.048925  0.0
H  H41  1  0.61139554  0.03603067  0.11720304  1  0.116309  0.001138  0.106591  0.085207  0.000304  1.038707  0.001
H  H42  1  0.52485035  0.22400442  0.15659312  1  0.044673  0.001321  0.092175  0.106542  0.000561  1.056817  0.001
H  H43  1  0.77320235  0.40159858  0.14192030  1  0.0647  0.001654  0.096853  0.116887  0.000674  1.027477  0.001
H  H44  1  0.35192310  0.44103285  0.05518246  1  0.082445  0.001071  0.092238  0.107208  0.000394  1.05714  0.001
H  H45  1  0.49021175  0.28576242  0.00696325  1  0.084687  0.001193  0.095497  0.11403  0.000544  1.021814  0.001
H  H46  1  0.28609653  0.08513713  0.02751491  1  0.065345  0.001012  0.11171  0.087516  0.000219  1.012548  0.001
H  H47  1  0.90120431  0.42365776  0.00136343  1  0.076343  3.1e-05  0.105832  0.106592  1.3e-05  0.995923  0.0
H  H48  1  0.95887212  0.62932675  0.01408606  1  0.078598  2e-05  0.106502  0.110016  -7e-06  1.01804  0.0
H  H49  1  0.29713916  0.72706348  0.23030310  1  0.093836  2.8e-05  0.111648  0.119026  -7e-06  1.004177  0.0
H  H50  1  0.24883455  0.52106866  0.21220634  1  0.078868  5.2e-05  0.1062  0.111243  2e-05  0.990399  0.0
H  H51  1  0.93136872  0.79531752  0.08896668  1  0.148923  0.00034  0.13114  0.090149  -4.4e-05  1.054653  0.0
H  H52  1  0.34291618  0.08577610  0.17648403  1  0.128449  0.000578  0.117755  0.106464  0.000132  1.034346  0.0
H  H53  1  0.40186272  0.89255842  0.18233687  1  0.145915  0.000923  0.119468  0.12045  0.000377  1.04876  0.001
C  C54  1  0.19219505  0.94182987  0.72840927  1  0.46564  -0.005535  0.01538  0.048746  -0.006709  3.965752  -0.003
C  C55  1  0.19985131  0.83687581  0.73512229  1  -0.115407  0.004496  -0.133671  -0.194136  0.00244  4.073934  0.003
C  C56  1  0.16454067  0.76246015  0.65222453  1  -0.076459  -0.002597  -0.124266  -0.213872  -0.003695  4.038094  -0.001
C  C57  1  0.13823731  0.82516116  0.59708601  1  0.28552  0.001729  0.054251  0.107576  0.001107  4.077861  0.001
C  C58  1  0.09999159  0.78382395  0.50709745  1  0.064217  -0.000136  0.018641  -0.023269  -0.000677  3.955256  0.0
C  C59  1  0.06579258  0.84313903  0.45421325  1  0.338963  0.003129  0.062129  0.124684  0.002256  4.060653  0.003
C  C60  1  0.04102762  0.80541024  0.36167115  1  -0.099671  -0.003502  -0.122829  -0.20261  -0.004877  4.013024  -0.001
C  C61  1  0.02052042  0.89305658  0.33630923  1  -0.080502  0.005943  -0.129735  -0.177572  0.003244  4.041367  0.004
C  C62  1  0.03231523  0.98153171  0.41329685  1  0.432917  -0.008107  0.021738  0.065987  -0.009668  3.929657  -0.005
C  C63  1  0.09690925  0.66635393  0.46413309  1  -0.012203  -0.000481  -0.002834  0.077872  -0.000506  3.998789  0.0
C  C64  1  0.23348888  0.64336079  0.46283246  1  -0.048615  0.000208  -0.084099  -0.106813  9.7e-05  3.971142  0.0
C  C65  1  0.23214726  0.53422152  0.42159791  1  -0.023466  7.2e-05  -0.095219  -0.171132  -2e-06  4.003381  0.0
C  C66  1  0.09239148  0.44473291  0.38332416  1  0.290129  0.000829  0.098297  0.171453  0.000482  4.029741  0.001
C  C67  1  0.95472471  0.46586689  0.38418742  1  0.043355  -0.000245  -0.090348  -0.163216  -0.000304  3.982353  0.0
C  C68  1  0.95844253  0.57635088  0.42328254  1  -0.048641  0.000139  -0.084069  -0.109686  7e-05  3.978374  0.0
C  C69  1  0.99299453  0.25573298  0.27280426  1  0.966113  0.001537  0.142571  0.095452  0.000225  3.898389  0.001
C  C70  1  0.16071994  0.18395646  0.29746199  1  0.376818  0.001681  -0.000901  -0.027335  0.000719  3.98854  0.001
C  C71  1  0.19915737  0.28781048  0.35900602  1  0.306537  0.002475  -0.004991  -0.110327  0.001412  3.928701  0.002
C  C72  1  0.44340340  0.12350323  0.61750566  1  0.399636  -0.003286  0.014216  0.051915  -0.004736  3.94793  -0.002
C  C73  1  0.58468309  0.22101767  0.63865738  1  -0.087835  0.004561  -0.133099  -0.193683  0.002566  4.069379  0.003
C  C74  1  0.54883028  0.31279097  0.63007958  1  -0.043998  0.000776  -0.123437  -0.213155  -0.000896  4.027994  0.001
C  C75  1  0.38515111  0.26847698  0.60430934  1  0.377629  0.00271  0.056878  0.109602  0.001588  4.079033  0.002
C  C76  1  0.29592888  0.33395400  0.59658230  1  0.007742  0.000377  0.022149  -0.017956  -0.000383  3.948278  0.0
C  C77  1  0.13368687  0.29221800  0.58046642  1  0.333649  0.002178  0.062449  0.123739  0.001341  4.047902  0.002
C  C78  1  0.04430021  0.35185149  0.55614349  1  -0.108235  -0.004606  -0.121341  -0.202909  -0.005774  4.01819  -0.002
C  C79  1  0.89490518  0.27229554  0.53019312  1  -0.091309  0.005329  -0.12862  -0.179829  0.002891  4.043019  0.004
C  C80  1  0.89555248  0.16728740  0.54166677  1  0.427709  -0.007695  0.020185  0.052686  -0.009051  3.947798  -0.005
C  C81  1  0.38436720  0.45756663  0.60495837  1  -0.009575  -0.000298  -0.001382  0.074393  -0.000328  3.992019  0.0
C  C82  1  0.49945373  0.48992636  0.55060750  1  0.021866  0.000221  -0.085352  -0.11796  0.00011  4.001525  0.0
C  C83  1  0.58468139  0.60517873  0.55835049  1  -0.083434  -0.000129  -0.093018  -0.173612  -0.000169  4.001519  0.0
C  C84  1  0.55957669  0.69088301  0.62311378  1  0.3152  0.000985  0.098587  0.174691  0.000606  4.013931  0.001
C  C85  1  0.44767334  0.66051064  0.67902242  1  -0.0126  6.2e-05  -0.083957  -0.155458  -4.1e-05  3.974395  0.0
C  C86  1  0.35960167  0.54481778  0.66890597  1  -0.065813  0.000207  -0.078265  -0.101565  0.000108  3.948783  0.0
C  C87  1  0.79878392  0.84922387  0.61176733  1  0.956989  -0.004171  0.143813  0.101025  -0.005186  3.890978  -0.003
C  C88  1  0.73157956  0.99618340  0.65833891  1  0.429418  0.001237  -0.000714  -0.038347  0.000766  4.012309  0.001
C  C89  1  0.60550196  0.90197020  0.66204385  1  0.271544  0.002994  -0.000214  -0.105987  0.001678  3.909277  0.002
C  C90  1  0.75017190  0.94167754  0.22847572  1  0.446157  -0.005617  0.01522  0.049222  -0.006787  3.965611  -0.003
C  C91  1  0.63754127  0.83673831  0.23513181  1  -0.060553  0.004499  -0.133231  -0.193336  0.002461  4.072914  0.003
C  C92  1  0.59818818  0.76245831  0.15218907  1  -0.114849  -0.002636  -0.124685  -0.214627  -0.003715  4.038236  -0.001
C  C93  1  0.68719626  0.82519788  0.09707304  1  0.337221  0.001771  0.054446  0.107826  0.001139  4.078805  0.001
C  C94  1  0.68401993  0.78399566  0.00707620  1  -0.037125  -0.000168  0.018193  -0.023253  -0.000715  3.954677  0.0
C  C95  1  0.77762825  0.84327028  0.95421122  1  0.374662  0.003184  0.061226  0.123472  0.002294  4.062881  0.003
C  C96  1  0.76488690  0.80572422  0.86166903  1  -0.091935  -0.003513  -0.122348  -0.202563  -0.004901  4.013231  -0.002
C  C97  1  0.87289919  0.89356090  0.83642655  1  -0.073208  0.00595  -0.129856  -0.177901  0.003246  4.039691  0.004
C  C98  1  0.94928075  0.98197519  0.91351156  1  0.443512  -0.008164  0.022269  0.066796  -0.00974  3.928321  -0.005
C  C99  1  0.56939782  0.66657480  0.96409999  1  -0.033737  -0.000459  -0.003303  0.077735  -0.00048  3.997158  0.0
C  C100  1  0.40989710  0.64384470  0.96266109  1  -0.026611  0.000195  -0.083121  -0.105255  9.5e-05  3.970046  0.0
C  C101  1  0.30195696  0.53470163  0.92152526  1  0.003702  3.5e-05  -0.095372  -0.17373  -2.8e-05  4.003927  0.0
C  C102  1  0.35209444  0.44507326  0.88339982  1  0.267917  0.000777  0.099366  0.17527  0.00045  4.027959  0.001
C  C103  1  0.51084212  0.46595210  0.88439435  1  0.030789  -0.000226  -0.089699  -0.160819  -0.000283  3.981884  0.0
C  C104  1  0.61772394  0.57639758  0.92342320  1  0.037305  0.000143  -0.084127  -0.112499  7.7e-05  3.978926  0.0
C  C105  1  0.26268492  0.25605152  0.77291290  1  0.986375  0.001546  0.142142  0.09608  0.000304  3.897714  0.001
C  C106  1  0.02320216  0.18415390  0.79745174  1  0.378753  0.001629  -0.000639  -0.027979  0.000687  3.988558  0.001
C  C107  1  0.08836941  0.28802978  0.85902304  1  0.280709  0.002478  -0.004274  -0.106185  0.001407  3.922498  0.002
C  C108  1  0.68021254  0.12374053  0.11784172  1  0.389594  -0.003505  0.013431  0.051965  -0.00498  3.948344  -0.002
C  C109  1  0.63645465  0.22129355  0.13908709  1  -0.040634  0.004504  -0.132371  -0.19339  0.00253  4.071111  0.003
C  C110  1  0.76389994  0.31301087  0.13027653  1  -0.096599  0.000674  -0.124165  -0.215248  -0.001056  4.030138  0.001
C  C111  1  0.88309987  0.26859517  0.10424020  1  0.379136  0.002701  0.057102  0.111635  0.001604  4.074524  0.002
C  C112  1  0.03779804  0.33406521  0.09649061  1  -0.036939  0.000492  0.022127  -0.019047  -0.000315  3.946708  0.001
C  C113  1  0.15839241  0.29234460  0.08057301  1  0.382924  0.002187  0.062897  0.125013  0.001361  4.045843  0.002
C  C114  1  0.30746612  0.35198707  0.05625430  1  -0.161678  -0.004527  -0.121145  -0.202898  -0.005673  4.018049  -0.002
C  C115  1  0.37722101  0.27238305  0.03023775  1  -0.07585  0.005491  -0.129002  -0.179838  0.002957  4.045519  0.004
C  C116  1  0.27152666  0.16730749  0.04145798  1  0.490512  -0.007644  0.019121  0.051337  -0.008953  3.951718  -0.004
C  C117  1  0.07300648  0.45762187  0.10479047  1  -0.016696  -0.000216  -0.00186  0.075089  -0.000247  3.991134  0.0
C  C118  1  0.98991645  0.49018659  0.05076089  1  -0.00794  8.6e-05  -0.085981  -0.119516  3e-05  4.003934  0.0
C  C119  1  0.02012739  0.60546392  0.05857700  1  -0.096147  -0.000132  -0.093169  -0.172101  -0.000181  3.999904  0.0
C  C120  1  0.13157334  0.69109819  0.12309237  1  0.303766  0.00089  0.098935  0.174463  0.000542  4.011655  0.001
C  C121  1  0.21339256  0.66050236  0.17870794  1  -0.057725  6.2e-05  -0.083838  -0.153966  -1.9e-05  3.972209  0.0
C  C122  1  0.18561769  0.54476844  0.16847614  1  0.039343  0.000312  -0.078627  -0.102918  0.000167  3.947885  0.0
C  C123  1  0.05129300  0.84966026  0.11158914  1  0.947074  -0.004505  0.143136  0.100689  -0.005564  3.891148  -0.003
C  C124  1  0.26510373  0.99654923  0.15895164  1  0.359027  0.001341  -0.000272  -0.039208  0.00086  4.013513  0.001
C  C125  1  0.29684096  0.90220095  0.16254164  1  0.29218  0.003081  -0.000286  -0.106129  0.00175  3.910505  0.002
N  N126  1  0.15416393  0.93538843  0.64683270  1  -1.169092  0.073917  -0.358068  -0.302612  0.043525  3.543992  0.066
N  N127  1  0.05873928  0.95267683  0.48334958  1  -1.163493  0.090726  -0.352287  -0.282834  0.052969  3.538268  0.081
N  N128  1  0.09189326  0.33363496  0.34253221  1  -1.278077  0.002273  -0.228254  0.008406  0.000959  3.803629  0.002
N  N129  1  0.03337006  0.16553471  0.24294288  1  -1.151114  0.054821  -0.328148  -0.25448  0.032473  3.489573  0.049
N  N130  1  0.32406933  0.15122326  0.59804678  1  -1.143899  0.088203  -0.354783  -0.284292  0.051486  3.511928  0.078
N  N131  1  0.03597093  0.17853607  0.57243825  1  -1.1568  0.073621  -0.353288  -0.28718  0.043396  3.520157  0.066
N  N132  1  0.64937145  0.80809221  0.63167805  1  -1.265995  0.001176  -0.227901  0.004883  0.000449  3.797142  0.001
N  N133  1  0.85190031  0.96256014  0.62740966  1  -1.1668  0.056731  -0.327705  -0.256432  0.033702  3.495645  0.051
N  N134  1  0.78166312  0.93534815  0.14689029  1  -1.159734  0.074295  -0.357464  -0.302092  0.043739  3.54391  0.066
N  N135  1  0.89408985  0.95283403  0.98347582  1  -1.15832  0.090767  -0.35207  -0.282022  0.053035  3.539194  0.081
N  N136  1  0.24150529  0.33394055  0.84258432  1  -1.274893  0.002234  -0.229759  0.002123  0.000932  3.80425  0.002
N  N137  1  0.13218582  0.16577223  0.74302160  1  -1.175924  0.054829  -0.328313  -0.254753  0.032414  3.486904  0.049
N  N138  1  0.82704213  0.15134866  0.09805985  1  -1.146041  0.088202  -0.354934  -0.285785  0.051579  3.510325  0.078
N  N139  1  0.14242630  0.17861759  0.07239593  1  -1.164587  0.073933  -0.352557  -0.286338  0.043596  3.52154  0.066
N  N140  1  0.15936488  0.80836301  0.13166412  1  -1.268538  0.001232  -0.227043  0.005777  0.000488  3.795602  0.001
N  N141  1  0.11141755  0.96304054  0.12766823  1  -1.172642  0.05671  -0.326745  -0.254258  0.033619  3.495513  0.051
