# generated using pymatgen
data_TbH6(C2N3)3
_symmetry_space_group_name_H-M   'P 1'
_cell_length_a   9.33953927
_cell_length_b   9.33953098
_cell_length_c   12.65972862
_cell_angle_alpha   91.66019767
_cell_angle_beta   91.66021516
_cell_angle_gamma   119.55638089
_symmetry_Int_Tables_number   1
_chemical_formula_structural   TbH6(C2N3)3
_chemical_formula_sum   'Tb4 H24 C24 N36'
_cell_volume   958.97884350
_cell_formula_units_Z   4
loop_
 _symmetry_equiv_pos_site_id
 _symmetry_equiv_pos_as_xyz
  1  'x, y, z'
loop_
 _atom_site_type_symbol
 _atom_site_label
 _atom_site_symmetry_multiplicity
 _atom_site_fract_x
 _atom_site_fract_y
 _atom_site_fract_z
 _atom_site_occupancy
 _atom_site_hle17_bader_spin_density
 _atom_site_hle17_ddec_charge
 _atom_site_hle17_ddec_spin_density
 _atom_site_hle17_ddec_sum_bond_order
 _atom_site_hle17_magmom
 _atom_site_hse06_10hf_bader_spin_density
 _atom_site_hse06_10hf_ddec_charge
 _atom_site_hse06_10hf_ddec_spin_density
 _atom_site_hse06_10hf_ddec_sum_bond_order
 _atom_site_hse06_10hf_magmom
 _atom_site_hse06_bader_spin_density
 _atom_site_hse06_ddec_charge
 _atom_site_hse06_ddec_spin_density
 _atom_site_hse06_ddec_sum_bond_order
 _atom_site_hse06_magmom
 _atom_site_pbe_bader_spin_density
 _atom_site_pbe_cm5_charge
 _atom_site_pbe_ddec_charge
 _atom_site_pbe_ddec_spin_density
 _atom_site_pbe_ddec_sum_bond_order
 _atom_site_pbe_magmom
Tb  Tb0  1  0.51929238  0.25727124  0.42777982  1  0  1.836744  0  2.146679  0  0  1.572671  0  2.742632  0  0  1.644335  0  2.670367  0  0  1.776018  1.520309  0  2.794337  0
Tb  Tb1  1  0.74272950  0.48070673  0.07222042  1  0  1.836791  0  2.146624  0  0  1.572718  0  2.742573  0  0  1.64438  0  2.67031  0  0  1.776045  1.520356  0  2.79428  0
Tb  Tb2  1  0.48070732  0.74273057  0.57222014  1  0  1.836818  0  2.146607  0  0  1.572709  0  2.742626  0  0  1.644368  0  2.670365  0  0  1.776009  1.520348  0  2.794332  0
Tb  Tb3  1  0.25727113  0.51929261  0.92777951  1  0  1.836762  0  2.146676  0  0  1.572656  0  2.742686  0  0  1.644312  0  2.67043  0  0  1.775995  1.520293  0  2.79439  0
H  H4  1  0.22009238  0.29224224  0.23534514  1  0  0.107056  0  0.956607  0  0  0.115953  0  1.018752  0  0  0.117904  0  1.01877  0  0  0.122918  0.114567  0  1.018745  0
H  H5  1  0.70775890  0.77990846  0.26465589  1  0  0.107119  0  0.956496  0  0  0.116012  0  1.018644  0  0  0.117959  0  1.018673  0  0  0.122943  0.114612  0  1.018653  0
H  H6  1  0.77990779  0.70775833  0.76465559  1  0  0.107108  0  0.956515  0  0  0.116006  0  1.018657  0  0  0.117953  0  1.018687  0  0  0.122951  0.11462  0  1.01865  0
H  H7  1  0.29224174  0.22009088  0.73534483  1  0  0.107082  0  0.956571  0  0  0.115984  0  1.018709  0  0  0.117933  0  1.018733  0  0  0.122934  0.114599  0  1.018703  0
H  H8  1  0.13276507  0.53542523  0.27228342  1  0  0.111234  0  0.952445  0  0  0.119536  0  1.01253  0  0  0.121827  0  1.012097  0  0  0.122814  0.118273  0  1.012303  0
H  H9  1  0.46457314  0.86723407  0.22771590  1  0  0.111212  0  0.952373  0  0  0.119516  0  1.012463  0  0  0.121807  0  1.01203  0  0  0.122804  0.118254  0  1.012236  0
H  H10  1  0.86723282  0.46457287  0.72771642  1  0  0.111223  0  0.952369  0  0  0.119529  0  1.012457  0  0  0.121821  0  1.012023  0  0  0.122802  0.118267  0  1.012233  0
H  H11  1  0.53542750  0.13276527  0.77228403  1  0  0.111246  0  0.952448  0  0  0.119542  0  1.012532  0  0  0.121833  0  1.012099  0  0  0.122825  0.118279  0  1.012306  0
H  H12  1  0.90053324  0.25506647  0.33551700  1  0  0.10128  0  0.97186  0  0  0.106749  0  1.040547  0  0  0.109106  0  1.039763  0  0  0.120814  0.10495  0  1.041572  0
H  H13  1  0.74493828  0.09946721  0.16448497  1  0  0.101259  0  0.971895  0  0  0.106734  0  1.04057  0  0  0.109084  0  1.039791  0  0  0.120789  0.104936  0  1.041594  0
H  H14  1  0.09946829  0.74493903  0.66448387  1  0  0.101241  0  0.971897  0  0  0.106708  0  1.040583  0  0  0.109063  0  1.039801  0  0  0.12079  0.104909  0  1.04161  0
H  H15  1  0.25506129  0.90053213  0.83551572  1  0  0.101274  0  0.971887  0  0  0.106738  0  1.040581  0  0  0.109094  0  1.039798  0  0  0.1208  0.10494  0  1.041608  0
H  H16  1  0.97287144  0.01277103  0.39990770  1  0  0.103874  0  0.957858  0  0  0.112097  0  1.021766  0  0  0.114614  0  1.020817  0  0  0.120408  0.110345  0  1.022525  0
H  H17  1  0.98723254  0.02713071  0.10009195  1  0  0.103841  0  0.957884  0  0  0.11207  0  1.021795  0  0  0.114589  0  1.020851  0  0  0.120399  0.110317  0  1.022554  0
H  H18  1  0.02713163  0.98723324  0.60009159  1  0  0.103865  0  0.957893  0  0  0.112092  0  1.021806  0  0  0.114612  0  1.02086  0  0  0.120397  0.11034  0  1.022565  0
H  H19  1  0.01276702  0.97286863  0.89990953  1  0  0.103869  0  0.957897  0  0  0.1121  0  1.021797  0  0  0.11462  0  1.020847  0  0  0.120404  0.110348  0  1.022555  0
H  H20  1  0.15934532  0.88544968  0.15965739  1  0  0.112041  0  0.96658  0  0  0.11842  0  1.031882  0  0  0.12139  0  1.030192  0  0  0.12355  0.116219  0  1.033359  0
H  H21  1  0.11454807  0.84065416  0.34034347  1  0  0.112038  0  0.966568  0  0  0.118408  0  1.031861  0  0  0.12138  0  1.030168  0  0  0.123537  0.116207  0  1.033338  0
H  H22  1  0.84065471  0.11454843  0.84034330  1  0  0.112048  0  0.966562  0  0  0.118415  0  1.031871  0  0  0.121386  0  1.030179  0  0  0.123534  0.116215  0  1.033348  0
H  H23  1  0.88545042  0.15934518  0.65965721  1  0  0.11202  0  0.96654  0  0  0.118399  0  1.031862  0  0  0.121368  0  1.030172  0  0  0.123543  0.116203  0  1.033326  0
H  H24  1  0.36552111  0.07632266  0.00398715  1  0  0.100078  0  0.982133  0  0  0.109421  0  1.045404  0  0  0.111257  0  1.045562  0  0  0.121175  0.107744  0  1.045967  0
H  H25  1  0.92367537  0.63447786  0.49601383  1  0  0.100054  0  0.982154  0  0  0.109402  0  1.045415  0  0  0.111239  0  1.045572  0  0  0.121167  0.10772  0  1.045991  0
H  H26  1  0.63447617  0.92367421  0.99601266  1  0  0.100073  0  0.982151  0  0  0.10942  0  1.045407  0  0  0.111257  0  1.045564  0  0  0.121179  0.107736  0  1.045988  0
H  H27  1  0.07632480  0.36552271  0.50398612  1  0  0.100069  0  0.98213  0  0  0.10941  0  1.045399  0  0  0.111247  0  1.045556  0  0  0.121171  0.107729  0  1.045973  0
C  C28  1  0.26269266  0.38931277  0.29697262  1  0  0.022757  0  3.672406  0  0  -0.012707  0  3.939584  0  0  -0.009578  0  3.956399  0  0  0.020727  -0.014558  0  3.928271  0
C  C29  1  0.61068749  0.73730833  0.20302602  1  0  0.022667  0  3.672404  0  0  -0.012797  0  3.939589  0  0  -0.009671  0  3.956407  0  0  0.020684  -0.014636  0  3.928282  0
C  C30  1  0.73730798  0.61068657  0.70302573  1  0  0.022717  0  3.672399  0  0  -0.012749  0  3.939583  0  0  -0.009623  0  3.956402  0  0  0.020703  -0.0146  0  3.928274  0
C  C31  1  0.38931314  0.26269101  0.79697312  1  0  0.022701  0  3.672391  0  0  -0.012776  0  3.939587  0  0  -0.009647  0  3.956403  0  0  0.020701  -0.014627  0  3.928279  0
C  C32  1  0.21873283  0.50990903  0.31567823  1  0  0.012222  0  3.698628  0  0  -0.016332  0  3.967659  0  0  -0.014923  0  3.983433  0  0  0.014086  -0.017276  0  3.956493  0
C  C33  1  0.49009307  0.78126598  0.18432039  1  0  0.012281  0  3.698598  0  0  -0.016274  0  3.967638  0  0  -0.014866  0  3.983412  0  0  0.014143  -0.017218  0  3.956468  0
C  C34  1  0.78126580  0.49009276  0.68432092  1  0  0.012254  0  3.698636  0  0  -0.016307  0  3.967678  0  0  -0.014899  0  3.983455  0  0  0.014133  -0.017251  0  3.956517  0
C  C35  1  0.50990910  0.21873213  0.81567876  1  0  0.012254  0  3.698583  0  0  -0.016283  0  3.967601  0  0  -0.014874  0  3.983375  0  0  0.014129  -0.017228  0  3.95644  0
C  C36  1  0.83080759  0.14800068  0.38123246  1  0  0.00182  0  3.727056  0  0  -0.029533  0  3.9923  0  0  -0.026635  0  4.008945  0  0  0.017265  -0.031683  0  3.981801  0
C  C37  1  0.85199875  0.16919011  0.11876935  1  0  0.0018  0  3.72695  0  0  -0.029545  0  3.992184  0  0  -0.026642  0  4.008836  0  0  0.017282  -0.031694  0  3.981683  0
C  C38  1  0.16918983  0.85199865  0.61876740  1  0  0.001916  0  3.726928  0  0  -0.029428  0  3.992161  0  0  -0.026529  0  4.00881  0  0  0.017298  -0.031579  0  3.981666  0
C  C39  1  0.14800082  0.83080923  0.88123213  1  0  0.001819  0  3.727039  0  0  -0.029533  0  3.992281  0  0  -0.026634  0  4.008926  0  0  0.017276  -0.031684  0  3.981785  0
C  C40  1  0.86658536  0.02734218  0.41341171  1  0  0.001676  0  3.717597  0  0  -0.026303  0  3.981954  0  0  -0.025482  0  3.998186  0  0  0.011958  -0.026904  0  3.970978  0
C  C41  1  0.97266298  0.13341551  0.08658872  1  0  0.001769  0  3.717514  0  0  -0.026225  0  3.981861  0  0  -0.02541  0  3.9981  0  0  0.011987  -0.026826  0  3.970885  0
C  C42  1  0.13341510  0.97266331  0.58658676  1  0  0.001626  0  3.717511  0  0  -0.026364  0  3.98187  0  0  -0.025548  0  3.998108  0  0  0.011949  -0.026965  0  3.970896  0
C  C43  1  0.02733826  0.86658507  0.91341282  1  0  0.001643  0  3.717548  0  0  -0.02634  0  3.9819  0  0  -0.025521  0  3.998133  0  0  0.011954  -0.026942  0  3.970926  0
C  C44  1  0.27654729  0.99921717  0.16693861  1  0  -4.8e-05  0  3.698939  0  0  -0.028108  0  3.965245  0  0  -0.027373  0  3.98108  0  0  0.012469  -0.028562  0  3.954774  0
C  C45  1  0.00078056  0.72345232  0.33306225  1  0  -3.8e-05  0  3.698928  0  0  -0.028088  0  3.965265  0  0  -0.027349  0  3.981086  0  0  0.012474  -0.028542  0  3.954792  0
C  C46  1  0.72345274  0.00078094  0.83306207  1  0  -9.7e-05  0  3.69899  0  0  -0.028146  0  3.965306  0  0  -0.027414  0  3.981142  0  0  0.012451  -0.028601  0  3.954838  0
C  C47  1  0.99922189  0.27655072  0.66693701  1  0  -5.4e-05  0  3.699034  0  0  -0.028109  0  3.965306  0  0  -0.027377  0  3.981147  0  0  0.012451  -0.028562  0  3.954841  0
C  C48  1  0.37935967  0.09328302  0.08927823  1  0  0.024626  0  3.686575  0  0  -0.012324  0  3.950821  0  0  -0.008864  0  3.967881  0  0  0.020541  -0.014203  0  3.93904  0
C  C49  1  0.90671550  0.62063975  0.41072197  1  0  0.024642  0  3.686631  0  0  -0.012306  0  3.950881  0  0  -0.008846  0  3.967942  0  0  0.020531  -0.014186  0  3.939099  0
C  C50  1  0.62063928  0.90671509  0.91072163  1  0  0.024669  0  3.686624  0  0  -0.012269  0  3.950863  0  0  -0.008808  0  3.96792  0  0  0.020556  -0.014148  0  3.939079  0
C  C51  1  0.09328467  0.37936082  0.58927877  1  0  0.024691  0  3.68666  0  0  -0.012243  0  3.950895  0  0  -0.008784  0  3.967953  0  0  0.020559  -0.014123  0  3.939114  0
N  N52  1  0.37896299  0.41163332  0.37236268  1  0  -0.315159  0  3.251245  0  0  -0.266509  0  3.541102  0  0  -0.27972  0  3.561816  0  0  -0.311307  -0.257243  0  3.526687  0
N  N53  1  0.58836754  0.62103649  0.12763832  1  0  -0.315197  0  3.25131  0  0  -0.266545  0  3.541164  0  0  -0.27975  0  3.561862  0  0  -0.311328  -0.257279  0  3.526743  0
N  N54  1  0.62103611  0.58836725  0.62763803  1  0  -0.315214  0  3.251253  0  0  -0.266561  0  3.541112  0  0  -0.279766  0  3.561812  0  0  -0.311344  -0.257294  0  3.526699  0
N  N55  1  0.41163356  0.37896163  0.87236238  1  0  -0.315188  0  3.251264  0  0  -0.266532  0  3.541128  0  0  -0.279742  0  3.561838  0  0  -0.311323  -0.257265  0  3.526713  0
N  N56  1  0.40533867  0.54182724  0.43362310  1  0  -0.221576  0  3.348703  0  0  -0.175861  0  3.631119  0  0  -0.18591  0  3.655969  0  0  -0.266015  -0.168504  0  3.613695  0
N  N57  1  0.45817428  0.59466070  0.06637711  1  0  -0.221536  0  3.348768  0  0  -0.175822  0  3.631184  0  0  -0.18587  0  3.656033  0  0  -0.266002  -0.168465  0  3.613758  0
N  N58  1  0.59466043  0.45817333  0.56637682  1  0  -0.221515  0  3.348721  0  0  -0.175801  0  3.63113  0  0  -0.185847  0  3.65598  0  0  -0.265987  -0.168443  0  3.613706  0
N  N59  1  0.54182574  0.40533741  0.93362357  1  0  -0.22155  0  3.348772  0  0  -0.175833  0  3.631178  0  0  -0.18588  0  3.656027  0  0  -0.266009  -0.168475  0  3.613754  0
N  N60  1  0.31031190  0.60328870  0.40172556  1  0  -0.315145  0  3.16543  0  0  -0.271865  0  3.442526  0  0  -0.282563  0  3.462409  0  0  -0.301441  -0.264534  0  3.429239  0
N  N61  1  0.39671180  0.68968643  0.09827459  1  0  -0.315155  0  3.165497  0  0  -0.271871  0  3.442591  0  0  -0.282568  0  3.462473  0  0  -0.301462  -0.264539  0  3.429303  0
N  N62  1  0.68968613  0.39671187  0.59827434  1  0  -0.315175  0  3.165526  0  0  -0.271898  0  3.442623  0  0  -0.282596  0  3.462507  0  0  -0.301472  -0.264566  0  3.429338  0
N  N63  1  0.60328883  0.31031292  0.90172613  1  0  -0.315146  0  3.165503  0  0  -0.271874  0  3.442603  0  0  -0.282573  0  3.462487  0  0  -0.301456  -0.264542  0  3.429318  0
N  N64  1  0.68354749  0.11326320  0.41924817  1  0  -0.307599  0  3.245553  0  0  -0.260377  0  3.533903  0  0  -0.272989  0  3.553585  0  0  -0.308044  -0.251152  0  3.520565  0
N  N65  1  0.88673918  0.31645388  0.08075219  1  0  -0.307581  0  3.245522  0  0  -0.260366  0  3.533876  0  0  -0.272977  0  3.553557  0  0  -0.308058  -0.251141  0  3.520537  0
N  N66  1  0.31645329  0.88673860  0.58075182  1  0  -0.307627  0  3.245565  0  0  -0.260403  0  3.533924  0  0  -0.273015  0  3.553607  0  0  -0.308081  -0.251178  0  3.520586  0
N  N67  1  0.11326038  0.68354546  0.91924772  1  0  -0.307623  0  3.245629  0  0  -0.260398  0  3.533979  0  0  -0.273008  0  3.553661  0  0  -0.308093  -0.251172  0  3.52064  0
N  N68  1  0.63209889  0.97643519  0.47246548  1  0  -0.219891  0  3.335355  0  0  -0.177316  0  3.624752  0  0  -0.187098  0  3.647881  0  0  -0.260315  -0.169905  0  3.608334  0
N  N69  1  0.02356559  0.36790160  0.02753472  1  0  -0.219861  0  3.33544  0  0  -0.177286  0  3.624842  0  0  -0.187067  0  3.647972  0  0  -0.260289  -0.169876  0  3.608422  0
N  N70  1  0.36790128  0.02356538  0.52753368  1  0  -0.219866  0  3.335418  0  0  -0.177294  0  3.62481  0  0  -0.187079  0  3.647942  0  0  -0.260287  -0.169883  0  3.60839  0
N  N71  1  0.97643337  0.63209651  0.97246515  1  0  -0.219793  0  3.33551  0  0  -0.177216  0  3.624894  0  0  -0.187  0  3.648026  0  0  -0.260243  -0.169807  0  3.608474  0
N  N72  1  0.73980759  0.92192017  0.47054991  1  0  -0.313311  0  3.148041  0  0  -0.274234  0  3.431045  0  0  -0.283846  0  3.449413  0  0  -0.295824  -0.267254  0  3.418808  0
N  N73  1  0.07808117  0.26019364  0.02944954  1  0  -0.313371  0  3.14807  0  0  -0.274299  0  3.431092  0  0  -0.283909  0  3.44946  0  0  -0.295859  -0.267317  0  3.418854  0
N  N74  1  0.26019486  0.07808287  0.52944855  1  0  -0.313282  0  3.148012  0  0  -0.274211  0  3.431026  0  0  -0.283822  0  3.449396  0  0  -0.295798  -0.267229  0  3.418788  0
N  N75  1  0.92191778  0.73980447  0.97055033  1  0  -0.313326  0  3.148081  0  0  -0.274258  0  3.431099  0  0  -0.28387  0  3.449468  0  0  -0.295848  -0.267275  0  3.418859  0
N  N76  1  0.35159858  0.07364931  0.26186775  1  0  -0.321408  0  3.146678  0  0  -0.278066  0  3.424378  0  0  -0.28781  0  3.442063  0  0  -0.29438  -0.271375  0  3.413076  0
N  N77  1  0.92634977  0.64840163  0.23813248  1  0  -0.321431  0  3.14667  0  0  -0.278089  0  3.424367  0  0  -0.287833  0  3.442053  0  0  -0.294369  -0.271396  0  3.413064  0
N  N78  1  0.64840252  0.92634880  0.73813216  1  0  -0.321395  0  3.146696  0  0  -0.278046  0  3.42439  0  0  -0.287788  0  3.442076  0  0  -0.294336  -0.271355  0  3.413093  0
N  N79  1  0.07364979  0.35159771  0.76186743  1  0  -0.321401  0  3.146668  0  0  -0.278055  0  3.424369  0  0  -0.287795  0  3.442053  0  0  -0.294354  -0.271362  0  3.413071  0
N  N80  1  0.49382590  0.20682848  0.24213183  1  0  -0.215627  0  3.329326  0  0  -0.171403  0  3.612443  0  0  -0.18088  0  3.635889  0  0  -0.260528  -0.164824  0  3.596628  0
N  N81  1  0.79316984  0.50617396  0.25786916  1  0  -0.21561  0  3.329359  0  0  -0.171377  0  3.612462  0  0  -0.180857  0  3.635911  0  0  -0.260508  -0.164798  0  3.596648  0
N  N82  1  0.50617474  0.79317086  0.75786810  1  0  -0.215646  0  3.329367  0  0  -0.171414  0  3.612477  0  0  -0.180894  0  3.635925  0  0  -0.260545  -0.164836  0  3.596667  0
N  N83  1  0.20682973  0.49382538  0.74213233  1  0  -0.215635  0  3.329349  0  0  -0.171402  0  3.612459  0  0  -0.18088  0  3.635905  0  0  -0.260535  -0.164824  0  3.596649  0
N  N84  1  0.51389199  0.22259129  0.13832321  1  0  -0.305686  0  3.230866  0  0  -0.253946  0  3.513153  0  0  -0.266795  0  3.533389  0  0  -0.306898  -0.244468  0  3.49855  0
N  N85  1  0.77740816  0.48610808  0.36167702  1  0  -0.305695  0  3.231006  0  0  -0.253958  0  3.513298  0  0  -0.266808  0  3.533538  0  0  -0.306898  -0.24448  0  3.498696  0
N  N86  1  0.48610757  0.77740805  0.86167669  1  0  -0.305698  0  3.231008  0  0  -0.253957  0  3.513297  0  0  -0.266806  0  3.533533  0  0  -0.306899  -0.244477  0  3.498694  0
N  N87  1  0.22259262  0.51389373  0.63832376  1  0  -0.305717  0  3.230982  0  0  -0.253981  0  3.513277  0  0  -0.266829  0  3.533512  0  0  -0.306887  -0.244501  0  3.498676  0
