# generated using pymatgen
data_CdH7C12(NO2)3
_symmetry_space_group_name_H-M   'P 1'
_cell_length_a   7.46959588
_cell_length_b   14.37515267
_cell_length_c   21.13999082
_cell_angle_alpha   90.00002836
_cell_angle_beta   89.99999250
_cell_angle_gamma   92.82879199
_symmetry_Int_Tables_number   1
_chemical_formula_structural   CdH7C12(NO2)3
_chemical_formula_sum   'Cd4 H28 C48 N12 O24'
_cell_volume   2267.17393502
_cell_formula_units_Z   4
loop_
 _symmetry_equiv_pos_site_id
 _symmetry_equiv_pos_as_xyz
  1  'x, y, z'
loop_
 _atom_site_type_symbol
 _atom_site_label
 _atom_site_symmetry_multiplicity
 _atom_site_fract_x
 _atom_site_fract_y
 _atom_site_fract_z
 _atom_site_occupancy
 _atom_site_pbe_bader_charge
 _atom_site_pbe_bader_spin_density
 _atom_site_pbe_cm5_charge
 _atom_site_pbe_ddec_charge
 _atom_site_pbe_ddec_spin_density
 _atom_site_pbe_ddec_sum_bond_order
 _atom_site_pbe_magmom
Cd  Cd0  1  0.48770758  0.39495306  0.56411004  1  1.289651  0  0.77537  0.879006  0  2.236229  0
Cd  Cd1  1  0.51229608  0.10504757  0.06411025  1  1.289603  0  0.775375  0.879012  0  2.236202  0
Cd  Cd2  1  0.51229668  0.60504797  0.43588959  1  1.289612  0  0.77537  0.879002  0  2.236203  0
Cd  Cd3  1  0.48770685  0.89495346  0.93588986  1  1.289608  0  0.775375  0.879003  0  2.236254  0
H  H4  1  0.50806073  0.33097908  0.90330933  1  0.119131  0  0.117679  0.137192  0  0.980881  0
H  H5  1  0.49193741  0.16902109  0.40330909  1  0.119134  0  0.117681  0.137179  0  0.9809  0
H  H6  1  0.49193678  0.66902125  0.09669030  1  0.119152  0  0.117683  0.137185  0  0.980885  0
H  H7  1  0.50806412  0.83097924  0.59669055  1  0.119116  0  0.117671  0.137153  0  0.980914  0
H  H8  1  0.49389286  0.05953179  0.81579174  1  0.120674  0  0.103597  0.122605  0  1.044299  0
H  H9  1  0.50610665  0.44046832  0.31579159  1  0.120668  0  0.103595  0.122601  0  1.044306  0
H  H10  1  0.50610331  0.94046854  0.18420836  1  0.120667  0  0.103603  0.122633  0  1.044275  0
H  H11  1  0.49389360  0.55953271  0.68420852  1  0.120696  0  0.103602  0.122584  0  1.044324  0
H  H12  1  0.48327406  0.13456618  0.70990146  1  0.121965  0  0.106416  0.113962  0  1.033267  0
H  H13  1  0.51672541  0.36543316  0.20990128  1  0.122002  0  0.106402  0.113944  0  1.033343  0
H  H14  1  0.51672612  0.86543415  0.29009865  1  0.121959  0  0.106413  0.113962  0  1.033258  0
H  H15  1  0.48327076  0.63456717  0.79009883  1  0.121965  0  0.10641  0.113938  0  1.033326  0
H  H16  1  0.82687236  0.52202954  0.61583572  1  0.132152  0  0.135548  0.11863  0  0.966731  0
H  H17  1  0.17313235  0.97796887  0.11583559  1  0.132086  0  0.135551  0.118645  0  0.96675  0
H  H18  1  0.17313178  0.47797009  0.38416439  1  0.132112  0  0.135524  0.118599  0  0.966737  0
H  H19  1  0.82687032  0.02202937  0.88416357  1  0.132131  0  0.135535  0.118611  0  0.966745  0
H  H20  1  0.16972539  0.52362056  0.61584803  1  0.141289  0  0.133938  0.115376  0  0.97306  0
H  H21  1  0.83027932  0.97637785  0.11584835  1  0.141114  0  0.13396  0.115391  0  0.973029  0
H  H22  1  0.83027747  0.47637977  0.38415207  1  0.141137  0  0.133946  0.115392  0  0.973075  0
H  H23  1  0.16972335  0.02362039  0.88415128  1  0.141115  0  0.133969  0.115405  0  0.973037  0
H  H24  1  0.15145457  0.28418608  0.50589714  1  0.148043  0  0.137194  0.122183  0  0.966282  0
H  H25  1  0.84854885  0.21581172  0.00589784  1  0.148094  0  0.137193  0.122147  0  0.9664  0
H  H26  1  0.84854950  0.71581286  0.49410391  1  0.147911  0  0.137191  0.122124  0  0.966367  0
H  H27  1  0.15145395  0.78418791  0.99410368  1  0.148058  0  0.137198  0.122168  0  0.966317  0
H  H28  1  0.80786473  0.28340443  0.50517385  1  0.146083  0  0.136306  0.120068  0  0.968687  0
H  H29  1  0.19213742  0.21659407  0.00517411  1  0.146103  0  0.136318  0.120112  0  0.968658  0
H  H30  1  0.19213794  0.71659381  0.49482720  1  0.146071  0  0.136299  0.120077  0  0.968677  0
H  H31  1  0.80786411  0.78340627  0.99482694  1  0.146093  0  0.136317  0.120125  0  0.968651  0
C  C32  1  0.48782128  0.27391520  0.74582912  1  0.062496  0  -0.002795  -0.055492  0  3.913936  0
C  C33  1  0.51217690  0.22608486  0.24582889  1  0.062514  0  -0.0028  -0.055497  0  3.914016  0
C  C34  1  0.51217884  0.72608443  0.25417099  1  0.062448  0  -0.002808  -0.055528  0  3.913974  0
C  C35  1  0.48781665  0.77391617  0.75417074  1  0.062544  0  -0.002797  -0.055421  0  3.913799  0
C  C36  1  0.49428106  0.32748927  0.80127333  1  0.156718  0  0.084084  0.061201  0  3.942403  0
C  C37  1  0.50571844  0.17251083  0.30127309  1  0.156673  0  0.08404  0.06117  0  3.9424  0
C  C38  1  0.50571912  0.67251106  0.19872677  1  0.15668  0  0.084101  0.06121  0  3.942376  0
C  C39  1  0.49427645  0.82749020  0.69872654  1  0.156847  0  0.084029  0.061091  0  3.942472  0
C  C40  1  0.50206376  0.28784713  0.86093466  1  -0.003861  0  -0.081495  -0.158235  0  3.954688  0
C  C41  1  0.49793707  0.21215301  0.36093490  1  -0.003873  0  -0.081479  -0.158228  0  3.954644  0
C  C42  1  0.49793509  0.71215320  0.13906497  1  -0.003842  0  -0.081506  -0.15826  0  3.954688  0
C  C43  1  0.50206318  0.78784802  0.63906473  1  -0.0041  0  -0.081507  -0.158213  0  3.954752  0
C  C44  1  0.50161551  0.19067372  0.86651932  1  -0.078259  0  -0.021719  -0.028361  0  4.002236  0
C  C45  1  0.49838392  0.30932574  0.36651959  1  -0.078239  0  -0.021718  -0.028292  0  4.002085  0
C  C46  1  0.49838328  0.80932592  0.13348031  1  -0.078234  0  -0.021715  -0.028296  0  4.002131  0
C  C47  1  0.50161499  0.69067529  0.63348051  1  -0.078228  0  -0.021727  -0.028374  0  4.002156  0
C  C48  1  0.49398738  0.13516887  0.81194833  1  0.044833  0  -0.084987  -0.104153  0  3.9387  0
C  C49  1  0.50601346  0.36483124  0.31194768  1  0.044855  0  -0.084991  -0.104167  0  3.93861  0
C  C50  1  0.50601012  0.86483146  0.18805178  1  0.044829  0  -0.085044  -0.104271  0  3.938677  0
C  C51  1  0.49398545  0.63516979  0.68805243  1  0.044855  0  -0.084957  -0.10404  0  3.938621  0
C  C52  1  0.48772773  0.17693011  0.75256704  1  -0.011044  0  -0.07159  -0.05995  0  3.920986  0
C  C53  1  0.51227045  0.32306995  0.25256638  1  -0.011111  0  -0.071605  -0.059985  0  3.921123  0
C  C54  1  0.51226978  0.82307022  0.24743306  1  -0.011027  0  -0.071585  -0.059916  0  3.920993  0
C  C55  1  0.48772572  0.67693037  0.74743326  1  -0.011111  0  -0.071618  -0.060006  0  3.921037  0
C  C56  1  0.48552864  0.31588298  0.68086079  1  1.582852  0  0.185775  0.558255  0  4.242904  0
C  C57  1  0.51447224  0.18411703  0.18086102  1  1.582872  0  0.185756  0.558232  0  4.242968  0
C  C58  1  0.51447282  0.68411665  0.31913790  1  1.582824  0  0.185905  0.558389  0  4.242877  0
C  C59  1  0.48551998  0.81588399  0.81913908  1  1.582887  0  0.185833  0.558224  0  4.242952  0
C  C60  1  0.50889129  0.14932001  0.93144176  1  1.515286  0  0.19609  0.558686  0  4.242473  0
C  C61  1  0.49111085  0.35068018  0.43144205  1  1.515285  0  0.196137  0.558747  0  4.242392  0
C  C62  1  0.49110896  0.85068101  0.06855787  1  1.515317  0  0.196092  0.55867  0  4.242526  0
C  C63  1  0.50889195  0.64931945  0.56855805  1  1.515312  0  0.196103  0.558652  0  4.242451  0
C  C64  1  0.90086222  0.46981676  0.59078981  1  0.504878  0  0.070851  0.060209  0  3.888684  0
C  C65  1  0.09914251  0.03018110  0.09078954  1  0.504863  0  0.070779  0.060137  0  3.888598  0
C  C66  1  0.09914185  0.53018218  0.40921077  1  0.504877  0  0.070838  0.060228  0  3.888626  0
C  C67  1  0.90086150  0.96981714  0.90921009  1  0.504882  0  0.070844  0.060244  0  3.888618  0
C  C68  1  0.08764732  0.47053050  0.59090715  1  0.521899  0  0.071032  0.059908  0  3.888513  0
C  C69  1  0.91235614  0.02946806  0.09090778  1  0.522351  0  0.071081  0.06001  0  3.888465  0
C  C70  1  0.91235548  0.52946914  0.40909296  1  0.5223  0  0.071077  0.05993  0  3.888583  0
C  C71  1  0.08764660  0.97053088  0.90909233  1  0.522278  0  0.071028  0.059917  0  3.888563  0
C  C72  1  0.07711342  0.33745508  0.52976992  1  0.54099  0  0.070993  0.057156  0  3.889157  0
C  C73  1  0.92289000  0.16254274  0.02977012  1  0.540987  0  0.070913  0.057129  0  3.889376  0
C  C74  1  0.92289059  0.66254316  0.47023114  1  0.541143  0  0.0709  0.057136  0  3.889436  0
C  C75  1  0.07711146  0.83745690  0.97023093  1  0.540969  0  0.070907  0.057143  0  3.889307  0
C  C76  1  0.89053360  0.33699362  0.52943688  1  0.465138  0  0.071381  0.056928  0  3.889749  0
C  C77  1  0.10946847  0.16300419  0.02943712  1  0.465144  0  0.071315  0.056812  0  3.889919  0
C  C78  1  0.10947041  0.66300462  0.47056370  1  0.465136  0  0.071379  0.056885  0  3.890017  0
C  C79  1  0.89053432  0.83699544  0.97056393  1  0.465134  0  0.071299  0.056765  0  3.889947  0
N  N80  1  0.49010249  0.43020544  0.79988215  1  0.404714  0  0.062714  0.531323  0  4.220725  0
N  N81  1  0.50989829  0.06979396  0.29988234  1  0.404731  0  0.06268  0.531321  0  4.220562  0
N  N82  1  0.50989635  0.56979489  0.20011701  1  0.404721  0  0.062714  0.531435  0  4.220642  0
N  N83  1  0.49009648  0.93020567  0.70011824  1  0.403928  0  0.062617  0.531278  0  4.220536  0
N  N84  1  0.80417889  0.40359542  0.55955327  1  -1.214674  0  -0.297548  -0.179999  0  3.485517  0
N  N85  1  0.19582457  0.09640312  0.05955302  1  -1.214743  0  -0.297452  -0.1799  0  3.485484  0
N  N86  1  0.19582384  0.59640352  0.44044731  1  -1.214751  0  -0.2975  -0.179953  0  3.485595  0
N  N87  1  0.80417689  0.90359652  0.94044709  1  -1.214695  0  -0.297418  -0.17988  0  3.48551  0
N  N88  1  0.17397908  0.40474143  0.56002869  1  -1.189771  0  -0.298199  -0.181108  0  3.48983  0
N  N89  1  0.82602566  0.09525641  0.06002935  1  -1.189992  0  -0.298166  -0.181125  0  3.489936  0
N  N90  1  0.82602499  0.59525751  0.43997142  1  -1.189926  0  -0.298167  -0.18106  0  3.489964  0
N  N91  1  0.17397714  0.90474322  0.93997123  1  -1.189946  0  -0.298183  -0.18114  0  3.489947  0
O  O92  1  0.50545757  0.40465065  0.67566071  1  -1.175441  0  -0.339618  -0.572981  0  2.223023  0
O  O93  1  0.49454592  0.09534867  0.17566091  1  -1.175397  0  -0.339599  -0.572975  0  2.223072  0
O  O94  1  0.49454924  0.59534899  0.32433845  1  -1.175411  0  -0.339615  -0.572969  0  2.222997  0
O  O95  1  0.50545292  0.90465166  0.82433919  1  -1.175472  0  -0.339572  -0.572957  0  2.223182  0
O  O96  1  0.46605160  0.26209999  0.63348990  1  -1.149812  0  -0.33652  -0.539008  0  2.115284  0
O  O97  1  0.53394662  0.23789998  0.13349015  1  -1.149801  0  -0.336513  -0.538986  0  2.115294  0
O  O98  1  0.53394585  0.73789964  0.36650926  1  -1.14976  0  -0.336615  -0.539121  0  2.115289  0
O  O99  1  0.46603890  0.76210103  0.86650995  1  -1.149753  0  -0.336593  -0.539013  0  2.115308  0
O  O100  1  0.50353149  0.06115670  0.93884478  1  -1.173663  0  -0.344011  -0.607213  0  2.347078  0
O  O101  1  0.49647065  0.43884350  0.43884462  1  -1.173935  0  -0.344023  -0.607241  0  2.347065  0
O  O102  1  0.49646876  0.93884433  0.06115533  1  -1.17396  0  -0.344009  -0.607233  0  2.347113  0
O  O103  1  0.50352947  0.56115613  0.56115596  1  -1.173674  0  -0.343995  -0.607159  0  2.347066  0
O  O104  1  0.51953115  0.20548889  0.97832968  1  -1.151236  0  -0.328758  -0.547689  0  2.21126  0
O  O105  1  0.48047092  0.29451064  0.47832948  1  -1.15124  0  -0.328767  -0.54772  0  2.211262  0
O  O106  1  0.48047037  0.79451144  0.02167043  1  -1.151244  0  -0.32875  -0.547663  0  2.211269  0
O  O107  1  0.51953188  0.70548899  0.52167063  1  -1.151241  0  -0.328759  -0.547687  0  2.211271  0
O  O108  1  0.63492647  0.47479281  0.80597156  1  -0.435674  0  -0.125443  -0.318634  0  1.865875  0
O  O109  1  0.36507705  0.02520730  0.30597127  1  -0.43563  0  -0.125448  -0.318661  0  1.866081  0
O  O110  1  0.36507371  0.52520752  0.19402760  1  -0.43569  0  -0.125447  -0.318673  0  1.865911  0
O  O111  1  0.63492059  0.97479443  0.69402883  1  -0.435602  0  -0.125404  -0.318619  0  1.865934  0
O  O112  1  0.34087519  0.46357278  0.79667497  1  -0.435215  0  -0.126286  -0.319866  0  1.871905  0
O  O113  1  0.65912833  0.03642732  0.29667562  1  -0.435274  0  -0.126216  -0.319811  0  1.871577  0
O  O114  1  0.65912225  0.53642685  0.20332467  1  -0.435178  0  -0.126286  -0.319924  0  1.871845  0
O  O115  1  0.34087045  0.96357232  0.70332449  1  -0.434457  0  -0.126196  -0.319785  0  1.871625  0
