# generated using pymatgen
data_Zn2PH13C21O8
_symmetry_space_group_name_H-M   'P 1'
_cell_length_a   13.65716617
_cell_length_b   14.85631028
_cell_length_c   19.95941421
_cell_angle_alpha   90.00014698
_cell_angle_beta   107.60969972
_cell_angle_gamma   89.99997015
_symmetry_Int_Tables_number   1
_chemical_formula_structural   Zn2PH13C21O8
_chemical_formula_sum   'Zn8 P4 H52 C84 O32'
_cell_volume   3859.89773096
_cell_formula_units_Z   4
loop_
 _symmetry_equiv_pos_site_id
 _symmetry_equiv_pos_as_xyz
  1  'x, y, z'
loop_
 _atom_site_type_symbol
 _atom_site_label
 _atom_site_symmetry_multiplicity
 _atom_site_fract_x
 _atom_site_fract_y
 _atom_site_fract_z
 _atom_site_occupancy
 _atom_site_pbe_bader_charge
 _atom_site_pbe_bader_spin_density
 _atom_site_pbe_cm5_charge
 _atom_site_pbe_ddec_charge
 _atom_site_pbe_ddec_spin_density
 _atom_site_pbe_ddec_sum_bond_order
 _atom_site_pbe_magmom
Zn  Zn0  1  0.39698785  0.97236256  0.43714669  1  1.3563  0  0.669754  1.015531  0  2.259566  0
Zn  Zn1  1  0.64313128  0.90258207  0.45008622  1  1.362497  0  0.684787  1.022515  0  2.254046  0
Zn  Zn2  1  0.60301337  0.47235816  0.06285386  1  1.356154  0  0.669803  1.015615  0  2.259355  0
Zn  Zn3  1  0.35686685  0.40258246  0.04991254  1  1.362486  0  0.68479  1.022523  0  2.254075  0
Zn  Zn4  1  0.60301360  0.02764161  0.56285571  1  1.356134  0  0.669781  1.015564  0  2.259464  0
Zn  Zn5  1  0.35686865  0.09741873  0.54991335  1  1.362471  0  0.684787  1.022519  0  2.254061  0
Zn  Zn6  1  0.39698733  0.52763860  0.93714487  1  1.356178  0  0.669789  1.015592  0  2.259471  0
Zn  Zn7  1  0.64313155  0.59741766  0.95008570  1  1.36242  0  0.684815  1.022577  0  2.254045  0
P  P8  1  0.72335994  0.97374079  0.30521887  1  2.736976  0  0.263884  0.839321  0  4.830137  0
P  P9  1  0.27664128  0.47374172  0.19478117  1  2.737128  0  0.26394  0.839449  0  4.830181  0
P  P10  1  0.27663999  0.02625799  0.69478120  1  2.737108  0  0.263945  0.839446  0  4.830086  0
P  P11  1  0.72336018  0.52625908  0.80521822  1  2.737076  0  0.263924  0.83949  0  4.829975  0
H  H12  1  0.44417444  0.17267766  0.17676892  1  0.069823  0  0.108532  0.110846  0  1.01391  0
H  H13  1  0.74260254  0.25423215  0.17097706  1  0.084324  0  0.110779  0.118006  0  0.99193  0
H  H14  1  0.56739893  0.05548881  0.42622483  1  0.607101  0  0.310305  0.408025  0  0.882736  0
H  H15  1  0.52136641  0.04146148  0.25329111  1  0.115697  0  0.111476  0.115899  0  0.981571  0
H  H16  1  0.66274646  0.79100029  0.31562879  1  0.119106  0  0.105516  0.111328  0  1.033501  0
H  H17  1  0.84132055  0.09655140  0.40949125  1  0.089108  0  0.109893  0.110411  0  0.97824  0
H  H18  1  0.02971257  0.11142753  0.47016644  1  0.08252  0  0.109537  0.117299  0  0.991195  0
H  H19  1  0.82164320  0.12169262  0.24578403  1  0.091646  0  0.103731  0.102947  0  1.005493  0
H  H20  1  0.73237588  0.95812898  0.15908297  1  0.073032  0  0.1031  0.100982  0  1.005294  0
H  H21  1  0.63466107  0.65990232  0.23232744  1  0.10696  0  0.104847  0.107631  0  1.014273  0
H  H22  1  0.69746450  0.82793165  0.07568951  1  0.086041  0  0.110288  0.117086  0  0.986869  0
H  H23  1  0.09117369  0.89104956  0.35027373  1  0.07438  0  0.109004  0.115255  0  0.993993  0
H  H24  1  0.90293310  0.87547540  0.28758204  1  0.080455  0  0.102266  0.101593  0  1.016379  0
H  H25  1  0.55582362  0.67268158  0.32322989  1  0.069715  0  0.108506  0.11089  0  1.013876  0
H  H26  1  0.25739247  0.75423220  0.32902077  1  0.084331  0  0.110785  0.118034  0  0.991821  0
H  H27  1  0.43260140  0.55548788  0.07377323  1  0.607169  0  0.310357  0.408076  0  0.882656  0
H  H28  1  0.47863620  0.54146315  0.24670941  1  0.115788  0  0.111453  0.115907  0  0.98157  0
H  H29  1  0.33725316  0.29099847  0.18437057  1  0.11908  0  0.105505  0.111298  0  1.03348  0
H  H30  1  0.15867748  0.59654864  0.09050891  1  0.089181  0  0.109933  0.110421  0  0.978192  0
H  H31  1  0.97028468  0.61142081  0.02983509  1  0.082635  0  0.109554  0.117363  0  0.991228  0
H  H32  1  0.17835946  0.62169043  0.25421415  1  0.091684  0  0.103724  0.102939  0  1.005499  0
H  H33  1  0.26762687  0.45812976  0.34091687  1  0.073037  0  0.103106  0.101013  0  1.005291  0
H  H34  1  0.36533698  0.15989876  0.26767235  1  0.106899  0  0.104868  0.107664  0  1.014215  0
H  H35  1  0.30253283  0.32793337  0.42431045  1  0.086027  0  0.110294  0.117095  0  0.986855  0
H  H36  1  0.90883288  0.39104195  0.14972928  1  0.074364  0  0.109024  0.115284  0  0.99393  0
H  H37  1  0.09707423  0.37546975  0.21242009  1  0.08029  0  0.102232  0.101559  0  1.016447  0
H  H38  1  0.55582396  0.82731977  0.82322933  1  0.069724  0  0.108496  0.110884  0  1.01388  0
H  H39  1  0.25739432  0.74576663  0.82902237  1  0.08428  0  0.110773  0.117976  0  0.991897  0
H  H40  1  0.43260101  0.94451266  0.57377324  1  0.607165  0  0.310341  0.408039  0  0.882727  0
H  H41  1  0.47863197  0.95853662  0.74670864  1  0.115752  0  0.111466  0.115929  0  0.981603  0
H  H42  1  0.33725422  0.20899782  0.68437294  1  0.119139  0  0.105492  0.111299  0  1.033562  0
H  H43  1  0.15867631  0.90345007  0.59050768  1  0.089177  0  0.109907  0.110362  0  0.978253  0
H  H44  1  0.97028273  0.88857798  0.52983467  1  0.082486  0  0.109548  0.117348  0  0.991231  0
H  H45  1  0.17835674  0.87830548  0.75421354  1  0.091638  0  0.103704  0.102962  0  1.005497  0
H  H46  1  0.26762327  0.04186845  0.84091694  1  0.072983  0  0.10309  0.100992  0  1.005265  0
H  H47  1  0.36534116  0.34010049  0.76767311  1  0.106946  0  0.104861  0.107638  0  1.014205  0
H  H48  1  0.30253235  0.17206579  0.92431042  1  0.086017  0  0.11031  0.117117  0  0.986924  0
H  H49  1  0.90883314  0.10895595  0.64973079  1  0.074371  0  0.109046  0.115318  0  0.993948  0
H  H50  1  0.09707450  0.12452809  0.71242063  1  0.080313  0  0.102236  0.101549  0  1.016442  0
H  H51  1  0.44417477  0.32732056  0.67677036  1  0.069826  0  0.108508  0.110869  0  1.013875  0
H  H52  1  0.74260439  0.24576658  0.67097616  1  0.084278  0  0.110772  0.117989  0  0.991915  0
H  H53  1  0.56739930  0.44451157  0.92622450  1  0.607385  0  0.310343  0.408101  0  0.882717  0
H  H54  1  0.52136756  0.45853764  0.75329146  1  0.115717  0  0.111473  0.115952  0  0.981572  0
H  H55  1  0.66274677  0.70899896  0.81562749  1  0.119163  0  0.105509  0.111281  0  1.03357  0
H  H56  1  0.84132244  0.40345013  0.90949166  1  0.08917  0  0.10991  0.11042  0  0.978194  0
H  H57  1  0.02971447  0.38857864  0.97016532  1  0.082613  0  0.10954  0.117339  0  0.991239  0
H  H58  1  0.82164279  0.37830700  0.74578290  1  0.091647  0  0.103751  0.10196  0  1.006637  0
H  H59  1  0.73237767  0.54186902  0.65908217  1  0.072981  0  0.103093  0.10097  0  1.00534  0
H  H60  1  0.63466295  0.84010137  0.73232772  1  0.106916  0  0.104869  0.107672  0  1.014217  0
H  H61  1  0.69746864  0.67206743  0.57568895  1  0.086077  0  0.11026  0.117032  0  0.986818  0
H  H62  1  0.09117012  0.60895481  0.85027194  1  0.074377  0  0.109025  0.11529  0  0.993901  0
H  H63  1  0.90292877  0.62452701  0.78758062  1  0.08037  0  0.102265  0.101607  0  1.016378  0
C  C64  1  0.70173935  0.88181678  0.24316734  1  -0.531531  0  -0.026217  -0.14563  0  4.005842  0
C  C65  1  0.86031239  0.98549609  0.34407816  1  -0.548686  0  -0.025127  -0.146492  0  4.007976  0
C  C66  1  0.67612473  0.07322303  0.25372089  1  -0.608601  0  -0.024073  -0.144855  0  4.01384  0
C  C67  1  0.58903083  0.22092311  0.16991661  1  -0.020004  0  -0.007582  -0.020042  0  3.937581  0
C  C68  1  0.54136781  0.30104590  0.12598367  1  1.581493  0  0.229286  0.60876  0  4.159607  0
C  C69  1  0.52660330  0.16079114  0.19264365  1  -0.007363  0  -0.077874  -0.086972  0  3.95913  0
C  C70  1  0.69531485  0.20664635  0.18908704  1  -0.010037  0  -0.07724  -0.084043  0  3.946639  0
C  C71  1  0.07080960  0.00224554  0.41341685  1  -0.021604  0  -0.008917  -0.016519  0  3.935214  0
C  C72  1  0.56957366  0.08761085  0.23459181  1  -0.047472  0  -0.077056  -0.072678  0  3.977312  0
C  C73  1  0.18401785  0.01125521  0.45065198  1  1.571743  0  0.215495  0.589125  0  4.186316  0
C  C74  1  0.67348525  0.79807665  0.26393105  1  -0.075339  0  -0.079759  -0.075218  0  3.973111  0
C  C75  1  0.89593511  0.05224224  0.39562576  1  -0.00504  0  -0.075768  -0.06974  0  3.981392  0
C  C76  1  0.00056802  0.06053933  0.42979799  1  -0.021349  0  -0.076406  -0.08694  0  3.957351  0
C  C77  1  0.73884758  0.13276670  0.23067633  1  -0.070551  0  -0.083578  -0.089477  0  4.010781  0
C  C78  1  0.71136103  0.89275410  0.17551303  1  -0.108831  0  -0.082602  -0.085478  0  4.004906  0
C  C79  1  0.65626055  0.72574098  0.21742047  1  -0.022908  0  -0.080758  -0.090093  0  3.960775  0
C  C80  1  0.69222925  0.82049854  0.12883615  1  0.00666  0  -0.077643  -0.084332  0  3.949321  0
C  C81  1  0.03531616  0.93569594  0.36216233  1  -0.008677  0  -0.078476  -0.083761  0  3.950647  0
C  C82  1  0.93051067  0.92737798  0.32743445  1  -0.064628  0  -0.082789  -0.084474  0  4.004705  0
C  C83  1  0.66484411  0.73650127  0.14975951  1  -0.032567  0  -0.010136  -0.016093  0  3.943733  0
C  C84  1  0.64284633  0.65843605  0.09947974  1  1.568165  0  0.213497  0.592468  0  4.188349  0
C  C85  1  0.29826108  0.38181590  0.25683186  1  -0.531463  0  -0.026272  -0.145715  0  4.005808  0
C  C86  1  0.13969037  0.48549562  0.15592323  1  -0.548973  0  -0.025177  -0.146679  0  4.008156  0
C  C87  1  0.32387791  0.57322343  0.24627869  1  -0.608524  0  -0.024122  -0.144903  0  4.013984  0
C  C88  1  0.41096494  0.72092712  0.33008081  1  -0.019318  0  -0.007506  -0.019996  0  3.937517  0
C  C89  1  0.45862645  0.80105139  0.37401259  1  1.58147  0  0.229223  0.608681  0  4.159596  0
C  C90  1  0.47339475  0.66079302  0.30735464  1  -0.007242  0  -0.07789  -0.087056  0  3.959099  0
C  C91  1  0.30468245  0.70664766  0.31091017  1  -0.011204  0  -0.077226  -0.084003  0  3.946643  0
C  C92  1  0.92919145  0.50224038  0.08658727  1  -0.02211  0  -0.00884  -0.016384  0  3.935001  0
C  C93  1  0.43042821  0.58761194  0.26540814  1  -0.047164  0  -0.077006  -0.072646  0  3.977479  0
C  C94  1  0.81598013  0.51124796  0.04935202  1  1.572403  0  0.215555  0.589155  0  4.186417  0
C  C95  1  0.32651668  0.29807367  0.23606931  1  -0.076053  0  -0.079686  -0.075037  0  3.972941  0
C  C96  1  0.10406366  0.55223956  0.10437548  1  -0.005018  0  -0.075716  -0.069556  0  3.981321  0
C  C97  1  0.99943077  0.56053273  0.07020227  1  -0.021122  0  -0.076504  -0.087178  0  3.957522  0
C  C98  1  0.26115354  0.63276721  0.26932155  1  -0.070606  0  -0.083588  -0.089516  0  4.010831  0
C  C99  1  0.28863940  0.39275346  0.32448669  1  -0.108806  0  -0.082615  -0.08557  0  4.004965  0
C  C100  1  0.34373982  0.22573883  0.28257993  1  -0.022155  0  -0.080802  -0.090193  0  3.960817  0
C  C101  1  0.30777192  0.32049939  0.37116409  1  0.00625  0  -0.077637  -0.084269  0  3.949387  0
C  C102  1  0.96468965  0.43568961  0.13783961  1  -0.008852  0  -0.078534  -0.083881  0  3.950491  0
C  C103  1  0.06949514  0.42737423  0.17256897  1  -0.06442  0  -0.082746  -0.084353  0  4.004588  0
C  C104  1  0.33515626  0.23650070  0.35024191  1  -0.0322  0  -0.01013  -0.016109  0  3.943831  0
C  C105  1  0.35715555  0.15843901  0.40052335  1  1.568265  0  0.213486  0.592379  0  4.188477  0
C  C106  1  0.29826134  0.11818469  0.75683339  1  -0.531456  0  -0.026239  -0.145671  0  4.005821  0
C  C107  1  0.13968908  0.01450538  0.65592173  1  -0.548875  0  -0.025163  -0.146598  0  4.008049  0
C  C108  1  0.32387291  0.92677575  0.74627620  1  -0.608153  0  -0.024084  -0.144842  0  4.013945  0
C  C109  1  0.41096603  0.77907432  0.83008082  1  -0.019353  0  -0.007553  -0.020036  0  3.937587  0
C  C110  1  0.45863059  0.69895153  0.87401308  1  1.580893  0  0.229219  0.608675  0  4.159668  0
C  C111  1  0.47339509  0.83920764  0.80735460  1  -0.006882  0  -0.07785  -0.08704  0  3.959079  0
C  C112  1  0.30468277  0.79335041  0.81091104  1  -0.011315  0  -0.077188  -0.083874  0  3.946564  0
C  C113  1  0.92919031  0.99775997  0.58658622  1  -0.021938  0  -0.00882  -0.016353  0  3.935012  0
C  C114  1  0.43042397  0.91238658  0.76540578  1  -0.047429  0  -0.077002  -0.072649  0  3.977392  0
C  C115  1  0.81597975  0.98875164  0.54935211  1  1.572387  0  0.215531  0.589111  0  4.186409  0
C  C116  1  0.32651697  0.20192482  0.73607050  1  -0.076069  0  -0.0797  -0.075118  0  3.973148  0
C  C117  1  0.10406328  0.94776058  0.60437399  1  -0.005001  0  -0.075713  -0.069537  0  3.981275  0
C  C118  1  0.99942960  0.93946618  0.57020210  1  -0.021157  0  -0.07651  -0.087176  0  3.957456  0
C  C119  1  0.26115083  0.86722939  0.76931992  1  -0.070815  0  -0.083664  -0.0897  0  4.01083  0
C  C120  1  0.28863889  0.10724400  0.82448704  1  -0.108815  0  -0.082585  -0.085517  0  4.004862  0
C  C121  1  0.34373861  0.27426116  0.78257944  1  -0.022227  0  -0.080761  -0.090078  0  3.960763  0
C  C122  1  0.30777067  0.17949957  0.87116492  1  0.006639  0  -0.077719  -0.084376  0  3.949388  0
C  C123  1  0.96468836  0.06430890  0.63784021  1  -0.008772  0  -0.078553  -0.083925  0  3.950531  0
C  C124  1  0.06949385  0.07262416  0.67256908  1  -0.064625  0  -0.082751  -0.084371  0  4.004629  0
C  C125  1  0.33515505  0.26349750  0.85024090  1  -0.032595  0  -0.01016  -0.016167  0  3.943722  0
C  C126  1  0.35715283  0.34156071  0.90052067  1  1.568265  0  0.213518  0.592533  0  4.188413  0
C  C127  1  0.70174116  0.61818422  0.74316769  1  -0.531499  0  -0.026262  -0.145679  0  4.005753  0
C  C128  1  0.86031109  0.51450518  0.84407816  1  -0.548895  0  -0.025164  -0.146539  0  4.007967  0
C  C129  1  0.67612586  0.42677669  0.75372118  1  -0.608584  0  -0.024062  -0.144771  0  4.013402  0
C  C130  1  0.58903115  0.27907502  0.66991795  1  -0.019374  0  -0.007594  -0.020059  0  3.937531  0
C  C131  1  0.54136656  0.19895278  0.62598503  1  1.581179  0  0.229297  0.608811  0  4.159423  0
C  C132  1  0.52660441  0.33920845  0.69264477  1  -0.007343  0  -0.077831  -0.086963  0  3.959118  0
C  C133  1  0.69531518  0.29335179  0.68908691  1  -0.011077  0  -0.077227  -0.083955  0  3.946196  0
C  C134  1  0.07081077  0.49775975  0.91341628  1  -0.022162  0  -0.008913  -0.016557  0  3.935158  0
C  C135  1  0.56957402  0.41238751  0.73459242  1  -0.047061  0  -0.077053  -0.072762  0  3.977338  0
C  C136  1  0.18402056  0.48874880  0.95064971  1  1.572473  0  0.215601  0.589186  0  4.186378  0
C  C137  1  0.67348556  0.70192578  0.76392974  1  -0.076093  0  -0.079695  -0.07505  0  3.973047  0
C  C138  1  0.89593472  0.44776123  0.89562527  1  -0.005035  0  -0.075737  -0.069633  0  3.981307  0
C  C139  1  0.00056839  0.43946739  0.92979865  1  -0.021119  0  -0.076437  -0.087059  0  3.957481  0
C  C140  1  0.73884793  0.36723090  0.73067684  1  -0.070539  0  -0.083634  -0.088723  0  4.010841  0
C  C141  1  0.71136284  0.60724464  0.67551336  1  -0.108837  0  -0.082584  -0.085502  0  4.004906  0
C  C142  1  0.65626087  0.77426130  0.71742031  1  -0.022223  0  -0.080819  -0.090233  0  3.960927  0
C  C143  1  0.69223107  0.67950006  0.62883662  1  0.006569  0  -0.077649  -0.084274  0  3.949371  0
C  C144  1  0.03531411  0.56430782  0.86216177  1  -0.008741  0  -0.078513  -0.083793  0  3.950535  0
C  C145  1  0.93050863  0.57262253  0.82743191  1  -0.064614  0  -0.082754  -0.084437  0  4.004657  0
C  C146  1  0.66484673  0.76349875  0.64975931  1  -0.032505  0  -0.010126  -0.016126  0  3.943895  0
C  C147  1  0.64284820  0.84156381  0.59948102  1  1.568186  0  0.213468  0.592455  0  4.188371  0
O  O148  1  0.66725357  0.96098739  0.35914250  1  -1.431496  0  -0.358487  -0.667604  0  2.32853  0
O  O149  1  0.44450590  0.30926194  0.11205857  1  -1.144424  0  -0.306207  -0.543159  0  2.358518  0
O  O150  1  0.20999729  0.07578140  0.49505367  1  -1.154226  0  -0.31858  -0.561411  0  2.319658  0
O  O151  1  0.64042469  0.58049211  0.12646172  1  -1.166385  0  -0.324094  -0.564686  0  2.28874  0
O  O152  1  0.60254337  0.35309579  0.10747294  1  -1.185622  0  -0.313668  -0.555448  0  2.346646  0
O  O153  1  0.24352172  0.95476737  0.43526261  1  -1.172876  0  -0.31938  -0.569203  0  2.296085  0
O  O154  1  0.62728149  0.67566835  0.03496750  1  -1.176003  0  -0.318076  -0.574093  0  2.310315  0
O  O155  1  0.55494345  0.00835064  0.45645914  1  -1.227606  0  -0.565551  -0.886648  0  2.307606  0
O  O156  1  0.33274841  0.46098677  0.14085818  1  -1.431517  0  -0.358522  -0.667635  0  2.328468  0
O  O157  1  0.55548836  0.80926608  0.38793971  1  -1.144842  0  -0.306285  -0.54321  0  2.358387  0
O  O158  1  0.79000150  0.57577131  0.00494562  1  -1.154378  0  -0.318532  -0.561395  0  2.319803  0
O  O159  1  0.35957486  0.08049296  0.37354024  1  -1.166355  0  -0.324036  -0.564643  0  2.288773  0
O  O160  1  0.39744784  0.85309868  0.39252228  1  -1.185372  0  -0.313538  -0.555347  0  2.34686  0
O  O161  1  0.75647639  0.45476561  0.06474226  1  -1.173013  0  -0.319477  -0.569253  0  2.296161  0
O  O162  1  0.37272270  0.17566883  0.46503461  1  -1.176136  0  -0.318101  -0.574038  0  2.310405  0
O  O163  1  0.44505609  0.50834894  0.04353967  1  -1.227679  0  -0.565606  -0.886748  0  2.307643  0
O  O164  1  0.33274865  0.03901206  0.64085905  1  -1.431488  0  -0.358512  -0.667627  0  2.328472  0
O  O165  1  0.55549250  0.69073684  0.88793968  1  -1.144347  0  -0.306196  -0.543117  0  2.358587  0
O  O166  1  0.79000110  0.92422815  0.50494558  1  -1.15437  0  -0.31855  -0.561392  0  2.319767  0
O  O167  1  0.35957523  0.41950532  0.87353985  1  -1.166343  0  -0.324038  -0.564697  0  2.288829  0
O  O168  1  0.39745196  0.64690299  0.89252266  1  -1.185121  0  -0.313626  -0.555432  0  2.346604  0
O  O169  1  0.75647664  0.04523477  0.56474265  1  -1.173016  0  -0.31946  -0.569231  0  2.296161  0
O  O170  1  0.37271920  0.32432908  0.96503274  1  -1.176077  0  -0.318075  -0.574084  0  2.310384  0
O  O171  1  0.44505725  0.99165150  0.54354059  1  -1.227678  0  -0.565589  -0.886686  0  2.307719  0
O  O172  1  0.66725152  0.53901336  0.85914089  1  -1.431453  0  -0.358516  -0.667674  0  2.328497  0
O  O173  1  0.44450542  0.19073674  0.61205908  1  -1.144114  0  -0.3062  -0.543184  0  2.358506  0
O  O174  1  0.20999997  0.42422343  0.99505327  1  -1.154525  0  -0.31864  -0.561449  0  2.319717  0
O  O175  1  0.64042659  0.91950717  0.62646266  1  -1.16638  0  -0.324062  -0.564655  0  2.288761  0
O  O176  1  0.60254594  0.14690414  0.60747651  1  -1.185657  0  -0.313633  -0.555432  0  2.34664  0
O  O177  1  0.24352352  0.54523385  0.93525981  1  -1.172914  0  -0.319439  -0.569211  0  2.296188  0
O  O178  1  0.62728029  0.82433197  0.53496811  1  -1.17597  0  -0.31804  -0.574039  0  2.310267  0
O  O179  1  0.55494384  0.49164984  0.95645839  1  -1.227892  0  -0.565598  -0.886775  0  2.307678  0
