# generated using pymatgen
data_CdH11C13NO6
_symmetry_space_group_name_H-M   'P 1'
_cell_length_a   7.90967567
_cell_length_b   12.06295382
_cell_length_c   13.67800000
_cell_angle_alpha   90.00000000
_cell_angle_beta   98.90654040
_cell_angle_gamma   90.00000000
_symmetry_Int_Tables_number   1
_chemical_formula_structural   CdH11C13NO6
_chemical_formula_sum   'Cd4 H44 C52 N4 O24'
_cell_volume   1289.33709128
_cell_formula_units_Z   4
loop_
 _symmetry_equiv_pos_site_id
 _symmetry_equiv_pos_as_xyz
  1  'x, y, z'
loop_
 _atom_site_type_symbol
 _atom_site_label
 _atom_site_symmetry_multiplicity
 _atom_site_fract_x
 _atom_site_fract_y
 _atom_site_fract_z
 _atom_site_occupancy
 _atom_site_hle17_bader_spin_density
 _atom_site_hle17_ddec_charge
 _atom_site_hle17_ddec_spin_density
 _atom_site_hle17_ddec_sum_bond_order
 _atom_site_hle17_magmom
 _atom_site_hse06_10hf_bader_spin_density
 _atom_site_hse06_10hf_ddec_charge
 _atom_site_hse06_10hf_ddec_spin_density
 _atom_site_hse06_10hf_ddec_sum_bond_order
 _atom_site_hse06_10hf_magmom
 _atom_site_hse06_bader_spin_density
 _atom_site_hse06_ddec_charge
 _atom_site_hse06_ddec_spin_density
 _atom_site_hse06_ddec_sum_bond_order
 _atom_site_hse06_magmom
 _atom_site_pbe_bader_charge
 _atom_site_pbe_bader_spin_density
 _atom_site_pbe_cm5_charge
 _atom_site_pbe_ddec_charge
 _atom_site_pbe_ddec_spin_density
 _atom_site_pbe_ddec_sum_bond_order
 _atom_site_pbe_magmom
Cd  Cd0  1  0.64100540  0.91505366  0.83045956  1  0  1.199666  0  1.644529  0  0  1.015408  0  2.096488  0  0  1.071604  0  2.039211  0  1.300277  0  0.775896  0.97538  0  2.135836  0
Cd  Cd1  1  0.85899287  0.41505423  0.16954186  1  0  1.199614  0  1.644595  0  0  1.015351  0  2.096562  0  0  1.071546  0  2.039286  0  1.300295  0  0.775874  0.975322  0  2.135911  0
Cd  Cd2  1  0.35899558  0.08494686  0.16954060  1  0  1.19964  0  1.644556  0  0  1.015376  0  2.096513  0  0  1.071572  0  2.039236  0  1.300281  0  0.775883  0.975346  0  2.135861  0
Cd  Cd3  1  0.14100555  0.58494628  0.83045881  1  0  1.19965  0  1.644565  0  0  1.015387  0  2.096525  0  0  1.071581  0  2.039249  0  1.300269  0  0.775886  0.975355  0  2.135875  0
H  H4  1  0.99766679  0.86395009  0.79742168  1  0  0.434487  0  0.859354  0  0  0.403011  0  0.922595  0  0  0.413846  0  0.90687  0  0.649237  0  0.295953  0.395345  0  0.933714  0
H  H5  1  0.50233403  0.36394983  0.20257850  1  0  0.434493  0  0.859347  0  0  0.402984  0  0.922639  0  0  0.413822  0  0.906909  0  0.649238  0  0.295929  0.395318  0  0.933758  0
H  H6  1  0.00233546  0.13604877  0.20257933  1  0  0.4345  0  0.859342  0  0  0.402993  0  0.922631  0  0  0.413829  0  0.906904  0  0.649244  0  0.295937  0.395326  0  0.933751  0
H  H7  1  0.49766695  0.63605068  0.79742166  1  0  0.434492  0  0.859345  0  0  0.403017  0  0.922588  0  0  0.413854  0  0.906859  0  0.649235  0  0.295956  0.395349  0  0.933709  0
H  H8  1  0.01631368  0.95978565  0.87907426  1  0  0.430373  0  0.860882  0  0  0.400154  0  0.924349  0  0  0.410815  0  0.908754  0  0.638727  0  0.296469  0.392581  0  0.935415  0
H  H9  1  0.48368617  0.45978540  0.12092576  1  0  0.430325  0  0.860917  0  0  0.400099  0  0.924426  0  0  0.410761  0  0.908829  0  0.638726  0  0.29644  0.392526  0  0.935492  0
H  H10  1  0.98368858  0.04021320  0.12092675  1  0  0.430312  0  0.860813  0  0  0.400066  0  0.924446  0  0  0.410726  0  0.908851  0  0.63874  0  0.296386  0.392493  0  0.935512  0
H  H11  1  0.51631352  0.54021429  0.87907428  1  0  0.430373  0  0.860883  0  0  0.40016  0  0.924339  0  0  0.410822  0  0.908743  0  0.638725  0  0.296467  0.392587  0  0.935405  0
H  H12  1  0.27420874  0.86056286  0.79674633  1  0  0.428135  0  0.876893  0  0  0.396053  0  0.942071  0  0  0.4072  0  0.925837  0  0.654969  0  0.290706  0.388175  0  0.953526  0
H  H13  1  0.22579111  0.36056260  0.20325369  1  0  0.428137  0  0.876891  0  0  0.396057  0  0.942066  0  0  0.407204  0  0.925832  0  0.654972  0  0.290705  0.388178  0  0.953523  0
H  H14  1  0.72579096  0.13943766  0.20325299  1  0  0.428142  0  0.876881  0  0  0.396062  0  0.942058  0  0  0.407208  0  0.925824  0  0.654972  0  0.290716  0.388183  0  0.953514  0
H  H15  1  0.77420859  0.63943791  0.79674708  1  0  0.428132  0  0.876896  0  0  0.396051  0  0.942073  0  0  0.407198  0  0.925839  0  0.654968  0  0.290707  0.388173  0  0.95353  0
H  H16  1  0.29702332  0.96116094  0.87453904  1  0  0.419101  0  0.887709  0  0  0.389782  0  0.94914  0  0  0.39983  0  0.934588  0  0.634726  0  0.289186  0.382704  0  0.959379  0
H  H17  1  0.20297653  0.46116151  0.12546171  1  0  0.419118  0  0.887696  0  0  0.389805  0  0.949113  0  0  0.399852  0  0.934564  0  0.634725  0  0.289209  0.382727  0  0.959351  0
H  H18  1  0.70297766  0.03883958  0.12546112  1  0  0.419118  0  0.887689  0  0  0.389799  0  0.949116  0  0  0.399846  0  0.934565  0  0.634721  0  0.289194  0.382722  0  0.959353  0
H  H19  1  0.79702188  0.53883817  0.87453822  1  0  0.419104  0  0.887714  0  0  0.38979  0  0.949133  0  0  0.399837  0  0.934584  0  0.635324  0  0.289206  0.382713  0  0.95937  0
H  H20  1  0.75476219  0.63535268  0.04754369  1  0  0.097877  0  0.950627  0  0  0.102346  0  1.020464  0  0  0.106465  0  1.015413  0  0.153876  0  0.118158  0.09931  0  1.024116  0
H  H21  1  0.74523607  0.13535159  0.95245481  1  0  0.097884  0  0.950635  0  0  0.102355  0  1.020462  0  0  0.106473  0  1.015413  0  0.1539  0  0.118165  0.09932  0  1.024113  0
H  H22  1  0.24523750  0.36464866  0.95245636  1  0  0.097865  0  0.950628  0  0  0.102335  0  1.020463  0  0  0.106454  0  1.015413  0  0.15388  0  0.118144  0.099298  0  1.024114  0
H  H23  1  0.25476490  0.86464726  0.04754462  1  0  0.097895  0  0.950635  0  0  0.10237  0  1.020457  0  0  0.106488  0  1.015408  0  0.153902  0  0.118165  0.099334  0  1.024109  0
H  H24  1  0.91637483  0.92004166  0.22772727  1  0  0.10522  0  0.979414  0  0  0.11422  0  1.046415  0  0  0.117981  0  1.042252  0  0.14535  0  0.110902  0.111392  0  1.049519  0
H  H25  1  0.58362600  0.42004223  0.77227292  1  0  0.105217  0  0.979416  0  0  0.114212  0  1.046425  0  0  0.117974  0  1.042259  0  0.145346  0  0.1109  0.111385  0  1.049529  0
H  H26  1  0.08362615  0.07995886  0.77227290  1  0  0.105161  0  0.979488  0  0  0.1142  0  1.046448  0  0  0.117962  0  1.042282  0  0.145359  0  0.110884  0.111372  0  1.049554  0
H  H27  1  0.41637370  0.57995746  0.22772786  1  0  0.105202  0  0.97942  0  0  0.1142  0  1.046425  0  0  0.117962  0  1.042259  0  0.145333  0  0.110889  0.111371  0  1.049532  0
H  H28  1  0.00399396  0.58386197  0.33300051  1  0  0.096653  0  0.933576  0  0  0.107201  0  0.995485  0  0  0.110088  0  0.992427  0  0.130266  0  0.123921  0.105111  0  0.99764  0
H  H29  1  0.49600333  0.08386337  0.66699782  1  0  0.096641  0  0.933554  0  0  0.107197  0  0.995459  0  0  0.110088  0  0.992402  0  0.13025  0  0.123923  0.105107  0  0.997618  0
H  H30  1  0.99600446  0.41613854  0.66699942  1  0  0.096603  0  0.933571  0  0  0.107166  0  0.995467  0  0  0.110057  0  0.992411  0  0.13026  0  0.123912  0.105075  0  0.997624  0
H  H31  1  0.50399637  0.91613714  0.33300223  1  0  0.096613  0  0.933544  0  0  0.107171  0  0.995453  0  0  0.110061  0  0.992396  0  0.130302  0  0.123907  0.105077  0  0.997614  0
H  H32  1  0.13201050  0.95842032  0.33278258  1  0  0.097855  0  0.972759  0  0  0.10562  0  1.041119  0  0  0.108403  0  1.039423  0  0.1047  0  0.100872  0.103593  0  1.042373  0
H  H33  1  0.36799062  0.45842006  0.66721755  1  0  0.097907  0  0.972757  0  0  0.105674  0  1.041094  0  0  0.108457  0  1.039398  0  0.104699  0  0.100905  0.103652  0  1.042339  0
H  H34  1  0.86798919  0.04158020  0.66721819  1  0  0.097906  0  0.972769  0  0  0.105674  0  1.041104  0  0  0.108457  0  1.039409  0  0.104688  0  0.100892  0.103652  0  1.042349  0
H  H35  1  0.63201035  0.54157962  0.33278188  1  0  0.097888  0  0.972762  0  0  0.105655  0  1.041105  0  0  0.108438  0  1.03941  0  0.10469  0  0.100898  0.103633  0  1.042348  0
H  H36  1  0.25256509  0.03578394  0.49384277  1  0  0.095986  0  0.954109  0  0  0.105499  0  1.015267  0  0  0.108457  0  1.014398  0  0.099787  0  0.100774  0.103361  0  1.016024  0
H  H37  1  0.24743092  0.53578420  0.50615764  1  0  0.09597  0  0.954074  0  0  0.105481  0  1.015242  0  0  0.108438  0  1.014374  0  0.099776  0  0.100771  0.103344  0  1.015998  0
H  H38  1  0.74743332  0.96421657  0.50615789  1  0  0.095986  0  0.954087  0  0  0.10549  0  1.015257  0  0  0.108447  0  1.014388  0  0.099787  0  0.100782  0.103352  0  1.016014  0
H  H39  1  0.75256622  0.46421632  0.49384218  1  0  0.095981  0  0.954089  0  0  0.105494  0  1.01525  0  0  0.108451  0  1.014381  0  0.099789  0  0.10077  0.103356  0  1.016007  0
H  H40  1  0.23933039  0.92858351  0.64917270  1  0  0.099028  0  0.971765  0  0  0.108518  0  1.037367  0  0  0.111521  0  1.035285  0  0.095598  0  0.102402  0.10629  0  1.038967  0
H  H41  1  0.26066562  0.42858325  0.35082698  1  0  0.09902  0  0.971749  0  0  0.108501  0  1.037365  0  0  0.111507  0  1.035284  0  0.09545  0  0.102398  0.106274  0  1.038964  0
H  H42  1  0.76066803  0.07141617  0.35082796  1  0  0.099029  0  0.971778  0  0  0.108519  0  1.037381  0  0  0.111521  0  1.035299  0  0.095464  0  0.102406  0.106291  0  1.038981  0
H  H43  1  0.73933279  0.57141643  0.64917295  1  0  0.099023  0  0.971761  0  0  0.108514  0  1.03736  0  0  0.111517  0  1.035278  0  0.095457  0  0.1024  0.106286  0  1.03896  0
H  H44  1  0.98971855  0.66074861  0.47693890  1  0  0.096587  0  0.979175  0  0  0.10379  0  1.049919  0  0  0.106665  0  1.048464  0  0.078023  0  0.102477  0.101684  0  1.051031  0
H  H45  1  0.51028100  0.16074919  0.52306043  1  0  0.096611  0  0.979178  0  0  0.103826  0  1.049909  0  0  0.106692  0  1.048464  0  0.07803  0  0.102492  0.101725  0  1.051015  0
H  H46  1  0.01027987  0.33925107  0.52306103  1  0  0.096661  0  0.979201  0  0  0.103883  0  1.04991  0  0  0.106752  0  1.04846  0  0.078023  0  0.102509  0.101778  0  1.051021  0
H  H47  1  0.48971742  0.83925133  0.47693877  1  0  0.096597  0  0.97918  0  0  0.103782  0  1.049936  0  0  0.106653  0  1.048485  0  0.078021  0  0.102469  0.101675  0  1.051051  0
C  C48  1  0.76719581  0.86083974  0.04040128  1  0  0.660642  0  3.917166  0  0  0.608248  0  4.20743  0  0  0.643151  0  4.201407  0  1.583786  0  0.210542  0.584697  0  4.210646  0
C  C49  1  0.73279990  0.36083948  0.95959917  1  0  0.660735  0  3.917293  0  0  0.60829  0  4.207618  0  0  0.643196  0  4.201589  0  1.583368  0  0.210546  0.584738  0  4.210835  0
C  C50  1  0.23280389  0.13916077  0.95959949  1  0  0.660714  0  3.917214  0  0  0.608283  0  4.207527  0  0  0.643187  0  4.201501  0  1.583803  0  0.210523  0.584732  0  4.210743  0
C  C51  1  0.26720108  0.63916020  0.04040026  1  0  0.660721  0  3.91725  0  0  0.608307  0  4.207541  0  0  0.643212  0  4.20151  0  1.583378  0  0.210589  0.584755  0  4.210758  0
C  C52  1  0.83115801  0.78778466  0.12688163  1  0  -0.104447  0  3.753271  0  0  -0.078536  0  3.992615  0  0  -0.091329  0  4.016689  0  -0.03135  0  -0.013562  -0.070573  0  3.976609  0
C  C53  1  0.66884154  0.28778524  0.87311698  1  0  -0.104499  0  3.753424  0  0  -0.078579  0  3.99278  0  0  -0.091372  0  4.016854  0  -0.031329  0  -0.013571  -0.070615  0  3.976775  0
C  C54  1  0.16884425  0.21221585  0.87311718  1  0  -0.104428  0  3.753324  0  0  -0.078512  0  3.992683  0  0  -0.091305  0  4.016758  0  -0.031335  0  -0.013536  -0.070549  0  3.976676  0
C  C55  1  0.33115944  0.71221445  0.12688172  1  0  -0.104382  0  3.75327  0  0  -0.078461  0  3.992608  0  0  -0.091254  0  4.016682  0  -0.031348  0  -0.013549  -0.070498  0  3.976602  0
C  C56  1  0.81611508  0.67280868  0.11645016  1  0  0.128738  0  3.664436  0  0  0.084497  0  3.917648  0  0  0.094006  0  3.934415  0  0.502898  0  0.053232  0.078457  0  3.906178  0
C  C57  1  0.68388447  0.17280925  0.88354917  1  0  0.128757  0  3.664501  0  0  0.084522  0  3.917699  0  0  0.094032  0  3.934467  0  0.502871  0  0.053258  0.078482  0  3.906231  0
C  C58  1  0.18388462  0.32719184  0.88354915  1  0  0.128733  0  3.664513  0  0  0.0845  0  3.917711  0  0  0.094009  0  3.934478  0  0.502882  0  0.053245  0.078461  0  3.906242  0
C  C59  1  0.31611779  0.82719043  0.11645037  1  0  0.128637  0  3.664533  0  0  0.084399  0  3.917741  0  0  0.093908  0  3.934509  0  0.502878  0  0.05319  0.078357  0  3.906275  0
C  C60  1  0.90724158  0.83064398  0.21754781  1  0  -0.051945  0  3.657969  0  0  -0.089692  0  3.902591  0  0  -0.085272  0  3.919965  0  -0.016161  0  -0.059725  -0.092063  0  3.890725  0
C  C61  1  0.59275925  0.33064373  0.78245164  1  0  -0.051943  0  3.657986  0  0  -0.089693  0  3.90259  0  0  -0.085271  0  3.919959  0  -0.016177  0  -0.059721  -0.092064  0  3.890723  0
C  C62  1  0.09275940  0.16935653  0.78245235  1  0  -0.051926  0  3.65801  0  0  -0.0897  0  3.902617  0  0  -0.085279  0  3.91999  0  -0.016169  0  -0.059725  -0.092071  0  3.890751  0
C  C63  1  0.40724173  0.66935513  0.21754779  1  0  -0.051935  0  3.657956  0  0  -0.089684  0  3.902577  0  0  -0.085263  0  3.919952  0  -0.016172  0  -0.059707  -0.092056  0  3.890712  0
C  C64  1  0.97089537  0.75932480  0.29552343  1  0  0.013733  0  3.770881  0  0  0.033028  0  4.004903  0  0  0.028177  0  4.029702  0  -0.028017  0  0.001281  0.035864  0  3.988214  0
C  C65  1  0.52910545  0.25932537  0.70447529  1  0  0.01374  0  3.770846  0  0  0.033066  0  4.004819  0  0  0.028216  0  4.02962  0  -0.028078  0  0.001265  0.035902  0  3.98813  0
C  C66  1  0.02910305  0.24067488  0.70447577  1  0  0.013759  0  3.770835  0  0  0.033061  0  4.00486  0  0  0.028209  0  4.02966  0  -0.028005  0  0.00129  0.035895  0  3.988172  0
C  C67  1  0.47089552  0.74067431  0.29552414  1  0  0.013714  0  3.770858  0  0  0.033011  0  4.004886  0  0  0.028159  0  4.029685  0  -0.028004  0  0.001284  0.035845  0  3.988197  0
C  C68  1  0.95475445  0.64514547  0.27714821  1  0  0.096121  0  3.648947  0  0  0.056469  0  3.9001  0  0  0.064446  0  3.917242  0  0.482542  0  0.05561  0.051184  0  3.888788  0
C  C69  1  0.54524637  0.14514438  0.72285124  1  0  0.096147  0  3.648956  0  0  0.056482  0  3.900078  0  0  0.064453  0  3.917226  0  0.482546  0  0.055611  0.051197  0  3.888764  0
C  C70  1  0.04524524  0.35485504  0.72285256  1  0  0.0962  0  3.648918  0  0  0.056533  0  3.900067  0  0  0.064503  0  3.917217  0  0.482556  0  0.055648  0.051255  0  3.88874  0
C  C71  1  0.45475461  0.85485530  0.27714819  1  0  0.096213  0  3.648891  0  0  0.056556  0  3.900028  0  0  0.064529  0  3.917176  0  0.48251  0  0.055636  0.051283  0  3.888691  0
C  C72  1  0.05008381  0.80381473  0.39227100  1  0  0.037131  0  3.804402  0  0  0.054868  0  4.034002  0  0  0.052727  0  4.060534  0  -0.059378  0  -0.011781  0.056325  0  4.015946  0
C  C73  1  0.44991988  0.30381613  0.60772791  1  0  0.037109  0  3.804434  0  0  0.054835  0  4.034026  0  0  0.052695  0  4.060558  0  -0.059307  0  -0.011811  0.056291  0  4.015972  0
C  C74  1  0.94991589  0.19618495  0.60772978  1  0  0.037125  0  3.804391  0  0  0.054851  0  4.034002  0  0  0.052715  0  4.060526  0  -0.058983  0  -0.011799  0.056307  0  4.015948  0
C  C75  1  0.55008237  0.69618438  0.39227090  1  0  0.037136  0  3.80442  0  0  0.054865  0  4.034022  0  0  0.052725  0  4.060556  0  -0.059393  0  -0.011808  0.056321  0  4.015968  0
C  C76  1  0.12599461  0.90969842  0.39926255  1  0  -0.090469  0  3.698422  0  0  -0.113996  0  3.947565  0  0  -0.115207  0  3.968549  0  -0.064433  0  -0.081595  -0.112883  0  3.933143  0
C  C77  1  0.37400524  0.40969899  0.60073748  1  0  -0.090544  0  3.698482  0  0  -0.114067  0  3.947618  0  0  -0.115279  0  3.968601  0  -0.064436  0  -0.081606  -0.112954  0  3.933197  0
C  C78  1  0.87400508  0.09030127  0.60073823  1  0  -0.09054  0  3.698407  0  0  -0.114063  0  3.947548  0  0  -0.115276  0  3.968531  0  -0.064874  0  -0.081585  -0.112949  0  3.933126  0
C  C79  1  0.62599446  0.59030069  0.39926257  1  0  -0.090506  0  3.698432  0  0  -0.114025  0  3.947567  0  0  -0.115237  0  3.968551  0  -0.064431  0  -0.081585  -0.11291  0  3.933143  0
C  C80  1  0.19450489  0.95369510  0.49093880  1  0  -0.058046  0  3.755709  0  0  -0.067994  0  4.007608  0  0  -0.071095  0  4.028316  0  -0.012106  0  -0.086782  -0.065978  0  3.993557  0
C  C81  1  0.30549368  0.45369485  0.50906111  1  0  -0.057995  0  3.755674  0  0  -0.067944  0  4.007572  0  0  -0.071045  0  4.028282  0  -0.012091  0  -0.086787  -0.065929  0  3.993521  0
C  C82  1  0.80549353  0.04630541  0.50906186  1  0  -0.058014  0  3.755632  0  0  -0.067959  0  4.007538  0  0  -0.07106  0  4.028245  0  -0.012089  0  -0.086811  -0.065944  0  3.993487  0
C  C83  1  0.69450602  0.54630484  0.49093894  1  0  -0.05803  0  3.755688  0  0  -0.067982  0  4.007584  0  0  -0.071084  0  4.028294  0  -0.012115  0  -0.086795  -0.065967  0  3.993533  0
C  C84  1  0.18746779  0.89376865  0.57734195  1  0  -0.058538  0  3.706139  0  0  -0.087077  0  3.956076  0  0  -0.086403  0  3.97646  0  -0.040312  0  -0.080698  -0.087257  0  3.942247  0
C  C85  1  0.31253078  0.39376840  0.42265795  1  0  -0.058585  0  3.70615  0  0  -0.087119  0  3.956095  0  0  -0.086455  0  3.97648  0  -0.040177  0  -0.080717  -0.087299  0  3.942265  0
C  C86  1  0.81253191  0.10623103  0.42265809  1  0  -0.05859  0  3.706133  0  0  -0.087129  0  3.956066  0  0  -0.086454  0  3.97645  0  -0.040179  0  -0.080709  -0.087308  0  3.942237  0
C  C87  1  0.68746764  0.60623129  0.57734198  1  0  -0.05855  0  3.706137  0  0  -0.08707  0  3.956088  0  0  -0.08641  0  3.976461  0  -0.040175  0  -0.0807  -0.087252  0  3.942258  0
C  C88  1  0.11639171  0.78705433  0.57131915  1  0  -0.067087  0  3.771904  0  0  -0.042029  0  4.008081  0  0  -0.051107  0  4.032117  0  -0.05395  0  -0.021293  -0.036252  0  3.991995  0
C  C89  1  0.38360686  0.28705490  0.42868075  1  0  -0.067021  0  3.771836  0  0  -0.041969  0  4.008021  0  0  -0.051033  0  4.032041  0  -0.053961  0  -0.021278  -0.036194  0  3.991936  0
C  C90  1  0.88360671  0.21294536  0.42868151  1  0  -0.067022  0  3.771943  0  0  -0.04195  0  4.008108  0  0  -0.051029  0  4.032145  0  -0.053943  0  -0.02127  -0.036174  0  3.992023  0
C  C91  1  0.61639284  0.71294561  0.57131929  1  0  -0.067071  0  3.771896  0  0  -0.042065  0  4.008127  0  0  -0.0511  0  4.032106  0  -0.053956  0  -0.021299  -0.036284  0  3.992036  0
C  C92  1  0.04865438  0.74255279  0.47904096  1  0  -0.11102  0  3.709076  0  0  -0.143256  0  3.95569  0  0  -0.143462  0  3.976813  0  0.008766  0  -0.081149  -0.142822  0  3.941386  0
C  C93  1  0.45134675  0.24255336  0.52095845  1  0  -0.111056  0  3.709071  0  0  -0.143297  0  3.955686  0  0  -0.143503  0  3.97681  0  0.008761  0  -0.081148  -0.142866  0  3.941382  0
C  C94  1  0.95134660  0.25744772  0.52095920  1  0  -0.111095  0  3.709173  0  0  -0.143345  0  3.95578  0  0  -0.143547  0  3.976906  0  0.008785  0  -0.081167  -0.142914  0  3.941478  0
C  C95  1  0.54865166  0.75744632  0.47904148  1  0  -0.111061  0  3.709084  0  0  -0.143254  0  3.955698  0  0  -0.143472  0  3.976812  0  0.008797  0  -0.081143  -0.142824  0  3.941397  0
C  C96  1  0.11469738  0.71762855  0.66131368  1  0  0.649724  0  3.88405  0  0  0.597692  0  4.169165  0  0  0.631962  0  4.163718  0  1.489747  0  0.206539  0.574534  0  4.171957  0
C  C97  1  0.38530247  0.21762912  0.33868634  1  0  0.64968  0  3.884055  0  0  0.597656  0  4.16917  0  0  0.631922  0  4.163724  0  1.489739  0  0.206524  0.574498  0  4.171963  0
C  C98  1  0.88530232  0.28237031  0.33868710  1  0  0.649721  0  3.883981  0  0  0.597681  0  4.169115  0  0  0.63195  0  4.163671  0  1.489727  0  0.206547  0.574523  0  4.171907  0
C  C99  1  0.61469723  0.78237139  0.66131370  1  0  0.649711  0  3.884071  0  0  0.5977  0  4.169183  0  0  0.631958  0  4.163734  0  1.489741  0  0.206527  0.574541  0  4.171976  0
N  N100  1  0.87758058  0.60372444  0.19025998  1  0  -0.337503  0  3.296013  0  0  -0.255617  0  3.569185  0  0  -0.277636  0  3.58827  0  -1.256599  0  -0.33247  -0.240622  0  3.555744  0
N  N101  1  0.62241897  0.10372501  0.80973862  1  0  -0.337512  0  3.296111  0  0  -0.255632  0  3.569277  0  0  -0.27765  0  3.588364  0  -1.256592  0  -0.332468  -0.240636  0  3.555838  0
N  N102  1  0.12241912  0.39627525  0.80973933  1  0  -0.337517  0  3.296145  0  0  -0.255638  0  3.56932  0  0  -0.277655  0  3.588406  0  -1.256632  0  -0.332488  -0.240644  0  3.555881  0
N  N103  1  0.37758073  0.89627467  0.19026069  1  0  -0.337535  0  3.296118  0  0  -0.255658  0  3.569294  0  0  -0.277676  0  3.58838  0  -1.256592  0  -0.332486  -0.240666  0  3.555858  0
O  O104  1  0.67932488  0.81233835  0.96702675  1  0  -0.62359  0  2.016131  0  0  -0.558056  0  2.263999  0  0  -0.587721  0  2.252307  0  -1.143023  0  -0.321587  -0.537344  0  2.2712  0
O  O105  1  0.82066571  0.31233726  0.03297471  1  0  -0.623623  0  2.016173  0  0  -0.558061  0  2.264061  0  0  -0.587727  0  2.252368  0  -1.142477  0  -0.321602  -0.537351  0  2.271267  0
O  O106  1  0.32067610  0.18766216  0.03297268  1  0  -0.623639  0  2.016123  0  0  -0.558087  0  2.264009  0  0  -0.587753  0  2.252315  0  -1.143043  0  -0.321593  -0.537372  0  2.271199  0
O  O107  1  0.17933399  0.68766242  0.96702534  1  0  -0.62362  0  2.016191  0  0  -0.558075  0  2.26407  0  0  -0.587741  0  2.252375  0  -1.142479  0  -0.321604  -0.537362  0  2.271266  0
O  O108  1  0.80368147  0.96405575  0.04333010  1  0  -0.669007  0  1.977114  0  0  -0.603466  0  2.193353  0  0  -0.629641  0  2.181598  0  -1.196972  0  -0.320706  -0.58512  0  2.200788  0
O  O109  1  0.69631936  0.46405467  0.95666935  1  0  -0.669028  0  1.977146  0  0  -0.603497  0  2.193405  0  0  -0.629674  0  2.181652  0  -1.197066  0  -0.320711  -0.585151  0  2.20084  0
O  O110  1  0.19632207  0.03594476  0.95666956  1  0  -0.669024  0  1.977153  0  0  -0.603502  0  2.193422  0  0  -0.629674  0  2.181661  0  -1.196948  0  -0.320701  -0.585156  0  2.200859  0
O  O111  1  0.30368034  0.53594419  0.04333070  1  0  -0.669033  0  1.977145  0  0  -0.6035  0  2.193388  0  0  -0.62968  0  2.181637  0  -1.197094  0  -0.320724  -0.585154  0  2.200822  0
O  O112  1  0.10101606  0.61353630  0.65256429  1  0  -0.61489  0  1.951926  0  0  -0.552187  0  2.188324  0  0  -0.580495  0  2.18146  0  -1.124586  0  -0.311249  -0.532367  0  2.192228  0
O  O113  1  0.39898379  0.11353604  0.34743573  1  0  -0.614871  0  1.951905  0  0  -0.552176  0  2.188313  0  0  -0.580484  0  2.18145  0  -1.12458  0  -0.311249  -0.532351  0  2.192207  0
O  O114  1  0.89898108  0.38646339  0.34743553  1  0  -0.614917  0  1.951831  0  0  -0.552225  0  2.188256  0  0  -0.580532  0  2.181391  0  -1.12456  0  -0.311284  -0.532406  0  2.192164  0
O  O115  1  0.60101590  0.88646364  0.65256358  1  0  -0.614889  0  1.951915  0  0  -0.552193  0  2.188308  0  0  -0.580501  0  2.18145  0  -1.124586  0  -0.311253  -0.532373  0  2.192213  0
O  O116  1  0.12996554  0.76465103  0.74763678  1  0  -0.693298  0  2.037667  0  0  -0.609117  0  2.258453  0  0  -0.638928  0  2.246498  0  -1.186383  0  -0.327348  -0.588241  0  2.266047  0
O  O117  1  0.37003303  0.26464994  0.25236386  1  0  -0.693284  0  2.037692  0  0  -0.6091  0  2.258481  0  0  -0.638913  0  2.246527  0  -1.186376  0  -0.327333  -0.588225  0  2.266075  0
O  O118  1  0.87003544  0.23534866  0.25236411  1  0  -0.693282  0  2.037662  0  0  -0.609112  0  2.258487  0  0  -0.638923  0  2.246532  0  -1.18637  0  -0.32734  -0.588235  0  2.266081  0
O  O119  1  0.62996666  0.73534974  0.74763619  1  0  -0.693276  0  2.037691  0  0  -0.609108  0  2.258478  0  0  -0.638922  0  2.246527  0  -1.186376  0  -0.327332  -0.588232  0  2.266073  0
O  O120  1  0.93693841  0.92600454  0.82423495  1  0  -0.8464  0  1.871872  0  0  -0.784839  0  2.068587  0  0  -0.806287  0  2.033258  0  -1.264345  0  -0.586804  -0.769688  0  2.09325  0
O  O121  1  0.56306114  0.42600511  0.17576585  1  0  -0.846341  0  1.871897  0  0  -0.784743  0  2.068671  0  0  -0.806192  0  2.033342  0  -1.26435  0  -0.586738  -0.769591  0  2.093333  0
O  O122  1  0.06306385  0.07399514  0.17576678  1  0  -0.846335  0  1.871779  0  0  -0.784718  0  2.06864  0  0  -0.806166  0  2.033315  0  -1.264372  0  -0.586693  -0.769567  0  2.0933  0
O  O123  1  0.43693856  0.57399457  0.82423420  1  0  -0.846396  0  1.871868  0  0  -0.784835  0  2.068576  0  0  -0.806284  0  2.033246  0  -1.264342  0  -0.58679  -0.769684  0  2.09324  0
O  O124  1  0.34659524  0.92569118  0.82003516  1  0  -0.860812  0  1.889188  0  0  -0.800524  0  2.090212  0  0  -0.822742  0  2.055861  0  -1.275667  0  -0.598166  -0.784762  0  2.114001  0
O  O125  1  0.15340461  0.42569176  0.17996413  1  0  -0.860819  0  1.889164  0  0  -0.800526  0  2.09018  0  0  -0.822743  0  2.055822  0  -1.275691  0  -0.598182  -0.784764  0  2.113971  0
O  O126  1  0.65340574  0.07430767  0.17996427  1  0  -0.860823  0  1.889141  0  0  -0.800529  0  2.090162  0  0  -0.822745  0  2.055809  0  -1.275665  0  -0.598182  -0.784769  0  2.113952  0
O  O127  1  0.84659509  0.57430876  0.82003591  1  0  -0.860813  0  1.889189  0  0  -0.800525  0  2.090205  0  0  -0.822743  0  2.055851  0  -1.276261  0  -0.598186  -0.784763  0  2.113995  0
