# generated using pymatgen
data_Zn4H30C48O13
_symmetry_space_group_name_H-M   'P 1'
_cell_length_a   27.32179045
_cell_length_b   27.71939846
_cell_length_c   28.05798141
_cell_angle_alpha   120.39420945
_cell_angle_beta   90.19969686
_cell_angle_gamma   119.30517702
_symmetry_Int_Tables_number   1
_chemical_formula_structural   Zn4H30C48O13
_chemical_formula_sum   'Zn8 H60 C96 O26'
_cell_volume   15066.31340227
_cell_formula_units_Z   2
loop_
 _symmetry_equiv_pos_site_id
 _symmetry_equiv_pos_as_xyz
  1  'x, y, z'
loop_
 _atom_site_type_symbol
 _atom_site_label
 _atom_site_symmetry_multiplicity
 _atom_site_fract_x
 _atom_site_fract_y
 _atom_site_fract_z
 _atom_site_occupancy
 _atom_site_pbe_bader_charge
 _atom_site_pbe_bader_spin_density
 _atom_site_pbe_cm5_charge
 _atom_site_pbe_ddec_charge
 _atom_site_pbe_ddec_spin_density
 _atom_site_pbe_ddec_sum_bond_order
 _atom_site_pbe_magmom
Zn  Zn0  1  0.97066985  0.93816202  0.03194469  1  1.307874  0  0.670152  0.967853  0  2.358802  0
Zn  Zn1  1  0.97391331  0.05837933  0.03433488  1  1.313932  0  0.670447  0.969931  0  2.347319  0
Zn  Zn2  1  0.97620748  0.94230692  0.92076816  1  1.305555  0  0.669016  0.95822  0  2.408723  0
Zn  Zn3  1  0.08877405  0.05448817  0.03473918  1  1.30526  0  0.669007  0.960129  0  2.388489  0
Zn  Zn4  1  0.53114856  0.05681764  0.47673651  1  1.321866  0  0.671183  0.974091  0  2.330978  0
Zn  Zn5  1  0.52744143  0.93686756  0.47641501  1  1.320995  0  0.670979  0.971132  0  2.353523  0
Zn  Zn6  1  0.41398170  0.94123979  0.47535354  1  1.310256  0  0.667938  0.952645  0  2.418946  0
Zn  Zn7  1  0.52434278  0.05334553  0.58920429  1  1.308215  0  0.669837  0.961083  0  2.3993  0
H  H8  1  0.83902975  0.90483248  0.11324461  1  0.101171  0  0.107517  0.112484  0  0.99321  0
H  H9  1  0.77824927  0.90961887  0.17861672  1  0.035164  0  0.101635  0.100119  0  1.003807  0
H  H10  1  0.78435183  0.07177208  0.28402126  1  0.010442  0  0.099905  0.095278  0  1.009708  0
H  H11  1  0.72204648  0.91968513  0.23044660  1  0.074296  0  0.100286  0.095996  0  1.007372  0
H  H12  1  0.65829767  0.87676360  0.27449499  1  0.05396  0  0.101108  0.099474  0  0.996704  0
H  H13  1  0.59832329  0.88550265  0.34137567  1  0.081854  0  0.107339  0.111619  0  0.993655  0
H  H14  1  0.65997280  0.08507205  0.39120219  1  0.082685  0  0.107388  0.112096  0  0.993022  0
H  H15  1  0.72221578  0.07882972  0.32727754  1  0.066872  0  0.101258  0.100067  0  1.005094  0
H  H16  1  0.85205578  0.11844508  0.24571505  1  0.062586  0  0.100985  0.099432  0  0.997952  0
H  H17  1  0.91029626  0.11125640  0.17711676  1  0.111121  0  0.10787  0.112657  0  0.99089  0
H  H18  1  0.87430525  0.72379245  0.93758458  1  0.106381  0  0.107493  0.111906  0  0.993638  0
H  H19  1  0.81090697  0.59796373  0.86969707  1  0.043608  0  0.101718  0.100465  0  1.005232  0
H  H20  1  0.73979698  0.50374022  0.70459698  1  0.032587  0  0.100239  0.095507  0  1.008956  0
H  H21  1  0.76054250  0.49178379  0.80492293  1  0.052326  0  0.100352  0.095393  0  1.008976  0
H  H22  1  0.71027019  0.38445769  0.78452426  1  0.036735  0  0.101321  0.099515  0  0.99848  0
H  H23  1  0.64585375  0.25791847  0.71533976  1  0.105833  0  0.107746  0.112924  0  0.994092  0
H  H24  1  0.63158132  0.27186922  0.57100243  1  0.100361  0  0.107489  0.111989  0  0.993005  0
H  H25  1  0.69467870  0.39773554  0.63908339  1  0.04214  0  0.101745  0.100835  0  1.005229  0
H  H26  1  0.78658860  0.61097588  0.72547270  1  0.040976  0  0.101317  0.099601  0  0.99797  0
H  H27  1  0.85146588  0.73754427  0.79447439  1  0.107036  0  0.107756  0.113  0  0.994099  0
H  H28  1  0.06209921  0.93130467  0.14763538  1  0.110068  0  0.107388  0.112063  0  0.993557  0
H  H29  1  0.12834413  0.93264016  0.20965237  1  0.050412  0  0.102003  0.101185  0  1.004001  0
H  H30  1  0.29276433  0.00787642  0.22285141  1  0.061471  0  0.100439  0.095447  0  1.010039  0
H  H31  1  0.19799117  0.96597854  0.27902824  1  0.054673  0  0.100842  0.097154  0  1.006483  0
H  H32  1  0.22145008  0.94865925  0.34742643  1  0.063953  0  0.101599  0.100389  0  0.997284  0
H  H33  1  0.29398623  0.96051988  0.41377210  1  0.091851  0  0.107789  0.113385  0  0.994042  0
H  H34  1  0.43336434  0.05695128  0.35790993  1  0.101287  0  0.107759  0.112587  0  0.992239  0
H  H35  1  0.36194820  0.04497507  0.29114654  1  0.045543  0  0.10152  0.10012  0  1.006369  0
H  H36  1  0.27372670  0.03023154  0.15838144  1  0.074347  0  0.101495  0.100333  0  0.997208  0
H  H37  1  0.20667370  0.02988581  0.09743273  1  0.090878  0  0.108043  0.113353  0  0.993214  0
H  H38  1  0.86766967  0.07725728  0.94161372  1  0.093094  0  0.107753  0.112488  0  0.992721  0
H  H39  1  0.80386910  0.07091686  0.87266174  1  0.029233  0  0.101868  0.101199  0  1.004688  0
H  H40  1  0.76612591  0.95693241  0.70622094  1  0.047491  0  0.100168  0.095385  0  1.009523  0
H  H41  1  0.73252712  0.03864093  0.80625622  1  0.060764  0  0.100484  0.096185  0  1.007667  0
H  H42  1  0.66878269  0.06234636  0.78383932  1  0.023263  0  0.101166  0.099456  0  0.997973  0
H  H43  1  0.60420828  0.05423957  0.71330346  1  0.115697  0  0.107849  0.1137  0  0.994281  0
H  H44  1  0.64017763  0.92749430  0.57136020  1  0.109409  0  0.107486  0.112074  0  0.992721  0
H  H45  1  0.70486612  0.93524434  0.64060614  1  0.072808  0  0.101447  0.099573  0  1.005028  0
H  H46  1  0.82141154  0.92366302  0.72713057  1  0.05187  0  0.101448  0.099688  0  0.997669  0
H  H47  1  0.88616207  0.93158841  0.79734589  1  0.083057  0  0.108077  0.113947  0  0.99561  0
H  H48  1  0.06627815  0.27078504  0.13245703  1  0.095951  0  0.107402  0.112328  0  0.99344  0
H  H49  1  0.13300972  0.39677757  0.19402870  1  0.03947  0  0.101835  0.100863  0  1.005655  0
H  H50  1  0.30173131  0.49330445  0.26229460  1  0.03478  0  0.100047  0.094917  0  1.010353  0
H  H51  1  0.19697872  0.50333787  0.24324232  1  0.052728  0  0.100596  0.096028  0  1.009051  0
H  H52  1  0.21655116  0.61103989  0.29062663  1  0.025199  0  0.100988  0.098732  0  0.99833  0
H  H53  1  0.28592607  0.73764176  0.35302675  1  0.083739  0  0.108208  0.113829  0  0.994232  0
H  H54  1  0.43366206  0.72367955  0.37114396  1  0.1135  0  0.107349  0.111891  0  0.992888  0
H  H55  1  0.36575658  0.59783002  0.30851217  1  0.054376  0  0.101604  0.100266  0  1.005436  0
H  H56  1  0.28341875  0.38709270  0.21738871  1  0.027295  0  0.101076  0.099318  0  0.998847  0
H  H57  1  0.21536442  0.26030692  0.15534764  1  0.11241  0  0.107942  0.113408  0  0.993147  0
H  H58  1  0.07070318  0.90662046  0.80390931  1  0.096535  0  0.107963  0.113227  0  0.993239  0
H  H59  1  0.13556470  0.91075398  0.74253914  1  0.060667  0  0.102008  0.100842  0  1.00473  0
H  H60  1  0.29325829  0.06955458  0.80052439  1  0.039005  0  0.10045  0.09554  0  1.010268  0
H  H61  1  0.20040295  0.91878985  0.70051012  1  0.04833  0  0.100758  0.096346  0  1.008478  0
H  H62  1  0.22102054  0.87448972  0.61324716  1  0.043928  0  0.101406  0.099638  0  0.997105  0
H  H63  1  0.28976921  0.88227641  0.55491391  1  0.112856  0  0.108291  0.113911  0  0.992807  0
H  H64  1  0.42723069  0.08237017  0.70441133  1  0.077891  0  0.107769  0.113114  0  0.992984  0
H  H65  1  0.35959495  0.07620063  0.76292341  1  0.059663  0  0.101573  0.099893  0  1.006516  0
H  H66  1  0.27389474  0.11650177  0.88687887  1  0.06391  0  0.101365  0.099412  0  0.997751  0
H  H67  1  0.20844704  0.11039877  0.94852116  1  0.090712  0  0.108292  0.113412  0  0.991922  0
C  C68  1  0.91227415  0.00293397  0.09926049  1  1.565075  0  0.225383  0.602824  0  4.169804  0
C  C69  1  0.87776671  0.00740366  0.14056851  1  0.003491  0  -0.020095  -0.040328  0  3.975923  0
C  C70  1  0.84096509  0.95115121  0.14208973  1  -0.085686  0  -0.082617  -0.090667  0  3.990299  0
C  C71  1  0.80715235  0.95433351  0.17896620  1  -0.041503  0  -0.08863  -0.128728  0  3.959779  0
C  C72  1  0.80987821  0.01443943  0.21670473  1  0.015423  0  -0.007353  0.117716  0  4.04022  0
C  C73  1  0.77451696  0.02068754  0.25537212  1  0.006657  0  -0.088947  -0.130126  0  3.995862  0
C  C74  1  0.73162257  0.97068587  0.25846739  1  -0.066172  0  -0.088236  -0.126172  0  3.988659  0
C  C75  1  0.69577526  0.97748506  0.29662615  1  -0.004728  0  -0.007565  0.116016  0  4.037916  0
C  C76  1  0.65928985  0.92292611  0.30066089  1  -0.0555  0  -0.090277  -0.137922  0  3.974884  0
C  C77  1  0.62556464  0.92735514  0.33768919  1  0.004003  0  -0.082548  -0.084259  0  3.990059  0
C  C78  1  0.62585345  0.98603685  0.37079549  1  -0.086868  0  -0.019673  -0.042415  0  3.976413  0
C  C79  1  0.66059611  0.04002714  0.36595209  1  0.043463  0  -0.082854  -0.089409  0  3.990607  0
C  C80  1  0.69535102  0.03610297  0.33002376  1  -0.089309  0  -0.088557  -0.129757  0  3.961197  0
C  C81  1  0.58997925  0.99097377  0.41089311  1  1.548114  0  0.225595  0.605303  0  4.166108  0
C  C82  1  0.84858294  0.07117593  0.21607535  1  -0.048079  0  -0.089816  -0.137225  0  3.974597  0
C  C83  1  0.88135601  0.06761873  0.17812621  1  -0.049685  0  -0.082221  -0.0863  0  3.988977  0
C  C84  1  0.90615575  0.81400656  0.91066197  1  1.533031  0  0.224742  0.601686  0  4.173919  0
C  C85  1  0.86695441  0.73833674  0.87011864  1  -0.058308  0  -0.020964  -0.046194  0  3.981518  0
C  C86  1  0.85490910  0.69835976  0.89093178  1  -0.018787  0  -0.081106  -0.084733  0  3.986367  0
C  C87  1  0.81935389  0.62789989  0.85258023  1  -0.066517  0  -0.088543  -0.130575  0  3.959382  0
C  C88  1  0.79417320  0.59478977  0.79205392  1  -0.007869  0  -0.007089  0.116957  0  4.042628  0
C  C89  1  0.75727245  0.52120395  0.74940742  1  0.033162  0  -0.088308  -0.127613  0  3.996495  0
C  C90  1  0.74347474  0.47432390  0.76001921  1  -0.083658  0  -0.087666  -0.126058  0  3.993952  0
C  C91  1  0.70682968  0.40073870  0.71731364  1  0.017738  0  -0.007591  0.118028  0  4.040656  0
C  C92  1  0.69282139  0.35979292  0.73762733  1  -0.053126  0  -0.089535  -0.138328  0  3.978115  0
C  C93  1  0.65701583  0.28927754  0.69934968  1  -0.070501  0  -0.082447  -0.082953  0  3.988207  0
C  C94  1  0.63451525  0.25715103  0.63904117  1  0.029206  0  -0.020644  -0.045006  0  3.9775  0
C  C95  1  0.64888994  0.29722204  0.61797039  1  -0.023591  0  -0.081256  -0.085378  0  3.98551  0
C  C96  1  0.68421544  0.36770091  0.65641237  1  -0.048862  0  -0.088447  -0.13184  0  3.96141  0
C  C97  1  0.59539801  0.18139674  0.59841971  1  1.523461  0  0.224963  0.601879  0  4.17142  0
C  C98  1  0.80599054  0.63567414  0.77204598  1  -0.06833  0  -0.089327  -0.136878  0  3.979176  0
C  C99  1  0.84199688  0.70619143  0.81021991  1  0.012014  0  -0.082575  -0.08401  0  3.989925  0
C  C100  1  0.09183956  0.98523237  0.08592993  1  1.543452  0  0.224836  0.60272  0  4.170263  0
C  C101  1  0.13067462  0.98179698  0.11976194  1  -0.052811  0  -0.020956  -0.044905  0  3.979299  0
C  C102  1  0.10874829  0.95337244  0.15083209  1  -0.063483  0  -0.080793  -0.084931  0  3.986834  0
C  C103  1  0.14615611  0.95455787  0.18560341  1  -0.01296  0  -0.089092  -0.132736  0  3.962383  0
C  C104  1  0.20675779  0.98379259  0.19018494  1  -0.036736  0  -0.006261  0.120551  0  4.040423  0
C  C105  1  0.24941634  0.99141356  0.22918313  1  -0.060384  0  -0.087804  -0.127412  0  3.997826  0
C  C106  1  0.24129256  0.98278698  0.27255886  1  -0.025036  0  -0.088038  -0.128722  0  3.997111  0
C  C107  1  0.28568527  0.99382899  0.31286143  1  0.031247  0  -0.006225  0.119353  0  4.042051  0
C  C108  1  0.26789973  0.97207600  0.34936394  1  -0.008667  0  -0.089986  -0.138541  0  3.978029  0
C  C109  1  0.30806683  0.97863346  0.38651507  1  -0.082574  0  -0.081658  -0.0827  0  3.98752  0
C  C110  1  0.36778237  0.00833860  0.38908618  1  0.037489  0  -0.021554  -0.047602  0  3.982545  0
C  C111  1  0.38668183  0.03282573  0.35481773  1  -0.086835  0  -0.081321  -0.084957  0  3.991326  0
C  C112  1  0.34632813  0.02555045  0.31731041  1  -0.060325  0  -0.089214  -0.132022  0  3.963833  0
C  C113  1  0.40955221  0.01074753  0.42582758  1  1.524893  0  0.224826  0.604649  0  4.164995  0
C  C114  1  0.22730924  0.00889741  0.15635123  1  -0.057667  0  -0.089737  -0.138516  0  3.976815  0
C  C115  1  0.19021220  0.00874271  0.12223137  1  0.011128  0  -0.082031  -0.084163  0  3.989247  0
C  C116  1  0.91716189  0.00581515  0.91442503  1  1.553767  0  0.225079  0.602631  0  4.171527  0
C  C117  1  0.88009969  0.00401820  0.87361247  1  -0.080795  0  -0.020293  -0.043572  0  3.977175  0
C  C118  1  0.85687318  0.04345022  0.89446474  1  0.015082  0  -0.081497  -0.087577  0  3.988876  0
C  C119  1  0.82089618  0.03932911  0.85554894  1  -0.036146  0  -0.089249  -0.131684  0  3.96138  0
C  C120  1  0.80652610  0.99530891  0.79438967  1  0.019215  0  -0.006295  0.118255  0  4.039895  0
C  C121  1  0.76716823  0.98655991  0.75122631  1  -0.039384  0  -0.087563  -0.126692  0  3.99225  0
C  C122  1  0.73209594  0.00977199  0.76138738  1  -0.072572  0  -0.087999  -0.12756  0  3.994508  0
C  C123  1  0.69275920  0.00071585  0.71796091  1  -0.058689  0  -0.007108  0.116943  0  4.041771  0
C  C124  1  0.66274454  0.03288638  0.73718614  1  -0.010173  0  -0.09005  -0.137731  0  3.977751  0
C  C125  1  0.62665212  0.02854734  0.69814760  1  -0.078618  0  -0.082073  -0.084332  0  3.987843  0
C  C126  1  0.61887291  0.99116691  0.63816793  1  0.028648  0  -0.021234  -0.045405  0  3.977116  0
C  C127  1  0.64702507  0.95714399  0.61809573  1  -0.0778  0  -0.081037  -0.086269  0  3.987402  0
C  C128  1  0.68332084  0.96189297  0.65726114  1  0.004176  0  -0.088753  -0.129065  0  3.956872  0
C  C129  1  0.58241029  0.98959573  0.59708588  1  1.536459  0  0.225698  0.605059  0  4.16527  0
C  C130  1  0.83146891  0.95738420  0.77423983  1  -0.053342  0  -0.090248  -0.137618  0  3.979205  0
C  C131  1  0.86747698  0.96143173  0.81303260  1  -0.000614  0  -0.08229  -0.084039  0  3.991308  0
C  C132  1  0.09670810  0.18220122  0.10202860  1  1.500762  0  0.224793  0.602663  0  4.170491  0
C  C133  1  0.13682184  0.25792447  0.14004453  1  -0.040764  0  -0.020691  -0.044818  0  3.977579  0
C  C134  1  0.11400703  0.29701119  0.15139001  1  0.046675  0  -0.081377  -0.085849  0  3.986579  0
C  C135  1  0.15166705  0.36748566  0.18579644  1  -0.090764  0  -0.088794  -0.131136  0  3.962954  0
C  C136  1  0.21356560  0.40146548  0.21007306  1  -0.022274  0  -0.007138  0.11762  0  4.043572  0
C  C137  1  0.25555937  0.47506442  0.24571126  1  -0.029643  0  -0.088183  -0.12689  0  3.99567  0
C  C138  1  0.24309737  0.52126266  0.25949916  1  -0.059789  0  -0.0882  -0.127756  0  3.994319  0
C  C139  1  0.28564944  0.59481935  0.29521198  1  0.039062  0  -0.006955  0.118421  0  4.040847  0
C  C140  1  0.26428851  0.63570530  0.30810793  1  0.008786  0  -0.08952  -0.136853  0  3.977589  0
C  C141  1  0.30262196  0.70622852  0.34286827  1  -0.084268  0  -0.082542  -0.085467  0  3.989668  0
C  C142  1  0.36387647  0.73827217  0.36604074  1  -0.001403  0  -0.02037  -0.043045  0  3.976992  0
C  C143  1  0.38594898  0.69823304  0.35307252  1  -0.107712  0  -0.081148  -0.085266  0  3.986185  0
C  C144  1  0.34759185  0.62782899  0.31815188  1  0.005129  0  -0.08851  -0.130916  0  3.959746  0
C  C145  1  0.40463308  0.81388129  0.40505165  1  1.559161  0  0.223847  0.60012  0  4.171003  0
C  C146  1  0.23568114  0.36154518  0.19874450  1  0.013112  0  -0.08953  -0.13783  0  3.978583  0
C  C147  1  0.19810118  0.29098089  0.16428647  1  -0.032774  0  -0.081732  -0.083247  0  3.990368  0
C  C148  1  0.09712459  0.00391006  0.91688064  1  1.551398  0  0.223632  0.599658  0  4.170977  0
C  C149  1  0.13591807  0.00792615  0.88003534  1  -0.030205  0  -0.020157  -0.04342  0  3.979966  0
C  C150  1  0.11553335  0.95208445  0.82160864  1  -0.024812  0  -0.081839  -0.086803  0  3.989615  0
C  C151  1  0.15211568  0.95485978  0.78760838  1  -0.021321  0  -0.088312  -0.130151  0  3.965448  0
C  C152  1  0.21016101  0.01393022  0.81062695  1  -0.023908  0  -0.006263  0.118601  0  4.046175  0
C  C153  1  0.25119037  0.01927978  0.77774245  1  -0.049882  0  -0.088067  -0.127771  0  3.999134  0
C  C154  1  0.24251526  0.96904283  0.72371928  1  -0.029149  0  -0.08807  -0.127382  0  3.997345  0
C  C155  1  0.28462648  0.97508735  0.69197953  1  -0.074465  0  -0.006907  0.117729  0  4.045389  0
C  C156  1  0.26622243  0.92035171  0.63321256  1  0.00272  0  -0.089761  -0.137714  0  3.976103  0
C  C157  1  0.30423940  0.92426841  0.60050345  1  -0.074753  0  -0.081787  -0.084301  0  3.987041  0
C  C158  1  0.36235237  0.98299575  0.62603436  1  -0.013713  0  -0.020942  -0.044075  0  3.982272  0
C  C159  1  0.38175723  0.03733428  0.68493158  1  -0.023133  0  -0.081351  -0.086603  0  3.99026  0
C  C160  1  0.34354294  0.03351813  0.71726186  1  0.020468  0  -0.088286  -0.129336  0  3.9648  0
C  C161  1  0.40285473  0.98801469  0.59096578  1  1.555318  0  0.223672  0.601481  0  4.17089  0
C  C162  1  0.22938998  0.07020863  0.86882783  1  -0.0616  0  -0.089675  -0.137401  0  3.975228  0
C  C163  1  0.19319391  0.06721724  0.90331557  1  -0.014854  0  -0.081523  -0.083378  0  3.986401  0
O  O164  1  0.00141854  0.99838859  0.00643707  1  -1.200257  0  -0.573868  -1.029188  0  2.541335  0
O  O165  1  0.93217450  0.04809976  0.08918834  1  -1.172434  0  -0.317749  -0.551734  0  2.327652  0
O  O166  1  0.91881687  0.95411986  0.07715275  1  -1.179057  0  -0.318226  -0.550897  0  2.327958  0
O  O167  1  0.57142611  0.94791318  0.42335599  1  -1.167031  0  -0.31845  -0.553558  0  2.334477  0
O  O168  1  0.58103262  0.03771497  0.42956779  1  -1.171543  0  -0.317949  -0.552172  0  2.317738  0
O  O169  1  0.91852248  0.84588733  0.88703815  1  -1.16669  0  -0.319045  -0.550533  0  2.345321  0
O  O170  1  0.92442074  0.84107906  0.96542901  1  -1.163629  0  -0.316814  -0.549222  0  2.323083  0
O  O171  1  0.58065675  0.14977962  0.62240875  1  -1.160704  0  -0.318733  -0.550521  0  2.345324  0
O  O172  1  0.57960820  0.15416137  0.54342198  1  -1.171937  0  -0.316425  -0.550319  0  2.31956  0
O  O173  1  0.11721254  0.01945237  0.06515258  1  -1.17609  0  -0.319382  -0.55323  0  2.336687  0
O  O174  1  0.03672489  0.95468994  0.08093287  1  -1.169472  0  -0.317035  -0.549228  0  2.32404  0
O  O175  1  0.38671990  0.98102212  0.45071760  1  -1.173387  0  -0.322509  -0.55607  0  2.34623  0
O  O176  1  0.46419718  0.04088115  0.42902139  1  -1.170106  0  -0.315783  -0.549705  0  2.306674  0
O  O177  1  0.93862250  0.97079249  0.89093175  1  -1.178466  0  -0.319919  -0.553786  0  2.357265  0
O  O178  1  0.92424517  0.04131464  0.96903687  1  -1.163543  0  -0.316657  -0.54878  0  2.311302  0
O  O179  1  0.56127648  0.02505169  0.62015812  1  -1.167419  0  -0.319782  -0.554604  0  2.349279  0
O  O180  1  0.57556937  0.95382549  0.54258208  1  -1.170763  0  -0.31732  -0.550404  0  2.313222  0
O  O181  1  0.12083305  0.15041418  0.09462090  1  -1.161801  0  -0.319941  -0.55215  0  2.333799  0
O  O182  1  0.04158121  0.15497171  0.07961658  1  -1.175038  0  -0.31733  -0.550929  0  2.327931  0
O  O183  1  0.38159690  0.84657583  0.41175956  1  -1.173395  0  -0.320465  -0.550248  0  2.334255  0
O  O184  1  0.45910424  0.84027729  0.42916923  1  -1.178194  0  -0.316357  -0.550467  0  2.323086  0
O  O185  1  0.12072496  0.05281389  0.97147519  1  -1.182574  0  -0.318334  -0.550583  0  2.327517  0
O  O186  1  0.04313062  0.95166961  0.89119490  1  -1.178  0  -0.318785  -0.54987  0  2.326687  0
O  O187  1  0.38122767  0.93833695  0.53675651  1  -1.179333  0  -0.319348  -0.551175  0  2.332381  0
O  O188  1  0.45613394  0.04164629  0.61734275  1  -1.178773  0  -0.318229  -0.550788  0  2.321966  0
O  O189  1  0.50123318  0.99791714  0.50366470  1  -1.225668  0  -0.574332  -1.02973  0  2.544206  0
