# generated using pymatgen
data_CdH20C28(NO4)2
_symmetry_space_group_name_H-M   'P 1'
_cell_length_a   11.61480922
_cell_length_b   11.61808545
_cell_length_c   12.63647903
_cell_angle_alpha   99.56770032
_cell_angle_beta   119.73674387
_cell_angle_gamma   106.21802407
_symmetry_Int_Tables_number   1
_chemical_formula_structural   CdH20C28(NO4)2
_chemical_formula_sum   'Cd2 H40 C56 N4 O16'
_cell_volume   1323.34693812
_cell_formula_units_Z   2
loop_
 _symmetry_equiv_pos_site_id
 _symmetry_equiv_pos_as_xyz
  1  'x, y, z'
loop_
 _atom_site_type_symbol
 _atom_site_label
 _atom_site_symmetry_multiplicity
 _atom_site_fract_x
 _atom_site_fract_y
 _atom_site_fract_z
 _atom_site_occupancy
 _atom_site_hle17_bader_spin_density
 _atom_site_hle17_ddec_charge
 _atom_site_hle17_ddec_spin_density
 _atom_site_hle17_ddec_sum_bond_order
 _atom_site_hle17_magmom
 _atom_site_hse06_10hf_bader_spin_density
 _atom_site_hse06_10hf_ddec_charge
 _atom_site_hse06_10hf_ddec_spin_density
 _atom_site_hse06_10hf_ddec_sum_bond_order
 _atom_site_hse06_10hf_magmom
 _atom_site_hse06_bader_spin_density
 _atom_site_hse06_ddec_charge
 _atom_site_hse06_ddec_spin_density
 _atom_site_hse06_ddec_sum_bond_order
 _atom_site_hse06_magmom
 _atom_site_pbe_bader_spin_density
 _atom_site_pbe_cm5_charge
 _atom_site_pbe_ddec_charge
 _atom_site_pbe_ddec_spin_density
 _atom_site_pbe_ddec_sum_bond_order
 _atom_site_pbe_magmom
Cd  Cd0  1  0.58226119  0.33220721  0.74999531  1  0  1.208079  0  1.44233  0  0  1.034254  0  1.858054  0  0  1.104778  0  1.796734  0  0  0.759126  0.982749  0  1.900412  0
Cd  Cd1  1  0.41774781  0.66779411  0.25001224  1  0  1.208093  0  1.442314  0  0  1.034274  0  1.858006  0  0  1.104787  0  1.79671  0  0  0.759131  0.98277  0  1.900366  0
H  H2  1  0.80324634  0.03280449  0.50764063  1  0  0.121264  0  0.927709  0  0  0.127177  0  0.992828  0  0  0.130915  0  0.989436  0  0  0.134944  0.124362  0  0.995521  0
H  H3  1  0.52571473  0.79581070  0.99261506  1  0  0.120987  0  0.927707  0  0  0.127204  0  0.992286  0  0  0.130909  0  0.988978  0  0  0.135254  0.124406  0  0.99496  0
H  H4  1  0.19676178  0.96718074  0.49236065  1  0  0.121255  0  0.927686  0  0  0.127178  0  0.992788  0  0  0.130919  0  0.989394  0  0  0.134964  0.124356  0  0.995477  0
H  H5  1  0.47428727  0.20418513  0.00738863  1  0  0.120948  0  0.927679  0  0  0.127196  0  0.992213  0  0  0.130902  0  0.988907  0  0  0.135221  0.124404  0  0.994878  0
H  H6  1  0.03393047  0.11514455  0.51200839  1  0  0.122547  0  0.939453  0  0  0.131862  0  0.996061  0  0  0.135553  0  0.994822  0  0  0.117263  0.129208  0  0.997152  0
H  H7  1  0.60300640  0.02197456  0.98781780  1  0  0.121468  0  0.940743  0  0  0.130823  0  0.997417  0  0  0.134504  0  0.996185  0  0  0.116834  0.128182  0  0.998511  0
H  H8  1  0.96607182  0.88485720  0.48799534  1  0  0.122542  0  0.9394  0  0  0.131839  0  0.996028  0  0  0.135527  0  0.994785  0  0  0.117233  0.129187  0  0.997126  0
H  H9  1  0.39699152  0.97801569  0.01218574  1  0  0.121482  0  0.940708  0  0  0.130877  0  0.997312  0  0  0.134557  0  0.996079  0  0  0.116847  0.128234  0  0.998412  0
H  H10  1  0.27269787  0.32563119  0.92663642  1  0  0.14157  0  0.953036  0  0  0.146269  0  1.016861  0  0  0.15093  0  1.013708  0  0  0.119863  0.142821  0  1.01945  0
H  H11  1  0.39832314  0.84598078  0.57310158  1  0  0.143505  0  0.950062  0  0  0.148546  0  1.013695  0  0  0.153155  0  1.010609  0  0  0.120653  0.145088  0  1.016297  0
H  H12  1  0.72730852  0.67438693  0.07336557  1  0  0.14157  0  0.953007  0  0  0.146236  0  1.016871  0  0  0.150899  0  1.013715  0  0  0.119872  0.142786  0  1.019462  0
H  H13  1  0.60168074  0.15401655  0.42689601  1  0  0.143521  0  0.950103  0  0  0.148549  0  1.013716  0  0  0.153167  0  1.010619  0  0  0.120637  0.145093  0  1.016317  0
H  H14  1  0.03853517  0.25424059  0.90403466  1  0  0.126501  0  0.907744  0  0  0.135146  0  0.96537  0  0  0.138767  0  0.961798  0  0  0.144201  0.132424  0  0.968094  0
H  H15  1  0.35003431  0.63460661  0.59589912  1  0  0.127501  0  0.906715  0  0  0.135899  0  0.964439  0  0  0.139545  0  0.960846  0  0  0.144274  0.13316  0  0.967182  0
H  H16  1  0.96146426  0.74577561  0.09595599  1  0  0.126534  0  0.907635  0  0  0.13507  0  0.965406  0  0  0.138708  0  0.961799  0  0  0.144164  0.132334  0  0.968166  0
H  H17  1  0.64998683  0.36539864  0.40411049  1  0  0.127434  0  0.906595  0  0  0.135919  0  0.96426  0  0  0.139562  0  0.960669  0  0  0.144244  0.133178  0  0.967006  0
H  H18  1  0.79224594  0.16091246  0.77730485  1  0  0.112044  0  0.929129  0  0  0.120792  0  0.99662  0  0  0.122677  0  0.995368  0  0  0.121453  0.119262  0  0.997645  0
H  H19  1  0.38448326  0.51536150  0.72320904  1  0  0.111482  0  0.9293  0  0  0.120148  0  0.996628  0  0  0.122031  0  0.995417  0  0  0.121866  0.118638  0  0.997636  0
H  H20  1  0.20777112  0.83909623  0.22270646  1  0  0.112066  0  0.929098  0  0  0.120882  0  0.996542  0  0  0.122767  0  0.995293  0  0  0.12149  0.119351  0  0.997563  0
H  H21  1  0.61549975  0.48462320  0.27677514  1  0  0.111432  0  0.929468  0  0  0.120096  0  0.996795  0  0  0.12198  0  0.995581  0  0  0.121802  0.118567  0  0.997793  0
H  H22  1  0.68929794  0.07347807  0.60612915  1  0  0.113408  0  0.911758  0  0  0.126174  0  0.973194  0  0  0.128292  0  0.971198  0  0  0.123204  0.124517  0  0.974809  0
H  H23  1  0.46804656  0.58368009  0.89434348  1  0  0.113921  0  0.911301  0  0  0.126233  0  0.973201  0  0  0.128378  0  0.971244  0  0  0.122967  0.124565  0  0.974822  0
H  H24  1  0.31069374  0.92652246  0.39387036  1  0  0.113359  0  0.911829  0  0  0.126159  0  0.97328  0  0  0.128274  0  0.971283  0  0  0.123197  0.124497  0  0.974895  0
H  H25  1  0.53193871  0.41629249  0.10564030  1  0  0.114162  0  0.911047  0  0  0.126392  0  0.973028  0  0  0.128533  0  0.971073  0  0  0.123036  0.124707  0  0.974636  0
H  H26  1  0.86820236  0.04929868  0.93393454  1  0  0.098888  0  0.938621  0  0  0.11235  0  0.993189  0  0  0.115392  0  0.992248  0  0  0.10174  0.110105  0  0.994042  0
H  H27  1  0.11596200  0.43462450  0.56622024  1  0  0.099181  0  0.938108  0  0  0.112429  0  0.993148  0  0  0.115477  0  0.992206  0  0  0.102041  0.110228  0  0.993947  0
H  H28  1  0.13179948  0.95071131  0.06607471  1  0  0.098723  0  0.938677  0  0  0.112209  0  0.993267  0  0  0.115249  0  0.992329  0  0  0.101638  0.10998  0  0.994102  0
H  H29  1  0.88401898  0.56535481  0.43377107  1  0  0.099185  0  0.938069  0  0  0.11243  0  0.993131  0  0  0.115477  0  0.99219  0  0  0.102034  0.110228  0  0.99393  0
H  H30  1  0.81797109  0.83880682  0.96437549  1  0  0.080863  0  0.983401  0  0  0.088472  0  1.053483  0  0  0.091192  0  1.05233  0  0  0.093389  0.086601  0  1.054219  0
H  H31  1  0.87501706  0.35407127  0.53582721  1  0  0.080125  0  0.984581  0  0  0.087648  0  1.054796  0  0  0.09044  0  1.053551  0  0  0.092997  0.085725  0  1.05558  0
H  H32  1  0.18202166  0.16119917  0.03561646  1  0  0.080897  0  0.983355  0  0  0.088457  0  1.053494  0  0  0.091175  0  1.052345  0  0  0.093398  0.086585  0  1.054229  0
H  H33  1  0.12497782  0.64592985  0.46418968  1  0  0.080096  0  0.984633  0  0  0.087627  0  1.054828  0  0  0.09043  0  1.053572  0  0  0.092939  0.085705  0  1.055611  0
H  H34  1  0.60156617  0.63850039  0.55304299  1  0  0.127844  0  0.943154  0  0  0.134892  0  1.005234  0  0  0.139325  0  1.00148  0  0  0.109764  0.131619  0  1.008092  0
H  H35  1  0.08567863  0.54830975  0.94709835  1  0  0.127912  0  0.943573  0  0  0.134261  0  1.006624  0  0  0.138673  0  1.002856  0  0  0.109721  0.131026  0  1.009445  0
H  H36  1  0.39844052  0.36151118  0.44696708  1  0  0.127994  0  0.943193  0  0  0.135027  0  1.005266  0  0  0.139459  0  1.001513  0  0  0.109834  0.131768  0  1.008101  0
H  H37  1  0.91432907  0.45170363  0.05291003  1  0  0.127942  0  0.943539  0  0  0.134295  0  1.006579  0  0  0.138708  0  1.002811  0  0  0.109717  0.131058  0  1.009402  0
H  H38  1  0.65297769  0.84814871  0.52225184  1  0  0.1045  0  0.986632  0  0  0.114249  0  1.053324  0  0  0.117246  0  1.051187  0  0  0.099347  0.112003  0  1.055128  0
H  H39  1  0.32632934  0.63041904  0.97806447  1  0  0.105488  0  0.985886  0  0  0.114947  0  1.053007  0  0  0.118012  0  1.050772  0  0  0.099661  0.112682  0  1.054833  0
H  H40  1  0.34701450  0.15185450  0.47774268  1  0  0.104549  0  0.986688  0  0  0.114289  0  1.053388  0  0  0.117284  0  1.051254  0  0  0.099377  0.112038  0  1.055198  0
H  H41  1  0.67367764  0.36956236  0.02193742  1  0  0.105357  0  0.985908  0  0  0.114857  0  1.053  0  0  0.117924  0  1.050769  0  0  0.099628  0.112593  0  1.054824  0
C  C42  1  0.91102905  0.09861508  0.59599935  1  0  0.089177  0  3.572683  0  0  0.048493  0  3.825194  0  0  0.056079  0  3.839961  0  0  0.068756  0.042902  0  3.816588  0
C  C43  1  0.50280955  0.81513719  0.90413132  1  0  0.08923  0  3.56971  0  0  0.048506  0  3.822297  0  0  0.056079  0  3.837046  0  0  0.06864  0.042967  0  3.813603  0
C  C44  1  0.08897886  0.90138770  0.40399598  1  0  0.089201  0  3.57261  0  0  0.048545  0  3.825065  0  0  0.056124  0  3.839834  0  0  0.068684  0.042959  0  3.816462  0
C  C45  1  0.49719233  0.18484585  0.09587397  1  0  0.08895  0  3.570017  0  0  0.04823  0  3.822531  0  0  0.055801  0  3.837283  0  0  0.068544  0.042655  0  3.813902  0
C  C46  1  0.03777897  0.14169601  0.60079230  1  0  -0.116978  0  3.711815  0  0  -0.137793  0  3.961999  0  0  -0.143895  0  3.981122  0  0  -0.0676  -0.133984  0  3.949514  0
C  C47  1  0.54086097  0.93700309  0.89911017  1  0  -0.114901  0  3.710083  0  0  -0.135756  0  3.960596  0  0  -0.141843  0  3.979728  0  0  -0.067077  -0.131988  0  3.948146  0
C  C48  1  0.96223117  0.85831088  0.39921009  1  0  -0.116863  0  3.711827  0  0  -0.137644  0  3.961979  0  0  -0.143739  0  3.9811  0  0  -0.067438  -0.133844  0  3.949501  0
C  C49  1  0.45913863  0.06298298  0.10089206  1  0  -0.114668  0  3.710082  0  0  -0.135511  0  3.960519  0  0  -0.141595  0  3.979652  0  0  -0.066994  -0.131737  0  3.948057  0
C  C50  1  0.17224810  0.22156086  0.72035283  1  0  0.030614  0  3.68619  0  0  0.045574  0  3.918151  0  0  0.046907  0  3.93527  0  0  0.021901  0.044559  0  3.906872  0
C  C51  1  0.50095215  0.95184208  0.77944629  1  0  0.028837  0  3.682781  0  0  0.043596  0  3.915379  0  0  0.044937  0  3.932478  0  0  0.021531  0.042565  0  3.90412  0
C  C52  1  0.82775604  0.77845136  0.27964585  1  0  0.030532  0  3.686126  0  0  0.045437  0  3.918126  0  0  0.04677  0  3.935248  0  0  0.021829  0.04442  0  3.906848  0
C  C53  1  0.49905422  0.04815448  0.22056028  1  0  0.028746  0  3.682686  0  0  0.043404  0  3.915388  0  0  0.044737  0  3.932499  0  0  0.021511  0.042381  0  3.904119  0
C  C54  1  0.17342176  0.26100809  0.83143219  1  0  -0.103945  0  3.68703  0  0  -0.126904  0  3.939513  0  0  -0.132802  0  3.957615  0  0  -0.061188  -0.123321  0  3.927901  0
C  C55  1  0.42925374  0.84189657  0.66842456  1  0  -0.10543  0  3.68322  0  0  -0.129138  0  3.936346  0  0  -0.134999  0  3.954496  0  0  -0.062186  -0.125554  0  3.924745  0
C  C56  1  0.82658898  0.73899091  0.16857192  1  0  -0.103902  0  3.687103  0  0  -0.126824  0  3.939543  0  0  -0.132729  0  3.957657  0  0  -0.061238  -0.123237  0  3.927929  0
C  C57  1  0.57075188  0.15810402  0.33158214  1  0  -0.105473  0  3.683063  0  0  -0.129097  0  3.936238  0  0  -0.134967  0  3.954384  0  0  -0.062175  -0.125514  0  3.924631  0
C  C58  1  0.04317402  0.22128789  0.82101636  1  0  0.10838  0  3.571922  0  0  0.065019  0  3.826725  0  0  0.073875  0  3.840159  0  0  0.079792  0.059286  0  3.817705  0
C  C59  1  0.40015982  0.72215693  0.67902294  1  0  0.105626  0  3.569555  0  0  0.062957  0  3.823885  0  0  0.071756  0  3.837384  0  0  0.079313  0.057258  0  3.814826  0
C  C60  1  0.95683566  0.77870920  0.17898703  1  0  0.108392  0  3.571988  0  0  0.065123  0  3.826742  0  0  0.073979  0  3.840182  0  0  0.079789  0.059386  0  3.817718  0
C  C61  1  0.59983441  0.27783915  0.32097168  1  0  0.105704  0  3.569362  0  0  0.062883  0  3.823776  0  0  0.071681  0  3.837283  0  0  0.079308  0.057186  0  3.814715  0
C  C62  1  0.31243921  0.26680764  0.72784346  1  0  0.604422  0  3.982805  0  0  0.559658  0  4.273248  0  0  0.59246  0  4.26842  0  0  0.188049  0.537542  0  4.275046  0
C  C63  1  0.53857170  0.08453896  0.77184065  1  0  0.604292  0  3.983343  0  0  0.559717  0  4.273763  0  0  0.592517  0  4.269016  0  0  0.18836  0.537615  0  4.275502  0
C  C64  1  0.68754383  0.73318059  0.27213243  1  0  0.604419  0  3.982459  0  0  0.559739  0  4.272767  0  0  0.592541  0  4.267943  0  0  0.188247  0.537624  0  4.274561  0
C  C65  1  0.46141791  0.91545959  0.22815531  1  0  0.604356  0  3.983748  0  0  0.559828  0  4.274099  0  0  0.592629  0  4.269344  0  0  0.188325  0.537723  0  4.275843  0
C  C66  1  0.78128104  0.08685773  0.70229674  1  0  -0.073881  0  3.604065  0  0  -0.141942  0  3.856468  0  0  -0.137888  0  3.865319  0  0  -0.047937  -0.144422  0  3.850309  0
C  C67  1  0.38522689  0.57928682  0.79811451  1  0  -0.074311  0  3.605056  0  0  -0.141552  0  3.856994  0  0  -0.137634  0  3.865939  0  0  -0.048343  -0.144035  0  3.85088  0
C  C68  1  0.21872263  0.91314292  0.29770750  1  0  -0.073685  0  3.604298  0  0  -0.141891  0  3.856935  0  0  -0.137839  0  3.865796  0  0  -0.047873  -0.144355  0  3.850771  0
C  C69  1  0.61476912  0.42070881  0.20187454  1  0  -0.074412  0  3.604765  0  0  -0.141654  0  3.856731  0  0  -0.137725  0  3.865658  0  0  -0.048348  -0.144037  0  3.850486  0
C  C70  1  0.76161883  0.96169768  0.72519449  1  0  0.05685  0  3.7749  0  0  0.075631  0  4.017461  0  0  0.074439  0  4.043585  0  0  -0.021114  0.076731  0  3.999374  0
C  C71  1  0.23705087  0.53656006  0.77503705  1  0  0.057883  0  3.775265  0  0  0.076974  0  4.0171  0  0  0.075858  0  4.043217  0  0  -0.02043  0.078048  0  3.999022  0
C  C72  1  0.23837985  0.03831010  0.27480434  1  0  0.05677  0  3.774622  0  0  0.075498  0  4.01736  0  0  0.074304  0  4.043487  0  0  -0.021107  0.076584  0  3.999292  0
C  C73  1  0.76294365  0.46344369  0.22495306  1  0  0.057652  0  3.775589  0  0  0.07681  0  4.01737  0  0  0.075694  0  4.043486  0  0  -0.020398  0.077861  0  3.99927  0
C  C74  1  0.81197882  0.95955392  0.85079389  1  0  -0.128389  0  3.769442  0  0  -0.147155  0  4.01924  0  0  -0.15139  0  4.042556  0  0  -0.09946  -0.144133  0  4.003164  0
C  C75  1  0.10937512  0.46156148  0.64941494  1  0  -0.130533  0  3.76875  0  0  -0.149466  0  4.018677  0  0  -0.153725  0  4.042022  0  0  -0.100573  -0.146464  0  4.002551  0
C  C76  1  0.18801559  0.04045336  0.14920689  1  0  -0.128031  0  3.769474  0  0  -0.146793  0  4.019277  0  0  -0.151027  0  4.042593  0  0  -0.099358  -0.14378  0  4.003195  0
C  C77  1  0.89061733  0.53843680  0.35058071  1  0  -0.130475  0  3.769002  0  0  -0.149435  0  4.018926  0  0  -0.153694  0  4.042274  0  0  -0.100582  -0.146437  0  4.002807  0
C  C78  1  0.78412521  0.84200416  0.86805694  1  0  -0.090946  0  3.785425  0  0  -0.112856  0  4.035306  0  0  -0.113544  0  4.057744  0  0  -0.097552  -0.112151  0  4.019873  0
C  C79  1  0.97450190  0.41638310  0.63211029  1  0  -0.088953  0  3.785443  0  0  -0.110436  0  4.034949  0  0  -0.111195  0  4.057358  0  0  -0.097132  -0.109674  0  4.019559  0
C  C80  1  0.21586307  0.15799736  0.13193639  1  0  -0.091146  0  3.785466  0  0  -0.113026  0  4.035371  0  0  -0.113707  0  4.057799  0  0  -0.097587  -0.112317  0  4.019939  0
C  C81  1  0.02549652  0.58361358  0.36790374  1  0  -0.088897  0  3.78538  0  0  -0.110385  0  4.034886  0  0  -0.111151  0  4.057286  0  0  -0.097102  -0.10962  0  4.019496  0
C  C82  1  0.70644157  0.72568302  0.76117240  1  0  -0.060608  0  3.74406  0  0  -0.03683  0  3.972354  0  0  -0.044627  0  3.995966  0  0  -0.019197  -0.031744  0  3.956692  0
C  C83  1  0.96494549  0.44524301  0.73899500  1  0  -0.061656  0  3.744023  0  0  -0.038421  0  3.973263  0  0  -0.046152  0  3.996774  0  0  -0.020072  -0.033387  0  3.957676  0
C  C84  1  0.29355689  0.27432074  0.23882507  1  0  -0.060422  0  3.743823  0  0  -0.036609  0  3.97205  0  0  -0.044413  0  3.99566  0  0  -0.019064  -0.031526  0  3.956389  0
C  C85  1  0.03505776  0.55475692  0.26101371  1  0  -0.061645  0  3.743543  0  0  -0.038391  0  3.972762  0  0  -0.046117  0  3.996271  0  0  -0.019989  -0.033357  0  3.957172  0
C  C86  1  0.66243063  0.72855951  0.63662449  1  0  -0.050026  0  3.67987  0  0  -0.071825  0  3.922516  0  0  -0.071442  0  3.941119  0  0  -0.076938  -0.07193  0  3.910102  0
C  C87  1  0.09230750  0.52564684  0.86357454  1  0  -0.047935  0  3.678912  0  0  -0.069053  0  3.921784  0  0  -0.068668  0  3.940397  0  0  -0.0753  -0.069173  0  3.909368  0
C  C88  1  0.33757410  0.27145207  0.36338231  1  0  -0.05033  0  3.679909  0  0  -0.072157  0  3.922618  0  0  -0.071773  0  3.941222  0  0  -0.077106  -0.072277  0  3.910218  0
C  C89  1  0.90768723  0.47435743  0.13642603  1  0  -0.048015  0  3.679051  0  0  -0.069137  0  3.921925  0  0  -0.068754  0  3.940539  0  0  -0.07531  -0.069253  0  3.909505  0
C  C90  1  0.69025194  0.84612209  0.61943766  1  0  -0.10761  0  3.715049  0  0  -0.128997  0  3.962221  0  0  -0.132145  0  3.983593  0  0  -0.090806  -0.126878  0  3.947695  0
C  C91  1  0.22713181  0.57071206  0.88079253  1  0  -0.109539  0  3.715519  0  0  -0.130891  0  3.962681  0  0  -0.134097  0  3.983953  0  0  -0.09144  -0.12876  0  3.948206  0
C  C92  1  0.30974921  0.15388655  0.38056319  1  0  -0.107623  0  3.715117  0  0  -0.128956  0  3.962292  0  0  -0.132106  0  3.983672  0  0  -0.090795  -0.126831  0  3.947775  0
C  C93  1  0.77286924  0.42929634  0.11920350  1  0  -0.109258  0  3.715805  0  0  -0.130669  0  3.962934  0  0  -0.133878  0  3.98421  0  0  -0.091461  -0.128544  0  3.948466  0
C  C94  1  0.66383430  0.59912820  0.77943748  1  0  0.619488  0  3.961821  0  0  0.571131  0  4.256189  0  0  0.605577  0  4.251107  0  0  0.186192  0.547643  0  4.258567  0
C  C95  1  0.81997433  0.38419005  0.72054229  1  0  0.615334  0  3.965046  0  0  0.566679  0  4.260275  0  0  0.601094  0  4.255279  0  0  0.184208  0.54321  0  4.2626  0
C  C96  1  0.33618252  0.40087470  0.22057620  1  0  0.619678  0  3.961597  0  0  0.571351  0  4.255926  0  0  0.605802  0  4.250834  0  0  0.186199  0.547866  0  4.258305  0
C  C97  1  0.18001856  0.61580899  0.27944969  1  0  0.615146  0  3.965219  0  0  0.56648  0  4.260463  0  0  0.600892  0  4.255468  0  0  0.184075  0.543015  0  4.262784  0
N  N98  1  0.91609795  0.13895328  0.70594949  1  0  0.005102  0  3.540422  0  0  0.099699  0  3.749649  0  0  0.086449  0  3.776034  0  0  -0.203047  0.108394  0  3.731834  0
N  N99  1  0.43326811  0.71027795  0.79424105  1  0  0.007854  0  3.537381  0  0  0.102133  0  3.746387  0  0  0.088941  0  3.772822  0  0  -0.202208  0.1108  0  3.728567  0
N  N100  1  0.08391341  0.86105213  0.29404536  1  0  0.00483  0  3.540802  0  0  0.099437  0  3.750081  0  0  0.086193  0  3.776463  0  0  -0.203144  0.108131  0  3.732263  0
N  N101  1  0.56672304  0.28971260  0.20575626  1  0  0.007972  0  3.537212  0  0  0.102304  0  3.746178  0  0  0.089109  0  3.772615  0  0  -0.202123  0.110953  0  3.72833  0
O  O102  1  0.30170338  0.26538637  0.62323072  1  0  -0.60866  0  1.932244  0  0  -0.559239  0  2.159056  0  0  -0.586405  0  2.152144  0  0  -0.317455  -0.539629  0  2.162671  0
O  O103  1  0.64198635  0.17830565  0.87644461  1  0  -0.608759  0  1.931181  0  0  -0.559366  0  2.158009  0  0  -0.586497  0  2.151036  0  0  -0.317649  -0.539769  0  2.161646  0
O  O104  1  0.69829321  0.73458326  0.37675473  1  0  -0.608907  0  1.93196  0  0  -0.5595  0  2.158697  0  0  -0.58667  0  2.151789  0  0  -0.317666  -0.539886  0  2.16231  0
O  O105  1  0.35801724  0.82169306  0.12356015  1  0  -0.608707  0  1.931549  0  0  -0.55934  0  2.158367  0  0  -0.586463  0  2.151383  0  0  -0.317608  -0.539745  0  2.162011  0
O  O106  1  0.43167659  0.30353817  0.83994278  1  0  -0.640141  0  1.939104  0  0  -0.584439  0  2.175197  0  0  -0.613968  0  2.167231  0  0  -0.325276  -0.56339  0  2.179689  0
O  O107  1  0.46309369  0.09169554  0.65976968  1  0  -0.639376  0  1.941194  0  0  -0.583869  0  2.17739  0  0  -0.613362  0  2.169404  0  0  -0.325437  -0.562786  0  2.181756  0
O  O108  1  0.56831857  0.69648279  0.16003619  1  0  -0.639905  0  1.939192  0  0  -0.584184  0  2.175135  0  0  -0.613706  0  2.167169  0  0  -0.325223  -0.563136  0  2.179628  0
O  O109  1  0.53687054  0.90830767  0.34023263  1  0  -0.639493  0  1.941233  0  0  -0.584002  0  2.177422  0  0  -0.613493  0  2.169427  0  0  -0.325432  -0.562925  0  2.181807  0
O  O110  1  0.71111397  0.59877685  0.89345663  1  0  -0.64564  0  1.936083  0  0  -0.596538  0  2.171818  0  0  -0.62316  0  2.164849  0  0  -0.333512  -0.577224  0  2.175732  0
O  O111  1  0.70572958  0.31751044  0.60648439  1  0  -0.643839  0  1.936951  0  0  -0.594463  0  2.172592  0  0  -0.621031  0  2.165603  0  0  -0.332626  -0.575173  0  2.176485  0
O  O112  1  0.28889805  0.40123364  0.10656130  1  0  -0.645694  0  1.935851  0  0  -0.596627  0  2.171589  0  0  -0.623244  0  2.164614  0  0  -0.333521  -0.577319  0  2.175504  0
O  O113  1  0.29425448  0.68251226  0.39350871  1  0  -0.643705  0  1.936962  0  0  -0.59435  0  2.172629  0  0  -0.620943  0  2.165701  0  0  -0.332554  -0.575059  0  2.17652  0
O  O114  1  0.57634323  0.49765469  0.67481524  1  0  -0.640885  0  1.987636  0  0  -0.575406  0  2.231092  0  0  -0.607419  0  2.221693  0  0  -0.328348  -0.552753  0  2.236532  0
O  O115  1  0.82291362  0.40118235  0.82510353  1  0  -0.63923  0  1.988394  0  0  -0.573231  0  2.231452  0  0  -0.605293  0  2.222236  0  0  -0.327373  -0.550576  0  2.236836  0
O  O116  1  0.42367388  0.50235587  0.32519394  1  0  -0.641035  0  1.987498  0  0  -0.575564  0  2.230952  0  0  -0.607572  0  2.221543  0  0  -0.328414  -0.552907  0  2.236393  0
O  O117  1  0.17708814  0.59880037  0.17489533  1  0  -0.63919  0  1.988444  0  0  -0.573161  0  2.23142  0  0  -0.605217  0  2.222205  0  0  -0.327329  -0.550507  0  2.236803  0
