# generated using pymatgen
data_MgH16C8(BrO)2
_symmetry_space_group_name_H-M   'P 1'
_cell_length_a   3.94317619
_cell_length_b   7.54056449
_cell_length_c   18.29024404
_cell_angle_alpha   90.00001511
_cell_angle_beta   89.99999721
_cell_angle_gamma   89.99998537
_symmetry_Int_Tables_number   1
_chemical_formula_structural   MgH16C8(BrO)2
_chemical_formula_sum   'Mg2 H32 C16 Br4 O4'
_cell_volume   543.83798957
_cell_formula_units_Z   2
loop_
 _symmetry_equiv_pos_site_id
 _symmetry_equiv_pos_as_xyz
  1  'x, y, z'
loop_
 _atom_site_type_symbol
 _atom_site_label
 _atom_site_symmetry_multiplicity
 _atom_site_fract_x
 _atom_site_fract_y
 _atom_site_fract_z
 _atom_site_occupancy
 _atom_site_hle17_bader_spin_density
 _atom_site_hle17_ddec_charge
 _atom_site_hle17_ddec_spin_density
 _atom_site_hle17_ddec_sum_bond_order
 _atom_site_hle17_magmom
 _atom_site_hse06_10hf_bader_spin_density
 _atom_site_hse06_10hf_ddec_charge
 _atom_site_hse06_10hf_ddec_spin_density
 _atom_site_hse06_10hf_ddec_sum_bond_order
 _atom_site_hse06_10hf_magmom
 _atom_site_hse06_bader_spin_density
 _atom_site_hse06_ddec_charge
 _atom_site_hse06_ddec_spin_density
 _atom_site_hse06_ddec_sum_bond_order
 _atom_site_hse06_magmom
 _atom_site_pbe_bader_spin_density
 _atom_site_pbe_cm5_charge
 _atom_site_pbe_ddec_charge
 _atom_site_pbe_ddec_spin_density
 _atom_site_pbe_ddec_sum_bond_order
 _atom_site_pbe_magmom
Mg  Mg0  1  0.00000000  0.00000000  0.00000000  1  0  1.270056  0  1.316116  0  0  1.199473  0  1.477597  0  0  1.224745  0  1.447199  0  0  0.546672  1.181103  0  1.499602  0
Mg  Mg1  1  0.49999777  0.49999850  0.49999991  1  0  1.270125  0  1.316034  0  0  1.199518  0  1.477556  0  0  1.224791  0  1.447155  0  0  0.546685  1.181149  0  1.499558  0
H  H2  1  0.22523972  0.02798336  0.17312344  1  0  0.049577  0  0.967562  0  0  0.05959  0  1.039011  0  0  0.060557  0  1.037915  0  0  0.08917  0.058779  0  1.039914  0
H  H3  1  0.22523689  0.97201767  0.82687693  1  0  0.049579  0  0.967557  0  0  0.059584  0  1.039012  0  0  0.060551  0  1.037916  0  0  0.089177  0.058771  0  1.039915  0
H  H4  1  0.27476565  0.52798443  0.32687647  1  0  0.049568  0  0.967585  0  0  0.059582  0  1.039032  0  0  0.060549  0  1.037934  0  0  0.089181  0.058767  0  1.039934  0
H  H5  1  0.27476309  0.47201659  0.67312336  1  0  0.04958  0  0.967562  0  0  0.059589  0  1.039019  0  0  0.060555  0  1.037923  0  0  0.089176  0.058776  0  1.039922  0
H  H6  1  0.77476343  0.97201630  0.82687638  1  0  0.049579  0  0.967591  0  0  0.059592  0  1.039029  0  0  0.060559  0  1.037932  0  0  0.089182  0.05878  0  1.03993  0
H  H7  1  0.77476627  0.02798332  0.17312344  1  0  0.049589  0  0.967583  0  0  0.059602  0  1.039042  0  0  0.060568  0  1.037945  0  0  0.089191  0.058789  0  1.039943  0
H  H8  1  0.72523750  0.47201788  0.67312335  1  0  0.049524  0  0.967605  0  0  0.059547  0  1.039037  0  0  0.060513  0  1.037943  0  0  0.089159  0.058736  0  1.03994  0
H  H9  1  0.72524007  0.52798308  0.32687647  1  0  0.049579  0  0.96753  0  0  0.059586  0  1.038982  0  0  0.060552  0  1.037886  0  0  0.089172  0.058772  0  1.039883  0
H  H10  1  0.22222685  0.27584414  0.25109234  1  0  0.068558  0  0.966639  0  0  0.084067  0  1.032746  0  0  0.084755  0  1.033341  0  0  0.08915  0.083512  0  1.03243  0
H  H11  1  0.22222415  0.72415689  0.74890803  1  0  0.06856  0  0.96668  0  0  0.084086  0  1.032768  0  0  0.084774  0  1.033363  0  0  0.08915  0.08353  0  1.032449  0
H  H12  1  0.27777586  0.77584383  0.24890815  1  0  0.068475  0  0.966754  0  0  0.084064  0  1.032754  0  0  0.084752  0  1.033348  0  0  0.08913  0.083506  0  1.032438  0
H  H13  1  0.27777340  0.22415586  0.75109223  1  0  0.068561  0  0.966643  0  0  0.084078  0  1.032743  0  0  0.084766  0  1.033337  0  0  0.089157  0.083523  0  1.032425  0
H  H14  1  0.77777630  0.72415685  0.74890803  1  0  0.068527  0  0.966732  0  0  0.084086  0  1.032774  0  0  0.084774  0  1.033368  0  0  0.089149  0.083529  0  1.032455  0
H  H15  1  0.77777393  0.27584410  0.25109179  1  0  0.068525  0  0.966707  0  0  0.084074  0  1.032751  0  0  0.084763  0  1.033344  0  0  0.089141  0.083519  0  1.032433  0
H  H16  1  0.72222729  0.22415715  0.75109223  1  0  0.068555  0  0.966676  0  0  0.084079  0  1.032758  0  0  0.084767  0  1.033353  0  0  0.089153  0.083524  0  1.032441  0
H  H17  1  0.72222722  0.77584380  0.24890814  1  0  0.068572  0  0.966618  0  0  0.084077  0  1.032735  0  0  0.084765  0  1.033329  0  0  0.089151  0.08352  0  1.032418  0
H  H18  1  0.22275937  0.52212408  0.17240888  1  0  0.071542  0  0.964786  0  0  0.088095  0  1.028194  0  0  0.088727  0  1.029118  0  0  0.086449  0.087557  0  1.027635  0
H  H19  1  0.22275931  0.47787694  0.82759150  1  0  0.071547  0  0.964786  0  0  0.088103  0  1.028191  0  0  0.088733  0  1.029119  0  0  0.086456  0.087564  0  1.027633  0
H  H20  1  0.27724600  0.02212177  0.32759104  1  0  0.071517  0  0.964863  0  0  0.088075  0  1.028277  0  0  0.088713  0  1.0292  0  0  0.086413  0.087536  0  1.027719  0
H  H21  1  0.27724574  0.97787792  0.67240934  1  0  0.071507  0  0.964879  0  0  0.088073  0  1.02828  0  0  0.08871  0  1.029203  0  0  0.086418  0.087534  0  1.02772  0
H  H22  1  0.77724886  0.47787691  0.82759095  1  0  0.071512  0  0.964849  0  0  0.08808  0  1.028251  0  0  0.088717  0  1.029174  0  0  0.086423  0.087541  0  1.027691  0
H  H23  1  0.77724638  0.52212272  0.17240888  1  0  0.071534  0  0.964794  0  0  0.08807  0  1.02823  0  0  0.088704  0  1.029155  0  0  0.086425  0.087532  0  1.027669  0
H  H24  1  0.72275715  0.97787656  0.67240879  1  0  0.071524  0  0.964765  0  0  0.088069  0  1.028197  0  0  0.0887  0  1.029124  0  0  0.086437  0.087531  0  1.027637  0
H  H25  1  0.72275742  0.02212440  0.32759103  1  0  0.071513  0  0.964805  0  0  0.088088  0  1.028194  0  0  0.088719  0  1.029121  0  0  0.086458  0.087549  0  1.027636  0
H  H26  1  0.22539434  0.40470843  0.05459634  1  0  0.054362  0  0.96486  0  0  0.062  0  1.03914  0  0  0.063111  0  1.037848  0  0  0.088136  0.061071  0  1.040251  0
H  H27  1  0.22539420  0.59529260  0.94540349  1  0  0.054364  0  0.964858  0  0  0.061998  0  1.039144  0  0  0.06311  0  1.037852  0  0  0.088138  0.061072  0  1.040249  0
H  H28  1  0.27460324  0.90470826  0.44540362  1  0  0.054384  0  0.964847  0  0  0.061992  0  1.039146  0  0  0.063103  0  1.037853  0  0  0.088129  0.061062  0  1.040256  0
H  H29  1  0.27460088  0.09529144  0.55459621  1  0  0.054377  0  0.964843  0  0  0.061994  0  1.039138  0  0  0.063106  0  1.037845  0  0  0.088127  0.061063  0  1.04025  0
H  H30  1  0.77460374  0.59529256  0.94540403  1  0  0.054369  0  0.964842  0  0  0.062006  0  1.039127  0  0  0.063118  0  1.037835  0  0  0.088137  0.061075  0  1.040242  0
H  H31  1  0.77460388  0.40470839  0.05459634  1  0  0.05437  0  0.964849  0  0  0.062006  0  1.039134  0  0  0.063118  0  1.037841  0  0  0.088133  0.061078  0  1.040242  0
H  H32  1  0.72539231  0.09529141  0.55459621  1  0  0.054383  0  0.964869  0  0  0.061993  0  1.039161  0  0  0.063105  0  1.037867  0  0  0.088139  0.061065  0  1.04027  0
H  H33  1  0.72539466  0.90470823  0.44540361  1  0  0.054372  0  0.964869  0  0  0.061979  0  1.039165  0  0  0.06309  0  1.037871  0  0  0.088131  0.06105  0  1.040274  0
C  C34  1  0.99999838  0.11177942  0.16587586  1  0  0.105702  0  3.566403  0  0  0.05182  0  3.825647  0  0  0.059218  0  3.830596  0  0  -0.073798  0.046905  0  3.822244  0
C  C35  1  0.99999813  0.88822018  0.83412396  1  0  0.105731  0  3.566346  0  0  0.051883  0  3.825592  0  0  0.059282  0  3.830539  0  0  -0.07378  0.046974  0  3.82218  0
C  C36  1  0.49999776  0.61178053  0.33412351  1  0  0.105755  0  3.566328  0  0  0.05189  0  3.825575  0  0  0.059288  0  3.830525  0  0  -0.073773  0.046984  0  3.82216  0
C  C37  1  0.49999524  0.38822045  0.66587632  1  0  0.105777  0  3.566339  0  0  0.051895  0  3.825595  0  0  0.059294  0  3.830543  0  0  -0.07377  0.046979  0  3.822188  0
C  C38  1  0.00000245  0.27572346  0.21511524  1  0  -0.138055  0  3.641851  0  0  -0.176162  0  3.894468  0  0  -0.178213  0  3.907276  0  0  -0.168026  -0.174607  0  3.885571  0
C  C39  1  0.00000228  0.72427627  0.78488459  1  0  -0.138076  0  3.641862  0  0  -0.176234  0  3.894537  0  0  -0.178284  0  3.907344  0  0  -0.168043  -0.174679  0  3.885633  0
C  C40  1  0.50000280  0.77572448  0.28488470  1  0  -0.138054  0  3.641806  0  0  -0.176202  0  3.894441  0  0  -0.178254  0  3.907251  0  0  -0.168027  -0.17465  0  3.885541  0
C  C41  1  0.50000035  0.22427651  0.71511513  1  0  -0.138087  0  3.641805  0  0  -0.176199  0  3.894453  0  0  -0.17825  0  3.907263  0  0  -0.16804  -0.174646  0  3.885557  0
C  C42  1  0.99999831  0.43787171  0.16369822  1  0  -0.126629  0  3.618379  0  0  -0.163558  0  3.865807  0  0  -0.165728  0  3.879137  0  0  -0.168139  -0.161856  0  3.856533  0
C  C43  1  0.99999820  0.56212921  0.83630161  1  0  -0.126623  0  3.61841  0  0  -0.163562  0  3.865836  0  0  -0.165735  0  3.879171  0  0  -0.168147  -0.161859  0  3.856562  0
C  C44  1  0.49999515  0.93787151  0.33630174  1  0  -0.126556  0  3.618407  0  0  -0.163511  0  3.865804  0  0  -0.165687  0  3.87914  0  0  -0.168134  -0.161812  0  3.856533  0
C  C45  1  0.49999532  0.06212816  0.66369864  1  0  -0.12653  0  3.618356  0  0  -0.163461  0  3.865751  0  0  -0.165636  0  3.879088  0  0  -0.168107  -0.161762  0  3.856478  0
C  C46  1  0.00000244  0.36532414  0.08572222  1  0  0.111113  0  3.542855  0  0  0.057077  0  3.800414  0  0  0.064418  0  3.805466  0  0  -0.074014  0.052148  0  3.796982  0
C  C47  1  0.00000228  0.63467559  0.91427761  1  0  0.111132  0  3.542818  0  0  0.057097  0  3.800385  0  0  0.064436  0  3.805441  0  0  -0.074007  0.052167  0  3.796952  0
C  C48  1  0.50000277  0.86532391  0.41427718  1  0  0.111077  0  3.54291  0  0  0.057101  0  3.80044  0  0  0.064444  0  3.80549  0  0  -0.073991  0.052178  0  3.79701  0
C  C49  1  0.50000039  0.13467575  0.58572264  1  0  0.111068  0  3.542821  0  0  0.05708  0  3.800362  0  0  0.064421  0  3.805414  0  0  -0.074  0.052155  0  3.796932  0
Br  Br50  1  0.49999780  0.19307998  0.93734726  1  0  -0.655269  0  0.931677  0  0  -0.623462  0  1.176461  0  0  -0.635559  0  1.155462  0  0  -0.225583  -0.614483  0  1.191713  0
Br  Br51  1  0.49999775  0.80691836  0.06265257  1  0  -0.655262  0  0.931666  0  0  -0.623439  0  1.176422  0  0  -0.635535  0  1.155424  0  0  -0.225577  -0.614459  0  1.191669  0
Br  Br52  1  0.00000074  0.69307953  0.56265354  1  0  -0.655278  0  0.931647  0  0  -0.623446  0  1.176388  0  0  -0.635542  0  1.15539  0  0  -0.225582  -0.61447  0  1.191639  0
Br  Br53  1  0.00000084  0.30691874  0.43734683  1  0  -0.65529  0  0.931662  0  0  -0.623471  0  1.176435  0  0  -0.635568  0  1.155433  0  0  -0.22559  -0.614491  0  1.191684  0
O  O54  1  0.00000091  0.17239289  0.09059639  1  0  -0.419949  0  2.353471  0  0  -0.332973  0  2.579113  0  0  -0.350827  0  2.57915  0  0  -0.269579  -0.32051  0  2.578798  0
O  O55  1  0.99999813  0.82760803  0.90940398  1  0  -0.419965  0  2.353432  0  0  -0.333002  0  2.579078  0  0  -0.350854  0  2.579112  0  0  -0.269588  -0.320538  0  2.578759  0
O  O56  1  0.49999774  0.67239273  0.40940354  1  0  -0.419993  0  2.353467  0  0  -0.33303  0  2.579105  0  0  -0.350885  0  2.579141  0  0  -0.269603  -0.32057  0  2.578786  0
O  O57  1  0.49999780  0.32760826  0.59059629  1  0  -0.420004  0  2.353452  0  0  -0.333028  0  2.579092  0  0  -0.350882  0  2.579127  0  0  -0.269596  -0.320564  0  2.578776  0
