# generated using pymatgen
data_CdH24C18(NO)6
_symmetry_space_group_name_H-M   'P 1'
_cell_length_a   5.42999453
_cell_length_b   8.85818234
_cell_length_c   10.83778492
_cell_angle_alpha   71.99021972
_cell_angle_beta   85.22619503
_cell_angle_gamma   78.01898730
_symmetry_Int_Tables_number   1
_chemical_formula_structural   CdH24C18(NO)6
_chemical_formula_sum   'Cd1 H24 C18 N6 O6'
_cell_volume   484.85373268
_cell_formula_units_Z   1
loop_
 _symmetry_equiv_pos_site_id
 _symmetry_equiv_pos_as_xyz
  1  'x, y, z'
loop_
 _atom_site_type_symbol
 _atom_site_label
 _atom_site_symmetry_multiplicity
 _atom_site_fract_x
 _atom_site_fract_y
 _atom_site_fract_z
 _atom_site_occupancy
 _atom_site_hle17_bader_spin_density
 _atom_site_hle17_ddec_charge
 _atom_site_hle17_ddec_spin_density
 _atom_site_hle17_ddec_sum_bond_order
 _atom_site_hle17_magmom
 _atom_site_hse06_10hf_bader_spin_density
 _atom_site_hse06_10hf_ddec_charge
 _atom_site_hse06_10hf_ddec_spin_density
 _atom_site_hse06_10hf_ddec_sum_bond_order
 _atom_site_hse06_10hf_magmom
 _atom_site_hse06_bader_spin_density
 _atom_site_hse06_ddec_charge
 _atom_site_hse06_ddec_spin_density
 _atom_site_hse06_ddec_sum_bond_order
 _atom_site_hse06_magmom
 _atom_site_pbe_bader_spin_density
 _atom_site_pbe_cm5_charge
 _atom_site_pbe_ddec_charge
 _atom_site_pbe_ddec_spin_density
 _atom_site_pbe_ddec_sum_bond_order
 _atom_site_pbe_magmom
Cd  Cd0  1  0.99999948  0.50000339  0.99999650  1  0  1.165508  0  1.665453  0  0  0.984671  0  2.105533  0  0  1.037694  0  2.053738  0  0  0.767511  0.946559  0  2.141785  0
H  H1  1  0.77251446  0.69239804  0.78506878  1  0  0.411231  0  0.903954  0  0  0.377657  0  0.97264  0  0  0.389966  0  0.95498  0  0  0.279757  0.369013  0  0.985028  0
H  H2  1  0.22748652  0.30760208  0.21492174  1  0  0.411209  0  0.904003  0  0  0.377619  0  0.972716  0  0  0.389929  0  0.955055  0  0  0.279704  0.368973  0  0.985106  0
H  H3  1  0.33335653  0.56667518  0.27897609  1  0  0.08867  0  0.989431  0  0  0.094142  0  1.060595  0  0  0.097101  0  1.059487  0  0  0.098879  0.091913  0  1.061771  0
H  H4  1  0.66663190  0.43333727  0.72100644  1  0  0.088571  0  0.989647  0  0  0.094076  0  1.060784  0  0  0.097038  0  1.059669  0  0  0.098885  0.091846  0  1.061954  0
H  H5  1  0.93304876  0.34190598  0.54766115  1  0  0.093199  0  0.979571  0  0  0.099764  0  1.049006  0  0  0.103046  0  1.047409  0  0  0.100828  0.097447  0  1.050129  0
H  H6  1  0.06693974  0.65809922  0.45232406  1  0  0.093179  0  0.979496  0  0  0.099621  0  1.049083  0  0  0.102902  0  1.047486  0  0  0.10073  0.097324  0  1.050157  0
H  H7  1  0.77661677  0.00748547  0.50957210  1  0  0.060685  0  0.956492  0  0  0.079775  0  1.018013  0  0  0.080648  0  1.018165  0  0  0.087001  0.079058  0  1.018174  0
H  H8  1  0.22339209  0.99249248  0.49044468  1  0  0.060658  0  0.956396  0  0  0.079756  0  1.017977  0  0  0.080631  0  1.01813  0  0  0.086956  0.079039  0  1.018139  0
H  H9  1  0.55701163  0.15693451  0.40398471  1  0  0.064455  0  0.953556  0  0  0.0852  0  1.010911  0  0  0.085047  0  1.012824  0  0  0.087772  0.085088  0  1.009338  0
H  H10  1  0.44300247  0.84305885  0.59603732  1  0  0.064383  0  0.953519  0  0  0.085143  0  1.010897  0  0  0.084982  0  1.012833  0  0  0.087752  0.085031  0  1.009325  0
H  H11  1  0.70584575  0.80342925  0.40403618  1  0  0.069604  0  0.950492  0  0  0.086684  0  1.015899  0  0  0.086864  0  1.017576  0  0  0.090622  0.087398  0  1.012634  0
H  H12  1  0.29415700  0.19656456  0.59597055  1  0  0.069618  0  0.950393  0  0  0.086652  0  1.015861  0  0  0.086831  0  1.017538  0  0  0.090626  0.08737  0  1.012593  0
H  H13  1  0.51183772  0.96053901  0.28858713  1  0  0.074457  0  0.950264  0  0  0.088291  0  1.019275  0  0  0.089809  0  1.018596  0  0  0.090164  0.086933  0  1.020319  0
H  H14  1  0.48815886  0.03946439  0.71142493  1  0  0.074496  0  0.950191  0  0  0.088368  0  1.019137  0  0  0.089885  0  1.018455  0  0  0.090226  0.087012  0  1.020178  0
H  H15  1  0.71595478  0.74564248  0.19000413  1  0  0.107069  0  0.953212  0  0  0.112891  0  1.024577  0  0  0.115011  0  1.022498  0  0  0.141293  0.111646  0  1.025284  0
H  H16  1  0.28404852  0.25435618  0.80999863  1  0  0.107014  0  0.95323  0  0  0.112863  0  1.02457  0  0  0.114984  0  1.022488  0  0  0.141262  0.111619  0  1.025278  0
H  H17  1  0.86772044  0.10920234  0.21663349  1  0  0.086938  0  0.927765  0  0  0.101263  0  0.993841  0  0  0.101702  0  0.993904  0  0  0.113671  0.10063  0  0.994064  0
H  H18  1  0.13227085  0.89079286  0.78337249  1  0  0.086837  0  0.927819  0  0  0.101155  0  0.993889  0  0  0.101597  0  0.993946  0  0  0.113656  0.100523  0  0.994111  0
H  H19  1  0.06054269  0.96411815  0.33821935  1  0  0.080302  0  0.935721  0  0  0.096498  0  0.999976  0  0  0.097244  0  0.999578  0  0  0.114499  0.095794  0  1.000551  0
H  H20  1  0.93945999  0.03588292  0.66178378  1  0  0.080298  0  0.935701  0  0  0.096467  0  0.999956  0  0  0.097214  0  0.999554  0  0  0.114487  0.09576  0  1.000533  0
H  H21  1  0.40971278  0.78029117  0.98840762  1  0  0.109293  0  0.956055  0  0  0.119464  0  1.015762  0  0  0.122042  0  1.012833  0  0  0.133167  0.117473  0  1.018016  0
H  H22  1  0.59029528  0.21970369  0.01160232  1  0  0.109376  0  0.955908  0  0  0.119544  0  1.015612  0  0  0.122124  0  1.012679  0  0  0.133172  0.117544  0  1.017868  0
H  H23  1  0.53328427  0.61595157  0.84935313  1  0  0.419149  0  0.886049  0  0  0.388468  0  0.950153  0  0  0.399046  0  0.934957  0  0  0.28479  0.381026  0  0.960795  0
H  H24  1  0.46672075  0.38404726  0.15063844  1  0  0.41913  0  0.886078  0  0  0.388476  0  0.950147  0  0  0.399043  0  0.934958  0  0  0.28477  0.381034  0  0.960788  0
C  C25  1  0.40571999  0.53819230  0.37577525  1  0  -0.071091  0  3.734463  0  0  -0.096463  0  3.989423  0  0  -0.096749  0  4.00905  0  0  -0.088898  -0.096029  0  3.974901  0
C  C26  1  0.59427525  0.46182241  0.62420921  1  0  -0.070852  0  3.734595  0  0  -0.09625  0  3.989623  0  0  -0.096533  0  4.009243  0  0  -0.088791  -0.095809  0  3.975092  0
C  C27  1  0.74225368  0.41032429  0.52847672  1  0  -0.06575  0  3.727156  0  0  -0.090152  0  3.979963  0  0  -0.090958  0  4.000005  0  0  -0.08354  -0.089736  0  3.965486  0
C  C28  1  0.25773081  0.58968214  0.47151022  1  0  -0.065639  0  3.72667  0  0  -0.08992  0  3.979489  0  0  -0.090723  0  3.999527  0  0  -0.083404  -0.089501  0  3.965021  0
C  C29  1  0.81654574  0.39403197  0.30113064  1  0  0.638999  0  3.91638  0  0  0.581748  0  4.218602  0  0  0.615772  0  4.210896  0  0  0.207284  0.558478  0  4.223287  0
C  C30  1  0.18344989  0.60597430  0.69885584  1  0  0.638909  0  3.916551  0  0  0.581755  0  4.21871  0  0  0.615778  0  4.210996  0  0  0.207271  0.558483  0  4.223397  0
C  C31  1  0.64983448  0.44792477  0.40345608  1  0  -0.07351  0  3.76351  0  0  -0.049509  0  3.997324  0  0  -0.056088  0  4.018896  0  0  -0.018736  -0.043967  0  3.979959  0
C  C32  1  0.35015033  0.55208047  0.59653020  1  0  -0.073531  0  3.76332  0  0  -0.049653  0  3.997267  0  0  -0.056227  0  4.018824  0  0  -0.018779  -0.044114  0  3.979905  0
C  C33  1  0.60697605  0.02641019  0.45359348  1  0  -0.093006  0  3.667031  0  0  -0.129322  0  3.9177  0  0  -0.130012  0  3.932062  0  0  -0.16467  -0.128926  0  3.908051  0
C  C34  1  0.39303581  0.97357735  0.54642084  1  0  -0.092706  0  3.666645  0  0  -0.129236  0  3.917553  0  0  -0.129931  0  3.931911  0  0  -0.164607  -0.12884  0  3.907907  0
C  C35  1  0.67149865  0.93428336  0.35317574  1  0  -0.132746  0  3.685666  0  0  -0.174946  0  3.948606  0  0  -0.176476  0  3.962345  0  0  -0.164753  -0.17388  0  3.938425  0
C  C36  1  0.32851156  0.06571029  0.64683348  1  0  -0.132916  0  3.685319  0  0  -0.17504  0  3.94821  0  0  -0.176566  0  3.961943  0  0  -0.164851  -0.173975  0  3.93803  0
C  C37  1  0.89570819  0.77772545  0.15338119  1  0  0.176818  0  3.635001  0  0  0.101434  0  3.898429  0  0  0.115507  0  3.911431  0  0  0.161927  0.092478  0  3.888868  0
C  C38  1  0.10429579  0.22227073  0.84662584  1  0  0.176816  0  3.634799  0  0  0.101415  0  3.898244  0  0  0.115494  0  3.91124  0  0  0.161917  0.092458  0  3.888682  0
C  C39  1  0.90397411  0.98110052  0.27425931  1  0  -0.011226  0  3.624547  0  0  -0.087155  0  3.885227  0  0  -0.083103  0  3.895971  0  0  -0.048571  -0.08979  0  3.878361  0
C  C40  1  0.09602802  0.01889569  0.72574779  1  0  -0.011095  0  3.624573  0  0  -0.08692  0  3.885127  0  0  -0.082861  0  3.895861  0  0  -0.048534  -0.089555  0  3.878268  0
C  C41  1  0.24737279  0.79876619  0.05191933  1  0  0.184223  0  3.709819  0  0  0.130625  0  4.00715  0  0  0.142255  0  4.018966  0  0  0.136425  0.123148  0  3.998741  0
C  C42  1  0.75263493  0.20122990  0.94808940  1  0  0.184355  0  3.709819  0  0  0.130774  0  4.007068  0  0  0.142404  0  4.018886  0  0  0.136557  0.123306  0  3.99865  0
N  N43  1  0.99703771  0.88608558  0.18534707  1  0  0.039906  0  3.560913  0  0  0.162655  0  3.744781  0  0  0.152058  0  3.769518  0  0  -0.132983  0.168305  0  3.730468  0
N  N44  1  0.00296472  0.11390945  0.81465846  1  0  0.039858  0  3.560704  0  0  0.162513  0  3.744616  0  0  0.151895  0  3.769387  0  0  -0.133042  0.168162  0  3.730303  0
N  N45  1  0.05076099  0.71895614  0.06909862  1  0  -0.430766  0  3.177503  0  0  -0.360305  0  3.47303  0  0  -0.38298  0  3.486449  0  0  -0.350579  -0.344499  0  3.463279  0
N  N46  1  0.94924454  0.28104121  0.93090898  1  0  -0.430734  0  3.177448  0  0  -0.360279  0  3.472987  0  0  -0.382954  0  3.486405  0  0  -0.350548  -0.344469  0  3.463226  0
N  N47  1  0.22181123  0.90155524  0.12123963  1  0  -0.274546  0  2.842555  0  0  -0.275714  0  3.114868  0  0  -0.283785  0  3.128445  0  0  -0.224988  -0.269946  0  3.10625  0
N  N48  1  0.77819463  0.09844088  0.87876918  1  0  -0.274704  0  2.84274  0  0  -0.275864  0  3.115087  0  0  -0.28393  0  3.128663  0  0  -0.225072  -0.270098  0  3.106471  0
O  O49  1  0.73037695  0.44215183  0.18466952  1  0  -0.697202  0  2.044352  0  0  -0.620108  0  2.295961  0  0  -0.648538  0  2.283  0  0  -0.338225  -0.600493  0  2.304491  0
O  O50  1  0.26961647  0.55786286  0.81531779  1  0  -0.697236  0  2.044468  0  0  -0.62012  0  2.295968  0  0  -0.648577  0  2.283079  0  0  -0.338272  -0.6005  0  2.304492  0
O  O51  1  0.03071759  0.30820450  0.33380734  1  0  -0.598447  0  1.975846  0  0  -0.539847  0  2.200077  0  0  -0.564333  0  2.193106  0  0  -0.304217  -0.523299  0  2.204692  0
O  O52  1  0.96928113  0.69180410  0.66618029  1  0  -0.598396  0  1.975793  0  0  -0.539831  0  2.199977  0  0  -0.564313  0  2.193006  0  0  -0.304172  -0.523286  0  2.204591  0
O  O53  1  0.66636257  0.66778894  0.86784152  1  0  -0.839577  0  1.858543  0  0  -0.775407  0  2.050173  0  0  -0.79897  0  2.016663  0  0  -0.591707  -0.758591  0  2.073703  0
O  O54  1  0.33363341  0.33221607  0.13214802  1  0  -0.83954  0  1.85858  0  0  -0.775385  0  2.050192  0  0  -0.798936  0  2.016701  0  0  -0.591619  -0.758566  0  2.073716  0
