# generated using pymatgen
data_CdH2C4(S3N2)2
_symmetry_space_group_name_H-M   'P 1'
_cell_length_a   8.00492096
_cell_length_b   10.72621230
_cell_length_c   13.20315826
_cell_angle_alpha   89.99935969
_cell_angle_beta   89.99957732
_cell_angle_gamma   90.00048351
_symmetry_Int_Tables_number   1
_chemical_formula_structural   CdH2C4(S3N2)2
_chemical_formula_sum   'Cd4 H8 C16 S24 N16'
_cell_volume   1133.65593314
_cell_formula_units_Z   4
loop_
 _symmetry_equiv_pos_site_id
 _symmetry_equiv_pos_as_xyz
  1  'x, y, z'
loop_
 _atom_site_type_symbol
 _atom_site_label
 _atom_site_symmetry_multiplicity
 _atom_site_fract_x
 _atom_site_fract_y
 _atom_site_fract_z
 _atom_site_occupancy
 _atom_site_hle17_bader_spin_density
 _atom_site_hle17_ddec_charge
 _atom_site_hle17_ddec_spin_density
 _atom_site_hle17_ddec_sum_bond_order
 _atom_site_hle17_magmom
 _atom_site_hse06_10hf_bader_spin_density
 _atom_site_hse06_10hf_ddec_charge
 _atom_site_hse06_10hf_ddec_spin_density
 _atom_site_hse06_10hf_ddec_sum_bond_order
 _atom_site_hse06_10hf_magmom
 _atom_site_hse06_bader_spin_density
 _atom_site_hse06_ddec_charge
 _atom_site_hse06_ddec_spin_density
 _atom_site_hse06_ddec_sum_bond_order
 _atom_site_hse06_magmom
 _atom_site_pbe_bader_spin_density
 _atom_site_pbe_cm5_charge
 _atom_site_pbe_ddec_charge
 _atom_site_pbe_ddec_spin_density
 _atom_site_pbe_ddec_sum_bond_order
 _atom_site_pbe_magmom
Cd  Cd0  1  0.75001717  0.64343840  0.49999915  1  0  0.722848  0  2.078851  0  0  0.581258  0  2.559486  0  0  0.62035  0  2.529007  0  0  0.493873  0.55395  0  2.580592  0
Cd  Cd1  1  0.25001030  0.85656123  0.00000529  1  0  0.72283  0  2.079065  0  0  0.58124  0  2.559747  0  0  0.620329  0  2.529262  0  0  0.493857  0.55393  0  2.580855  0
Cd  Cd2  1  0.24998046  0.35655845  0.49999178  1  0  0.722763  0  2.079048  0  0  0.581172  0  2.55972  0  0  0.620264  0  2.529242  0  0  0.493791  0.553864  0  2.580821  0
Cd  Cd3  1  0.74999955  0.14342460  0.00000369  1  0  0.722759  0  2.079098  0  0  0.581184  0  2.559756  0  0  0.620272  0  2.529279  0  0  0.493847  0.55388  0  2.580859  0
H  H4  1  0.52665773  0.84309194  0.17882936  1  0  0.268165  0  0.938029  0  0  0.244827  0  1.014715  0  0  0.252488  0  1.009569  0  0  0.293968  0.239519  0  1.018245  0
H  H5  1  0.02666327  0.65691575  0.32117836  1  0  0.268341  0  0.937895  0  0  0.244976  0  1.014651  0  0  0.252623  0  1.009514  0  0  0.294012  0.239674  0  1.018178  0
H  H6  1  0.97337035  0.84310568  0.82117920  1  0  0.268099  0  0.937682  0  0  0.244804  0  1.014388  0  0  0.252433  0  1.009265  0  0  0.293943  0.239503  0  1.017911  0
H  H7  1  0.47336511  0.65689131  0.67882208  1  0  0.268158  0  0.937649  0  0  0.244832  0  1.014419  0  0  0.25247  0  1.009295  0  0  0.293904  0.23953  0  1.017944  0
H  H8  1  0.47333865  0.15689466  0.82117141  1  0  0.268196  0  0.937914  0  0  0.244821  0  1.014699  0  0  0.252486  0  1.009553  0  0  0.293879  0.239514  0  1.018228  0
H  H9  1  0.97334060  0.34309136  0.67883225  1  0  0.268194  0  0.937952  0  0  0.244863  0  1.014609  0  0  0.252527  0  1.009457  0  0  0.293983  0.239552  0  1.018141  0
H  H10  1  0.02664227  0.15690515  0.17883066  1  0  0.26809  0  0.93787  0  0  0.244795  0  1.014545  0  0  0.252432  0  1.00942  0  0  0.293915  0.239493  0  1.01807  0
H  H11  1  0.52665751  0.34309809  0.32115976  1  0  0.268147  0  0.938067  0  0  0.244814  0  1.014724  0  0  0.252481  0  1.009575  0  0  0.293917  0.239503  0  1.018256  0
C  C12  1  0.70855637  0.60088529  0.25557989  1  0  0.143253  0  3.840753  0  0  0.132017  0  4.154509  0  0  0.146322  0  4.167174  0  0  0.10456  0.122363  0  4.145781  0
C  C13  1  0.20857709  0.89914580  0.24443685  1  0  0.143367  0  3.839894  0  0  0.132315  0  4.153375  0  0  0.146625  0  4.166035  0  0  0.104643  0.122658  0  4.14465  0
C  C14  1  0.79146494  0.60089064  0.74442713  1  0  0.143169  0  3.841421  0  0  0.131876  0  4.155224  0  0  0.146195  0  4.167884  0  0  0.104491  0.122222  0  4.146488  0
C  C15  1  0.29146055  0.89912583  0.75556361  1  0  0.142851  0  3.840842  0  0  0.131661  0  4.154536  0  0  0.145972  0  4.167202  0  0  0.104397  0.122006  0  4.145805  0
C  C16  1  0.29145125  0.39913114  0.74442845  1  0  0.142612  0  3.840572  0  0  0.131446  0  4.154262  0  0  0.145747  0  4.166932  0  0  0.104349  0.121795  0  4.145529  0
C  C17  1  0.79143178  0.10086317  0.75557453  1  0  0.143099  0  3.840362  0  0  0.131964  0  4.153967  0  0  0.146272  0  4.166623  0  0  0.104543  0.12231  0  4.145243  0
C  C18  1  0.20854643  0.39912393  0.25555319  1  0  0.142984  0  3.840297  0  0  0.131789  0  4.154005  0  0  0.1461  0  4.166678  0  0  0.104498  0.122136  0  4.145272  0
C  C19  1  0.70854458  0.10087848  0.24441974  1  0  0.143334  0  3.840457  0  0  0.132062  0  4.154278  0  0  0.14637  0  4.166939  0  0  0.104598  0.122408  0  4.145549  0
C  C20  1  0.57487002  0.67927056  0.09963760  1  0  0.17978  0  3.783241  0  0  0.157564  0  4.087068  0  0  0.17725  0  4.098082  0  0  0.118079  0.144486  0  4.079203  0
C  C21  1  0.07488291  0.82073646  0.40037142  1  0  0.179845  0  3.783408  0  0  0.15756  0  4.087356  0  0  0.177229  0  4.098375  0  0  0.118097  0.144493  0  4.079476  0
C  C22  1  0.92514477  0.67928764  0.90038082  1  0  0.180047  0  3.783048  0  0  0.157812  0  4.086942  0  0  0.177459  0  4.097989  0  0  0.11826  0.144742  0  4.079067  0
C  C23  1  0.42513502  0.82070815  0.59961841  1  0  0.180115  0  3.783488  0  0  0.157931  0  4.087266  0  0  0.177578  0  4.09833  0  0  0.118287  0.144862  0  4.079393  0
C  C24  1  0.42512136  0.32070764  0.90037757  1  0  0.179878  0  3.783259  0  0  0.157648  0  4.087089  0  0  0.177334  0  4.098111  0  0  0.118137  0.144577  0  4.079211  0
C  C25  1  0.92509598  0.17927997  0.59963541  1  0  0.180058  0  3.783433  0  0  0.157696  0  4.087452  0  0  0.177382  0  4.09846  0  0  0.118148  0.144617  0  4.079588  0
C  C26  1  0.07486035  0.32072413  0.09961541  1  0  0.179947  0  3.783001  0  0  0.157719  0  4.086906  0  0  0.177365  0  4.097966  0  0  0.118189  0.144649  0  4.079033  0
C  C27  1  0.57485512  0.17927658  0.40036116  1  0  0.179871  0  3.783261  0  0  0.157649  0  4.087092  0  0  0.177329  0  4.09814  0  0  0.118187  0.144564  0  4.079231  0
S  S28  1  0.81236268  0.51174169  0.34378624  1  0  -0.363139  0  2.161059  0  0  -0.333665  0  2.523189  0  0  -0.352659  0  2.518434  0  0  -0.189042  -0.320374  0  2.526399  0
S  S29  1  0.31236433  0.98826668  0.15620958  1  0  -0.363129  0  2.161183  0  0  -0.333741  0  2.523259  0  0  -0.352733  0  2.518512  0  0  -0.189056  -0.320449  0  2.526467  0
S  S30  1  0.68768001  0.51174483  0.65621707  1  0  -0.363053  0  2.161142  0  0  -0.333572  0  2.523302  0  0  -0.352565  0  2.518552  0  0  -0.189005  -0.320283  0  2.526512  0
S  S31  1  0.18768191  0.98825613  0.84379081  1  0  -0.362865  0  2.161055  0  0  -0.333406  0  2.523139  0  0  -0.352392  0  2.518381  0  0  -0.188936  -0.320118  0  2.52635  0
S  S32  1  0.18766493  0.48826729  0.65620166  1  0  -0.362832  0  2.160839  0  0  -0.333395  0  2.522935  0  0  -0.352391  0  2.518185  0  0  -0.188993  -0.320107  0  2.526144  0
S  S33  1  0.68765328  0.01172924  0.84379952  1  0  -0.363047  0  2.161092  0  0  -0.333622  0  2.523221  0  0  -0.352617  0  2.518478  0  0  -0.189038  -0.320331  0  2.526431  0
S  S34  1  0.31233886  0.48826320  0.34378067  1  0  -0.363012  0  2.160869  0  0  -0.333569  0  2.522955  0  0  -0.352565  0  2.518208  0  0  -0.189046  -0.32028  0  2.526164  0
S  S35  1  0.81233321  0.01172580  0.15621981  1  0  -0.363029  0  2.161058  0  0  -0.33355  0  2.523195  0  0  -0.352542  0  2.518442  0  0  -0.188968  -0.32026  0  2.526405  0
S  S36  1  0.66972560  0.54031941  0.13449863  1  0  0.133739  0  2.526671  0  0  0.134434  0  2.878029  0  0  0.133762  0  2.877676  0  0  0.113532  0.134311  0  2.87875  0
S  S37  1  0.16974063  0.95969189  0.36552284  1  0  0.133677  0  2.526741  0  0  0.134347  0  2.878082  0  0  0.133679  0  2.877734  0  0  0.11352  0.134221  0  2.8788  0
S  S38  1  0.83026747  0.54033082  0.86552184  1  0  0.133538  0  2.526152  0  0  0.134296  0  2.877481  0  0  0.133631  0  2.877133  0  0  0.113415  0.134176  0  2.8782  0
S  S39  1  0.33028402  0.95965884  0.63448539  1  0  0.133722  0  2.526892  0  0  0.134389  0  2.878276  0  0  0.133725  0  2.877927  0  0  0.11344  0.134267  0  2.878995  0
S  S40  1  0.33028702  0.45966905  0.86550366  1  0  0.133797  0  2.526742  0  0  0.134462  0  2.878097  0  0  0.133796  0  2.877739  0  0  0.113446  0.134338  0  2.878816  0
S  S41  1  0.83023576  0.04032548  0.63448096  1  0  0.133651  0  2.526833  0  0  0.134379  0  2.878168  0  0  0.133708  0  2.877813  0  0  0.113531  0.134257  0  2.878891  0
S  S42  1  0.16972391  0.45967909  0.13447666  1  0  0.133698  0  2.526679  0  0  0.134405  0  2.878046  0  0  0.133745  0  2.8777  0  0  0.113446  0.134278  0  2.878764  0
S  S43  1  0.66970861  0.04031657  0.36551614  1  0  0.133658  0  2.526205  0  0  0.134379  0  2.877564  0  0  0.133707  0  2.877206  0  0  0.113429  0.134257  0  2.87829  0
S  S44  1  0.50371371  0.71060917  0.98171141  1  0  -0.352471  0  2.243185  0  0  -0.335249  0  2.623457  0  0  -0.354631  0  2.620058  0  0  -0.18783  -0.321707  0  2.625801  0
S  S45  1  0.00371703  0.78940754  0.51829655  1  0  -0.352494  0  2.243211  0  0  -0.335227  0  2.623494  0  0  -0.354605  0  2.620103  0  0  -0.187837  -0.321687  0  2.625833  0
S  S46  1  0.99627649  0.71062913  0.01830216  1  0  -0.352449  0  2.243244  0  0  -0.335197  0  2.623521  0  0  -0.354568  0  2.620135  0  0  -0.187817  -0.321656  0  2.62586  0
S  S47  1  0.49626802  0.78937469  0.48170418  1  0  -0.352554  0  2.243573  0  0  -0.33535  0  2.623871  0  0  -0.35473  0  2.620493  0  0  -0.187863  -0.321809  0  2.626208  0
S  S48  1  0.49626268  0.28937277  0.01828860  1  0  -0.352289  0  2.243358  0  0  -0.335133  0  2.623765  0  0  -0.354518  0  2.62038  0  0  -0.187785  -0.321591  0  2.626102  0
S  S49  1  0.99622938  0.21061821  0.48170195  1  0  -0.352604  0  2.243098  0  0  -0.335361  0  2.62348  0  0  -0.354746  0  2.620088  0  0  -0.187862  -0.321815  0  2.62582  0
S  S50  1  0.00369490  0.28937425  0.98170467  1  0  -0.3524  0  2.243642  0  0  -0.335158  0  2.623955  0  0  -0.354534  0  2.620573  0  0  -0.187785  -0.321621  0  2.626296  0
S  S51  1  0.50369463  0.21061844  0.51828750  1  0  -0.352496  0  2.243227  0  0  -0.335297  0  2.623558  0  0  -0.354684  0  2.620167  0  0  -0.187859  -0.321753  0  2.625903  0
N  N52  1  0.57734474  0.75452493  0.18076556  1  0  -0.167479  0  3.534345  0  0  -0.103977  0  3.768347  0  0  -0.117829  0  3.784874  0  0  -0.27083  -0.094872  0  3.757045  0
N  N53  1  0.07735515  0.74548305  0.31924269  1  0  -0.167644  0  3.534327  0  0  -0.104142  0  3.768372  0  0  -0.117971  0  3.784921  0  0  -0.27089  -0.095052  0  3.757071  0
N  N54  1  0.92266850  0.75452256  0.81924685  1  0  -0.167532  0  3.533756  0  0  -0.104159  0  3.767901  0  0  -0.117979  0  3.78451  0  0  -0.271036  -0.095069  0  3.756598  0
N  N55  1  0.42266183  0.74547601  0.68075617  1  0  -0.167747  0  3.534079  0  0  -0.104377  0  3.768204  0  0  -0.118174  0  3.78472  0  0  -0.271066  -0.095286  0  3.756898  0
N  N56  1  0.42265165  0.24547379  0.81923294  1  0  -0.16778  0  3.534703  0  0  -0.104258  0  3.768678  0  0  -0.118099  0  3.785164  0  0  -0.270822  -0.095156  0  3.757371  0
N  N57  1  0.92264622  0.25452220  0.68076565  1  0  -0.167511  0  3.53432  0  0  -0.103955  0  3.768357  0  0  -0.117814  0  3.784903  0  0  -0.27079  -0.094849  0  3.757056  0
N  N58  1  0.07733913  0.24548268  0.18076073  1  0  -0.167552  0  3.53414  0  0  -0.104182  0  3.768307  0  0  -0.117992  0  3.784864  0  0  -0.271017  -0.09509  0  3.756997  0
N  N59  1  0.57734329  0.25452644  0.31923097  1  0  -0.167414  0  3.53449  0  0  -0.103883  0  3.768481  0  0  -0.117726  0  3.784963  0  0  -0.2707  -0.094772  0  3.757175  0
N  N60  1  0.65007798  0.71469688  0.26796517  1  0  -0.203286  0  2.958428  0  0  -0.186578  0  3.237805  0  0  -0.194865  0  3.251741  0  0  -0.229356  -0.180701  0  3.228268  0
N  N61  1  0.15008619  0.78531523  0.23203821  1  0  -0.203454  0  2.957691  0  0  -0.186796  0  3.237031  0  0  -0.195102  0  3.250973  0  0  -0.229441  -0.180912  0  3.227493  0
N  N62  1  0.84993226  0.71469900  0.73204383  1  0  -0.203184  0  2.958824  0  0  -0.186403  0  3.238176  0  0  -0.194721  0  3.252125  0  0  -0.229167  -0.18052  0  3.228638  0
N  N63  1  0.34995379  0.78529636  0.76796407  1  0  -0.20307  0  2.957913  0  0  -0.186294  0  3.237197  0  0  -0.194609  0  3.251146  0  0  -0.229095  -0.180409  0  3.227656  0
N  N64  1  0.34994589  0.28529624  0.73202727  1  0  -0.202878  0  2.957851  0  0  -0.186161  0  3.237105  0  0  -0.19445  0  3.251051  0  0  -0.229141  -0.180284  0  3.227563  0
N  N65  1  0.84992269  0.21468255  0.76797014  1  0  -0.203302  0  2.958062  0  0  -0.18664  0  3.237418  0  0  -0.194932  0  3.251359  0  0  -0.229438  -0.180764  0  3.22788  0
N  N66  1  0.15004788  0.28529319  0.26795997  1  0  -0.203135  0  2.957876  0  0  -0.186349  0  3.23717  0  0  -0.194666  0  3.251127  0  0  -0.229098  -0.180466  0  3.227626  0
N  N67  1  0.65008257  0.21469583  0.23202988  1  0  -0.203448  0  2.958487  0  0  -0.186738  0  3.23789  0  0  -0.19503  0  3.251829  0  0  -0.229507  -0.180863  0  3.228352  0
