# generated using pymatgen
data_AgH8C15SN2O4F3
_symmetry_space_group_name_H-M   'P 1'
_cell_length_a   11.02806372
_cell_length_b   12.33014745
_cell_length_c   12.34426633
_cell_angle_alpha   89.99991457
_cell_angle_beta   89.99972086
_cell_angle_gamma   93.42783948
_symmetry_Int_Tables_number   1
_chemical_formula_structural   AgH8C15SN2O4F3
_chemical_formula_sum   'Ag4 H32 C60 S4 N8 O16 F12'
_cell_volume   1675.54125394
_cell_formula_units_Z   4
loop_
 _symmetry_equiv_pos_site_id
 _symmetry_equiv_pos_as_xyz
  1  'x, y, z'
loop_
 _atom_site_type_symbol
 _atom_site_label
 _atom_site_symmetry_multiplicity
 _atom_site_fract_x
 _atom_site_fract_y
 _atom_site_fract_z
 _atom_site_occupancy
 _atom_site_hle17_bader_spin_density
 _atom_site_hle17_ddec_charge
 _atom_site_hle17_ddec_spin_density
 _atom_site_hle17_ddec_sum_bond_order
 _atom_site_hle17_magmom
 _atom_site_hse06_10hf_bader_spin_density
 _atom_site_hse06_10hf_ddec_charge
 _atom_site_hse06_10hf_ddec_spin_density
 _atom_site_hse06_10hf_ddec_sum_bond_order
 _atom_site_hse06_10hf_magmom
 _atom_site_hse06_bader_spin_density
 _atom_site_hse06_ddec_charge
 _atom_site_hse06_ddec_spin_density
 _atom_site_hse06_ddec_sum_bond_order
 _atom_site_hse06_magmom
 _atom_site_pbe_bader_spin_density
 _atom_site_pbe_cm5_charge
 _atom_site_pbe_ddec_charge
 _atom_site_pbe_ddec_spin_density
 _atom_site_pbe_ddec_sum_bond_order
 _atom_site_pbe_magmom
Ag  Ag0  1  0.87623440  0.87129805  0.13966634  1  0  0.70525  0  1.488876  0  0  0.59648  0  1.953585  0  0  0.614394  0  1.905883  0  0  0.559786  0.584919  0  1.986161  0
Ag  Ag1  1  0.62376183  0.62870143  0.63966762  1  0  0.70538  0  1.488531  0  0  0.596505  0  1.953577  0  0  0.614418  0  1.905879  0  0  0.559788  0.584938  0  1.986158  0
Ag  Ag2  1  0.12376222  0.12869928  0.86033590  1  0  0.705379  0  1.488512  0  0  0.596507  0  1.953578  0  0  0.614419  0  1.905879  0  0  0.559772  0.584947  0  1.986145  0
Ag  Ag3  1  0.37623683  0.37129914  0.36033219  1  0  0.705244  0  1.488894  0  0  0.596476  0  1.953599  0  0  0.61439  0  1.9059  0  0  0.559782  0.584911  0  1.986181  0
H  H4  1  0.09282755  0.52612308  0.21083332  1  0  0.108448  0  0.928101  0  0  0.120635  0  0.982405  0  0  0.123431  0  0.980752  0  0  0.109902  0.118638  0  0.983583  0
H  H5  1  0.40716496  0.97387833  0.71082881  1  0  0.108474  0  0.92795  0  0  0.120627  0  0.982379  0  0  0.123421  0  0.980731  0  0  0.109909  0.118637  0  0.983559  0
H  H6  1  0.90717196  0.47387668  0.78916649  1  0  0.108506  0  0.927918  0  0  0.120652  0  0.982359  0  0  0.123449  0  0.980705  0  0  0.109912  0.118661  0  0.98354  0
H  H7  1  0.59283210  0.02612549  0.28916776  1  0  0.108446  0  0.928174  0  0  0.120632  0  0.982489  0  0  0.12343  0  0.980835  0  0  0.10993  0.118644  0  0.983665  0
H  H8  1  0.14489805  0.33270007  0.20297707  1  0  0.09411  0  0.950303  0  0  0.102458  0  1.017935  0  0  0.106022  0  1.015659  0  0  0.102276  0.099723  0  1.02012  0
H  H9  1  0.35509761  0.16730270  0.70297405  1  0  0.094139  0  0.95026  0  0  0.102454  0  1.01793  0  0  0.106017  0  1.015656  0  0  0.102275  0.099721  0  1.020111  0
H  H10  1  0.85510054  0.66729969  0.79702598  1  0  0.094063  0  0.950259  0  0  0.102394  0  1.01792  0  0  0.105955  0  1.015646  0  0  0.102249  0.09966  0  1.020102  0
H  H11  1  0.64490398  0.83270112  0.29702414  1  0  0.094091  0  0.950276  0  0  0.102429  0  1.017915  0  0  0.105991  0  1.015642  0  0  0.10228  0.099696  0  1.020094  0
H  H12  1  0.00525040  0.19643424  0.10913148  1  0  0.106993  0  0.949489  0  0  0.117694  0  1.007274  0  0  0.12036  0  1.005565  0  0  0.106404  0.115684  0  1.008593  0
H  H13  1  0.49475033  0.30356870  0.60913170  1  0  0.106951  0  0.949551  0  0  0.117648  0  1.007349  0  0  0.120317  0  1.005636  0  0  0.106386  0.115639  0  1.008665  0
H  H14  1  0.99474911  0.80356552  0.89087076  1  0  0.107014  0  0.949467  0  0  0.117724  0  1.007246  0  0  0.120386  0  1.005549  0  0  0.106416  0.115716  0  1.008564  0
H  H15  1  0.50525324  0.69643756  0.39086811  1  0  0.106983  0  0.949517  0  0  0.117694  0  1.007295  0  0  0.120365  0  1.005573  0  0  0.106416  0.115685  0  1.008613  0
H  H16  1  0.81637650  0.25172236  0.02397273  1  0  0.122753  0  0.962064  0  0  0.129576  0  1.026835  0  0  0.133081  0  1.025243  0  0  0.103865  0.127077  0  1.028074  0
H  H17  1  0.68362530  0.24827866  0.52397601  1  0  0.123156  0  0.96169  0  0  0.129654  0  1.026909  0  0  0.133158  0  1.025318  0  0  0.103908  0.127151  0  1.028155  0
H  H18  1  0.18362374  0.74827496  0.97602708  1  0  0.123046  0  0.961608  0  0  0.12958  0  1.026813  0  0  0.133085  0  1.02522  0  0  0.103889  0.127083  0  1.028049  0
H  H19  1  0.31637715  0.75172434  0.47602299  1  0  0.122784  0  0.962077  0  0  0.129585  0  1.026854  0  0  0.133089  0  1.025266  0  0  0.103894  0.12709  0  1.028094  0
H  H20  1  0.39912582  0.35035022  0.84224334  1  0  0.115912  0  0.951054  0  0  0.125833  0  1.01154  0  0  0.128746  0  1.00978  0  0  0.109712  0.123773  0  1.012666  0
H  H21  1  0.10087616  0.14964986  0.34224277  1  0  0.115898  0  0.95106  0  0  0.125822  0  1.011549  0  0  0.128733  0  1.009791  0  0  0.10969  0.123763  0  1.012675  0
H  H22  1  0.60087465  0.64965035  0.15775485  1  0  0.115915  0  0.951059  0  0  0.125839  0  1.011538  0  0  0.128751  0  1.00978  0  0  0.109704  0.123777  0  1.012665  0
H  H23  1  0.89912532  0.85035234  0.65775704  1  0  0.115888  0  0.951055  0  0  0.125812  0  1.011543  0  0  0.128724  0  1.009784  0  0  0.10969  0.123752  0  1.012669  0
H  H24  1  0.32098494  0.24170164  0.00247072  1  0  0.105719  0  0.978263  0  0  0.113115  0  1.04558  0  0  0.116559  0  1.043666  0  0  0.099085  0.110369  0  1.047669  0
H  H25  1  0.17901690  0.25829580  0.50247238  1  0  0.105736  0  0.978275  0  0  0.11314  0  1.045566  0  0  0.116582  0  1.043657  0  0  0.099112  0.110393  0  1.047655  0
H  H26  1  0.67901456  0.75829812  0.99752748  1  0  0.105694  0  0.978156  0  0  0.11308  0  1.045471  0  0  0.116526  0  1.043545  0  0  0.099079  0.11033  0  1.047561  0
H  H27  1  0.82098448  0.74170477  0.49752825  1  0  0.105741  0  0.978252  0  0  0.113125  0  1.04557  0  0  0.11657  0  1.043648  0  0  0.099108  0.110374  0  1.047662  0
H  H28  1  0.44684888  0.23378955  0.16760541  1  0  0.086369  0  0.964928  0  0  0.09499  0  1.029881  0  0  0.09782  0  1.027449  0  0  0.098997  0.092977  0  1.031566  0
H  H29  1  0.05315198  0.26620678  0.66760761  1  0  0.086434  0  0.964819  0  0  0.095041  0  1.029807  0  0  0.097871  0  1.027375  0  0  0.099024  0.093027  0  1.031492  0
H  H30  1  0.55315057  0.76620940  0.83239359  1  0  0.086426  0  0.964803  0  0  0.095016  0  1.029823  0  0  0.097846  0  1.02739  0  0  0.098998  0.092999  0  1.031512  0
H  H31  1  0.94684923  0.73379135  0.33239382  1  0  0.086379  0  0.964882  0  0  0.094999  0  1.029837  0  0  0.097828  0  1.027405  0  0  0.099006  0.092984  0  1.031525  0
H  H32  1  0.64837281  0.33587048  0.17867158  1  0  0.128086  0  0.944347  0  0  0.138529  0  1.000761  0  0  0.142167  0  0.998993  0  0  0.11108  0.135924  0  1.002145  0
H  H33  1  0.85162785  0.16412621  0.67867262  1  0  0.128159  0  0.94426  0  0  0.138549  0  1.000748  0  0  0.142187  0  0.99898  0  0  0.111082  0.135947  0  1.002136  0
H  H34  1  0.35162567  0.66412766  0.82132743  1  0  0.128111  0  0.944266  0  0  0.13854  0  1.000716  0  0  0.142179  0  0.998946  0  0  0.11107  0.135935  0  1.002103  0
H  H35  1  0.14837347  0.83587355  0.32132638  1  0  0.128118  0  0.944315  0  0  0.138521  0  1.000769  0  0  0.142159  0  0.998999  0  0  0.11107  0.135915  0  1.00216  0
C  C36  1  0.67437277  0.05611576  0.92293386  1  0  0.594158  0  3.679387  0  0  0.528616  0  4.041194  0  0  0.556882  0  4.013609  0  0  0.286376  0.508374  0  4.061094  0
C  C37  1  0.82562647  0.44387968  0.42293269  1  0  0.595269  0  3.677584  0  0  0.528549  0  4.041335  0  0  0.556796  0  4.013798  0  0  0.28637  0.508301  0  4.061244  0
C  C38  1  0.32562822  0.94387913  0.07706757  1  0  0.59529  0  3.677587  0  0  0.528556  0  4.041367  0  0  0.556799  0  4.013829  0  0  0.286376  0.508315  0  4.061267  0
C  C39  1  0.17437207  0.55611927  0.57706874  1  0  0.594174  0  3.679423  0  0  0.52859  0  4.041296  0  0  0.556823  0  4.013776  0  0  0.286391  0.508346  0  4.0612  0
C  C40  1  0.89478436  0.60751356  0.12752240  1  0  0.378269  0  3.714819  0  0  0.351476  0  3.979792  0  0  0.367921  0  3.995691  0  0  0.226509  0.34008  0  3.969414  0
C  C41  1  0.60520922  0.89248594  0.62752013  1  0  0.378267  0  3.715053  0  0  0.351482  0  3.980053  0  0  0.367926  0  3.995954  0  0  0.226409  0.340082  0  3.969671  0
C  C42  1  0.10521504  0.39248457  0.87247742  1  0  0.378421  0  3.714739  0  0  0.351658  0  3.9797  0  0  0.368105  0  3.995596  0  0  0.226571  0.34026  0  3.969321  0
C  C43  1  0.39478784  0.10751788  0.37247806  1  0  0.378372  0  3.714895  0  0  0.351565  0  3.979887  0  0  0.368011  0  3.995786  0  0  0.226487  0.340175  0  3.969505  0
C  C44  1  0.92420961  0.49764384  0.12293891  1  0  -0.099087  0  3.872886  0  0  -0.081412  0  4.11294  0  0  -0.089604  0  4.134752  0  0  -0.009416  -0.075964  0  4.098308  0
C  C45  1  0.57578609  0.00235538  0.62293573  1  0  -0.098803  0  3.872681  0  0  -0.0812  0  4.112812  0  0  -0.089385  0  4.134622  0  0  -0.009343  -0.07573  0  4.098147  0
C  C46  1  0.07578979  0.50235429  0.87706090  1  0  -0.099114  0  3.872897  0  0  -0.081492  0  4.113002  0  0  -0.089689  0  4.134818  0  0  -0.00945  -0.076036  0  4.098363  0
C  C47  1  0.42421454  0.99764763  0.37706327  1  0  -0.099136  0  3.872756  0  0  -0.08145  0  4.112803  0  0  -0.089647  0  4.134616  0  0  -0.009419  -0.076005  0  4.098165  0
C  C48  1  0.03246306  0.46549071  0.17084489  1  0  -0.048472  0  3.717416  0  0  -0.078671  0  3.975998  0  0  -0.075561  0  3.993479  0  0  -0.072034  -0.080438  0  3.964126  0
C  C49  1  0.46753273  0.03451130  0.67084077  1  0  -0.048565  0  3.71738  0  0  -0.078784  0  3.976038  0  0  -0.075679  0  3.993521  0  0  -0.072036  -0.080557  0  3.964166  0
C  C50  1  0.96753730  0.53450823  0.82915573  1  0  -0.04841  0  3.717258  0  0  -0.078631  0  3.975913  0  0  -0.075518  0  3.993394  0  0  -0.071989  -0.080397  0  3.964039  0
C  C51  1  0.53246806  0.96549415  0.32915742  1  0  -0.048413  0  3.717494  0  0  -0.078603  0  3.976047  0  0  -0.075492  0  3.99353  0  0  -0.07203  -0.080367  0  3.964172  0
C  C52  1  0.06067498  0.35732626  0.16690786  1  0  -0.080676  0  3.748464  0  0  -0.099235  0  4.009087  0  0  -0.104821  0  4.030842  0  0  -0.091428  -0.095955  0  3.995205  0
C  C53  1  0.43932179  0.14267657  0.66690613  1  0  -0.080608  0  3.748506  0  0  -0.099139  0  4.009105  0  0  -0.104722  0  4.030862  0  0  -0.091429  -0.095854  0  3.995219  0
C  C54  1  0.93932452  0.64267350  0.83309276  1  0  -0.080631  0  3.748327  0  0  -0.09918  0  4.008954  0  0  -0.104765  0  4.030711  0  0  -0.091445  -0.095893  0  3.99507  0
C  C55  1  0.56067900  0.85732888  0.33309287  1  0  -0.080658  0  3.748499  0  0  -0.099218  0  4.009129  0  0  -0.104803  0  4.030887  0  0  -0.091441  -0.09593  0  3.995238  0
C  C56  1  0.98182660  0.28072119  0.11521957  1  0  0.00739  0  3.699112  0  0  -0.009023  0  3.946198  0  0  -0.005582  0  3.965291  0  0  -0.070424  -0.011097  0  3.933226  0
C  C57  1  0.51817208  0.21928130  0.61521956  1  0  0.007407  0  3.699206  0  0  -0.009018  0  3.946271  0  0  -0.005572  0  3.965354  0  0  -0.070442  -0.011088  0  3.933297  0
C  C58  1  0.01817194  0.71927776  0.88478186  1  0  0.007355  0  3.69909  0  0  -0.009085  0  3.946178  0  0  -0.005647  0  3.965266  0  0  -0.070427  -0.011156  0  3.9332  0
C  C59  1  0.48182957  0.78072333  0.38478025  1  0  0.007371  0  3.699141  0  0  -0.009043  0  3.946213  0  0  -0.005601  0  3.965304  0  0  -0.070431  -0.011118  0  3.933241  0
C  C60  1  0.87509679  0.31149189  0.06665796  1  0  -0.186501  0  3.730238  0  0  -0.206501  0  3.982  0  0  -0.214291  0  4.002642  0  0  -0.096872  -0.201338  0  3.968069  0
C  C61  1  0.62490301  0.18850987  0.56665915  1  0  -0.186518  0  3.730025  0  0  -0.206558  0  3.982071  0  0  -0.214349  0  4.002714  0  0  -0.096865  -0.201394  0  3.968129  0
C  C62  1  0.12490170  0.68850624  0.93334185  1  0  -0.186391  0  3.729911  0  0  -0.206467  0  3.981978  0  0  -0.214252  0  4.002615  0  0  -0.096885  -0.201303  0  3.968042  0
C  C63  1  0.37509852  0.81149314  0.43333904  1  0  -0.186486  0  3.73017  0  0  -0.206477  0  3.981924  0  0  -0.214268  0  4.002571  0  0  -0.096893  -0.20131  0  3.967973  0
C  C64  1  0.84611027  0.41973394  0.07034711  1  0  0.267622  0  3.758408  0  0  0.248626  0  4.022375  0  0  0.260632  0  4.037775  0  0  0.102185  0.240282  0  4.011864  0
C  C65  1  0.65388758  0.08026620  0.57034671  1  0  0.26751  0  3.758503  0  0  0.248559  0  4.022405  0  0  0.260564  0  4.037804  0  0  0.102199  0.240214  0  4.011889  0
C  C66  1  0.15389008  0.58026501  0.92965108  1  0  0.267621  0  3.758519  0  0  0.248629  0  4.022433  0  0  0.260636  0  4.037833  0  0  0.10222  0.240285  0  4.011916  0
C  C67  1  0.34611214  0.91973681  0.42965310  1  0  0.267595  0  3.758442  0  0  0.248597  0  4.022369  0  0  0.260605  0  4.037769  0  0  0.1022  0.240258  0  4.011854  0
C  C68  1  0.61466723  0.45537975  0.82799569  1  0  0.368375  0  3.727435  0  0  0.345469  0  3.989145  0  0  0.362226  0  4.004881  0  0  0.222633  0.333881  0  3.978812  0
C  C69  1  0.88533650  0.04462073  0.32799485  1  0  0.368323  0  3.727491  0  0  0.345432  0  3.989187  0  0  0.362181  0  4.004923  0  0  0.222637  0.333844  0  3.978854  0
C  C70  1  0.38533675  0.54461920  0.17200493  1  0  0.368413  0  3.727552  0  0  0.345506  0  3.989241  0  0  0.362259  0  4.004973  0  0  0.222652  0.333917  0  3.978906  0
C  C71  1  0.11466487  0.95537984  0.67200496  1  0  0.368373  0  3.727419  0  0  0.345441  0  3.989123  0  0  0.362193  0  4.004853  0  0  0.22263  0.333853  0  3.978789  0
C  C72  1  0.56950810  0.39783660  0.91972668  1  0  -0.096495  0  3.868176  0  0  -0.079071  0  4.103973  0  0  -0.087269  0  4.125502  0  0  -0.009641  -0.073582  0  4.089443  0
C  C73  1  0.93049319  0.10216209  0.41972718  1  0  -0.096447  0  3.868061  0  0  -0.079022  0  4.103871  0  0  -0.087201  0  4.125372  0  0  -0.009652  -0.073534  0  4.089345  0
C  C74  1  0.43049401  0.60216153  0.08027232  1  0  -0.096602  0  3.868219  0  0  -0.07914  0  4.104  0  0  -0.087325  0  4.125502  0  0  -0.009657  -0.07365  0  4.089469  0
C  C75  1  0.06950738  0.89784011  0.58027101  1  0  -0.096539  0  3.868146  0  0  -0.079032  0  4.103872  0  0  -0.087214  0  4.125367  0  0  -0.009623  -0.073547  0  4.089343  0
C  C76  1  0.45341941  0.34331808  0.91534113  1  0  -0.045065  0  3.691529  0  0  -0.071892  0  3.944099  0  0  -0.069574  0  3.962872  0  0  -0.070332  -0.072938  0  3.931022  0
C  C77  1  0.04658301  0.15668105  0.41534241  1  0  -0.045071  0  3.691559  0  0  -0.071914  0  3.944133  0  0  -0.069599  0  3.962897  0  0  -0.070267  -0.072962  0  3.931061  0
C  C78  1  0.54658089  0.65668005  0.08465706  1  0  -0.045072  0  3.691607  0  0  -0.071917  0  3.944157  0  0  -0.069601  0  3.962924  0  0  -0.070322  -0.072962  0  3.931081  0
C  C79  1  0.95341841  0.84332033  0.58465659  1  0  -0.044999  0  3.691512  0  0  -0.071853  0  3.944065  0  0  -0.069534  0  3.962826  0  0  -0.070274  -0.072896  0  3.930988  0
C  C80  1  0.41017116  0.28446265  0.00449653  1  0  -0.082086  0  3.740687  0  0  -0.101326  0  3.998681  0  0  -0.106574  0  4.019731  0  0  -0.094455  -0.098226  0  3.98536  0
C  C81  1  0.08983158  0.21553479  0.50449783  1  0  -0.082003  0  3.740632  0  0  -0.101283  0  3.998711  0  0  -0.106531  0  4.019762  0  0  -0.094489  -0.098183  0  3.985393  0
C  C82  1  0.58982824  0.71553549  0.99550085  1  0  -0.081995  0  3.740498  0  0  -0.101257  0  3.998584  0  0  -0.1065  0  4.019636  0  0  -0.094456  -0.098158  0  3.985265  0
C  C83  1  0.91017059  0.78446416  0.49550117  1  0  -0.082111  0  3.740782  0  0  -0.101366  0  3.998829  0  0  -0.10661  0  4.01988  0  0  -0.094507  -0.098264  0  3.985512  0
C  C84  1  0.48149719  0.28008418  0.09791951  1  0  -0.011671  0  3.739366  0  0  -0.029269  0  3.996146  0  0  -0.025604  0  4.013664  0  0  -0.07674  -0.03162  0  3.984363  0
C  C85  1  0.01850231  0.21991308  0.59792112  1  0  -0.011567  0  3.739056  0  0  -0.029369  0  3.996284  0  0  -0.025703  0  4.013804  0  0  -0.076786  -0.031724  0  3.984506  0
C  C86  1  0.51850215  0.71991314  0.90207787  1  0  -0.011472  0  3.738928  0  0  -0.029256  0  3.996136  0  0  -0.02559  0  4.013653  0  0  -0.076728  -0.031604  0  3.984353  0
C  C87  1  0.98149811  0.78008668  0.40207951  1  0  -0.011612  0  3.739494  0  0  -0.02921  0  3.996234  0  0  -0.025546  0  4.013755  0  0  -0.076722  -0.031564  0  3.984456  0
C  C88  1  0.59512765  0.33550342  0.10449717  1  0  -0.179981  0  3.737587  0  0  -0.202608  0  3.994076  0  0  -0.209609  0  4.013759  0  0  -0.095384  -0.198068  0  3.980998  0
C  C89  1  0.90487252  0.16449340  0.60449799  1  0  -0.179987  0  3.737347  0  0  -0.202731  0  3.994278  0  0  -0.209735  0  4.013967  0  0  -0.095463  -0.198199  0  3.981201  0
C  C90  1  0.40486983  0.66449309  0.89550264  1  0  -0.17998  0  3.737304  0  0  -0.202764  0  3.994258  0  0  -0.209768  0  4.013947  0  0  -0.095448  -0.198224  0  3.981173  0
C  C91  1  0.09512794  0.83550717  0.39550101  1  0  -0.180137  0  3.737739  0  0  -0.202695  0  3.994215  0  0  -0.209697  0  4.013906  0  0  -0.095434  -0.198155  0  3.981132  0
C  C92  1  0.63920375  0.39466726  0.01534552  1  0  0.266376  0  3.749378  0  0  0.24833  0  4.012994  0  0  0.260273  0  4.028257  0  0  0.10191  0.240074  0  4.002557  0
C  C93  1  0.86079611  0.10533134  0.51534500  1  0  0.266493  0  3.749444  0  0  0.248416  0  4.013069  0  0  0.260354  0  4.028332  0  0  0.101975  0.240159  0  4.002634  0
C  C94  1  0.36079649  0.60533006  0.98465348  1  0  0.266629  0  3.74945  0  0  0.248487  0  4.013114  0  0  0.260427  0  4.028377  0  0  0.101993  0.240231  0  4.002675  0
C  C95  1  0.13920350  0.89467004  0.48465319  1  0  0.266484  0  3.749474  0  0  0.248356  0  4.013116  0  0  0.260294  0  4.02838  0  0  0.101923  0.2401  0  4.002676  0
S  S96  1  0.82250271  0.00003685  0.88710966  1  0  1.12194  0  5.833043  0  0  1.023141  0  6.360679  0  0  1.066916  0  6.340949  0  0  0.485826  0.993001  0  6.373351  0
S  S97  1  0.67749786  0.49996190  0.38710986  1  0  1.122597  0  5.8317  0  0  1.023292  0  6.36053  0  0  1.067066  0  6.340809  0  0  0.485903  0.993146  0  6.373207  0
S  S98  1  0.17749759  0.99996128  0.11289096  1  0  1.122648  0  5.831697  0  0  1.023337  0  6.360532  0  0  1.067117  0  6.340805  0  0  0.485892  0.993198  0  6.373202  0
S  S99  1  0.32250170  0.50003867  0.61289076  1  0  1.122138  0  5.832971  0  0  1.023358  0  6.360599  0  0  1.067138  0  6.340874  0  0  0.485877  0.993221  0  6.373269  0
N  N100  1  0.87424827  0.69897952  0.13287952  1  0  -0.452858  0  2.953706  0  0  -0.394501  0  3.264051  0  0  -0.411099  0  3.265697  0  0  -0.346679  -0.383643  0  3.26322  0
N  N101  1  0.62574521  0.80101915  0.63287405  1  0  -0.453007  0  2.953995  0  0  -0.394627  0  3.264313  0  0  -0.411226  0  3.265961  0  0  -0.346648  -0.383762  0  3.26348  0
N  N102  1  0.12575112  0.30101861  0.86712111  1  0  -0.45306  0  2.953665  0  0  -0.394721  0  3.264026  0  0  -0.411319  0  3.265667  0  0  -0.346766  -0.38386  0  3.263196  0
N  N103  1  0.37425259  0.19898223  0.36712171  1  0  -0.452988  0  2.953974  0  0  -0.394615  0  3.264307  0  0  -0.411213  0  3.265954  0  0  -0.346681  -0.383752  0  3.263472  0
N  N104  1  0.64880071  0.50096535  0.74979247  1  0  -0.467455  0  2.963801  0  0  -0.416759  0  3.277549  0  0  -0.432508  0  3.277863  0  0  -0.360783  -0.406454  0  3.277631  0
N  N105  1  0.85120136  0.99903555  0.24979111  1  0  -0.467598  0  2.964231  0  0  -0.41674  0  3.277604  0  0  -0.43249  0  3.277923  0  0  -0.360768  -0.406431  0  3.277683  0
N  N106  1  0.35120168  0.49903685  0.25020977  1  0  -0.467636  0  2.964324  0  0  -0.416785  0  3.277712  0  0  -0.432533  0  3.278027  0  0  -0.360806  -0.406479  0  3.277792  0
N  N107  1  0.14879895  0.00096258  0.75021032  1  0  -0.467443  0  2.963799  0  0  -0.416738  0  3.277547  0  0  -0.432486  0  3.277863  0  0  -0.360763  -0.406432  0  3.277628  0
O  O108  1  0.82082748  0.89858646  0.94943105  1  0  -0.629385  0  2.095528  0  0  -0.577944  0  2.37205  0  0  -0.598624  0  2.356025  0  0  -0.338992  -0.563183  0  2.382485  0
O  O109  1  0.67917246  0.60141245  0.44943102  1  0  -0.629227  0  2.094889  0  0  -0.57797  0  2.372006  0  0  -0.598653  0  2.355982  0  0  -0.338992  -0.563206  0  2.382442  0
O  O110  1  0.17917101  0.10141167  0.05056957  1  0  -0.629209  0  2.094857  0  0  -0.577973  0  2.372002  0  0  -0.598651  0  2.355971  0  0  -0.33899  -0.563215  0  2.382436  0
O  O111  1  0.32082806  0.39858893  0.55056879  1  0  -0.629474  0  2.095467  0  0  -0.578024  0  2.371979  0  0  -0.598707  0  2.355953  0  0  -0.339016  -0.563263  0  2.382414  0
O  O112  1  0.81677331  0.98423299  0.77058035  1  0  -0.595737  0  2.017538  0  0  -0.563731  0  2.271703  0  0  -0.583806  0  2.262852  0  0  -0.328125  -0.549419  0  2.277186  0
O  O113  1  0.68322667  0.51576544  0.27058043  1  0  -0.595774  0  2.017446  0  0  -0.563752  0  2.271701  0  0  -0.583827  0  2.262851  0  0  -0.328121  -0.549431  0  2.277182  0
O  O114  1  0.18322705  0.01576596  0.22942108  1  0  -0.595792  0  2.017473  0  0  -0.563767  0  2.271725  0  0  -0.583844  0  2.262873  0  0  -0.328125  -0.549459  0  2.277208  0
O  O115  1  0.31677284  0.48423432  0.72942019  1  0  -0.595752  0  2.017668  0  0  -0.563736  0  2.271813  0  0  -0.583814  0  2.262961  0  0  -0.32809  -0.549423  0  2.277294  0
O  O116  1  0.90968004  0.08586231  0.92516027  1  0  -0.625963  0  2.067305  0  0  -0.584128  0  2.349416  0  0  -0.603377  0  2.332768  0  0  -0.341627  -0.570511  0  2.360405  0
O  O117  1  0.59031759  0.41413637  0.42516098  1  0  -0.62581  0  2.066625  0  0  -0.584195  0  2.349293  0  0  -0.603447  0  2.332645  0  0  -0.341679  -0.570583  0  2.3603  0
O  O118  1  0.09031844  0.91413582  0.07484197  1  0  -0.625863  0  2.066669  0  0  -0.584227  0  2.349345  0  0  -0.603475  0  2.332693  0  0  -0.341692  -0.570615  0  2.360334  0
O  O119  1  0.40968106  0.58586420  0.57484045  1  0  -0.626046  0  2.067228  0  0  -0.584222  0  2.349331  0  0  -0.603473  0  2.33268  0  0  -0.341671  -0.570615  0  2.360338  0
O  O120  1  0.74703781  0.45745730  0.01719549  1  0  -0.286534  0  2.384539  0  0  -0.216758  0  2.611068  0  0  -0.236018  0  2.615977  0  0  -0.13691  -0.202871  0  2.60754  0
O  O121  1  0.75296120  0.04254212  0.51719472  1  0  -0.286487  0  2.384558  0  0  -0.21675  0  2.611109  0  0  -0.236012  0  2.616023  0  0  -0.136935  -0.202864  0  2.607581  0
O  O122  1  0.25296159  0.54254084  0.98280351  1  0  -0.286567  0  2.38458  0  0  -0.216755  0  2.611092  0  0  -0.236015  0  2.616001  0  0  -0.136915  -0.202865  0  2.607561  0
O  O123  1  0.24703756  0.95746008  0.48280347  1  0  -0.286551  0  2.38459  0  0  -0.216751  0  2.611141  0  0  -0.236011  0  2.616051  0  0  -0.136916  -0.202865  0  2.607612  0
F  F124  1  0.57997267  0.98539062  0.89719025  1  0  -0.224024  0  1.219767  0  0  -0.187869  0  1.394375  0  0  -0.198388  0  1.37989  0  0  -0.092488  -0.180259  0  1.404578  0
F  F125  1  0.92002739  0.51460595  0.39719255  1  0  -0.223707  0  1.219518  0  0  -0.187802  0  1.394395  0  0  -0.198315  0  1.379919  0  0  -0.092457  -0.180177  0  1.404593  0
F  F126  1  0.42002758  0.01460670  0.10280956  1  0  -0.223727  0  1.219502  0  0  -0.187818  0  1.394387  0  0  -0.198333  0  1.379912  0  0  -0.092472  -0.180222  0  1.40459  0
F  F127  1  0.07997206  0.48539299  0.60281050  1  0  -0.223993  0  1.219793  0  0  -0.187821  0  1.394419  0  0  -0.198332  0  1.379947  0  0  -0.092459  -0.180216  0  1.404621  0
F  F128  1  0.66915072  0.07687628  0.03094808  1  0  -0.227803  0  1.193291  0  0  -0.191765  0  1.363339  0  0  -0.201526  0  1.348248  0  0  -0.097025  -0.184762  0  1.374018  0
F  F129  1  0.83084505  0.42311661  0.53094721  1  0  -0.232816  0  1.198087  0  0  -0.191778  0  1.363263  0  0  -0.20153  0  1.348182  0  0  -0.097041  -0.184756  0  1.373942  0
F  F130  1  0.33084931  0.92311779  0.96905416  1  0  -0.232796  0  1.198139  0  0  -0.191764  0  1.363331  0  0  -0.201519  0  1.34825  0  0  -0.097049  -0.184764  0  1.374011  0
F  F131  1  0.16915173  0.57688315  0.46905584  1  0  -0.227852  0  1.193241  0  0  -0.191802  0  1.363296  0  0  -0.20155  0  1.348219  0  0  -0.097065  -0.184794  0  1.373977  0
F  F132  1  0.65997705  0.15085215  0.86914367  1  0  -0.237394  0  1.197165  0  0  -0.192513  0  1.357746  0  0  -0.203603  0  1.345785  0  0  -0.09722  -0.184479  0  1.366103  0
F  F133  1  0.84002085  0.34914582  0.36914095  1  0  -0.236775  0  1.196878  0  0  -0.192514  0  1.357937  0  0  -0.203598  0  1.345986  0  0  -0.09719  -0.184458  0  1.366295  0
F  F134  1  0.34002150  0.84914680  0.13086020  1  0  -0.236796  0  1.196844  0  0  -0.192522  0  1.357913  0  0  -0.203607  0  1.345961  0  0  -0.097228  -0.18449  0  1.366271  0
F  F135  1  0.15997775  0.65085393  0.63086291  1  0  -0.237416  0  1.197266  0  0  -0.192527  0  1.357862  0  0  -0.203606  0  1.345912  0  0  -0.097231  -0.184489  0  1.36622  0
