# generated using pymatgen
data_ZnH40C22(NO)4
_symmetry_space_group_name_H-M   'P 1'
_cell_length_a   10.35834195
_cell_length_b   11.23455673
_cell_length_c   12.41634524
_cell_angle_alpha   67.01476007
_cell_angle_beta   73.62578529
_cell_angle_gamma   89.18363864
_symmetry_Int_Tables_number   1
_chemical_formula_structural   ZnH40C22(NO)4
_chemical_formula_sum   'Zn2 H80 C44 N8 O8'
_cell_volume   1268.70364413
_cell_formula_units_Z   2
loop_
 _symmetry_equiv_pos_site_id
 _symmetry_equiv_pos_as_xyz
  1  'x, y, z'
loop_
 _atom_site_type_symbol
 _atom_site_label
 _atom_site_symmetry_multiplicity
 _atom_site_fract_x
 _atom_site_fract_y
 _atom_site_fract_z
 _atom_site_occupancy
 _atom_site_hle17_bader_spin_density
 _atom_site_hle17_ddec_charge
 _atom_site_hle17_ddec_spin_density
 _atom_site_hle17_ddec_sum_bond_order
 _atom_site_hle17_magmom
 _atom_site_hse06_10hf_bader_spin_density
 _atom_site_hse06_10hf_ddec_charge
 _atom_site_hse06_10hf_ddec_spin_density
 _atom_site_hse06_10hf_ddec_sum_bond_order
 _atom_site_hse06_10hf_magmom
 _atom_site_hse06_bader_spin_density
 _atom_site_hse06_ddec_charge
 _atom_site_hse06_ddec_spin_density
 _atom_site_hse06_ddec_sum_bond_order
 _atom_site_hse06_magmom
 _atom_site_pbe_bader_spin_density
 _atom_site_pbe_cm5_charge
 _atom_site_pbe_ddec_charge
 _atom_site_pbe_ddec_spin_density
 _atom_site_pbe_ddec_sum_bond_order
 _atom_site_pbe_magmom
Zn  Zn0  1  0.50000032  0.49999979  0.50000085  1  0  0.903807  0  1.888188  0  0  0.727106  0  2.301452  0  0  0.768199  0  2.262062  0  0  0.688093  0.699731  0  2.327401  0
Zn  Zn1  1  0.99999909  0.50000036  0.00000022  1  0  0.914671  0  1.887949  0  0  0.737399  0  2.303836  0  0  0.777704  0  2.265199  0  0  0.692443  0.709617  0  2.329893  0
H  H2  1  0.42712269  0.63542783  0.31682311  1  0  0.263428  0  0.956884  0  0  0.251814  0  1.013639  0  0  0.259052  0  1.008677  0  0  0.284708  0.246573  0  1.01736  0
H  H3  1  0.57287885  0.36457077  0.68317793  1  0  0.263442  0  0.956831  0  0  0.25184  0  1.013589  0  0  0.259078  0  1.008627  0  0  0.284713  0.2466  0  1.01731  0
H  H4  1  0.59431206  0.67147283  0.54693771  1  0  0.260127  0  0.891269  0  0  0.257585  0  0.934239  0  0  0.261951  0  0.932299  0  0  0.304466  0.2544  0  0.935796  0
H  H5  1  0.40568971  0.32852771  0.45306097  1  0  0.260137  0  0.89124  0  0  0.257593  0  0.934215  0  0  0.26196  0  0.932275  0  0  0.304457  0.254408  0  0.935772  0
H  H6  1  0.12481520  0.38103321  0.15620582  1  0  0.256957  0  0.892566  0  0  0.253754  0  0.93669  0  0  0.258349  0  0.934448  0  0  0.304392  0.25054  0  0.938293  0
H  H7  1  0.87518366  0.61896831  0.84379320  1  0  0.257013  0  0.892517  0  0  0.253808  0  0.936635  0  0  0.258403  0  0.934392  0  0  0.304408  0.250592  0  0.938235  0
H  H8  1  0.82132922  0.31989576  0.05271516  1  0  0.267194  0  0.952641  0  0  0.253519  0  1.013859  0  0  0.261379  0  1.007856  0  0  0.2814  0.247928  0  1.018158  0
H  H9  1  0.17867031  0.68010284  0.94728475  1  0  0.267197  0  0.952644  0  0  0.25352  0  1.013862  0  0  0.26138  0  1.007858  0  0  0.281401  0.247928  0  1.018169  0
H  H10  1  0.61651423  0.87214237  0.38321908  1  0  0.027237  0  0.910177  0  0  0.043225  0  0.966924  0  0  0.043598  0  0.966645  0  0  0.098786  0.042545  0  0.967555  0
H  H11  1  0.38348642  0.12785720  0.61678102  1  0  0.02724  0  0.910178  0  0  0.043224  0  0.966922  0  0  0.043598  0  0.966644  0  0  0.098782  0.042551  0  0.967548  0
H  H12  1  0.39077382  0.75936331  0.49485490  1  0  0.054281  0  0.909187  0  0  0.067216  0  0.966847  0  0  0.068139  0  0.966408  0  0  0.10931  0.066261  0  0.967527  0
H  H13  1  0.60922795  0.24063723  0.50514379  1  0  0.054259  0  0.909201  0  0  0.067215  0  0.966847  0  0  0.06814  0  0.966408  0  0  0.109309  0.066261  0  0.96753  0
H  H14  1  0.28077658  0.87365581  0.33193666  1  0  0.064216  0  0.959614  0  0  0.080884  0  1.026394  0  0  0.081553  0  1.026813  0  0  0.087475  0.080508  0  1.025512  0
H  H15  1  0.71922407  0.12634377  0.66806344  1  0  0.064223  0  0.959616  0  0  0.080887  0  1.026394  0  0  0.081557  0  1.026812  0  0  0.08747  0.080512  0  1.025515  0
H  H16  1  0.41636547  0.97177200  0.32512341  1  0  0.072585  0  0.920751  0  0  0.093101  0  0.976095  0  0  0.094249  0  0.975859  0  0  0.093278  0.09204  0  0.976673  0
H  H17  1  0.58363317  0.02822758  0.67487797  1  0  0.072587  0  0.92079  0  0  0.093112  0  0.976113  0  0  0.094259  0  0.975879  0  0  0.093288  0.09205  0  0.976693  0
H  H18  1  0.43030235  0.82478880  0.15881004  1  0  0.073177  0  0.925147  0  0  0.095105  0  0.978936  0  0  0.095874  0  0.979349  0  0  0.093163  0.094456  0  0.978763  0
H  H19  1  0.56969752  0.17521272  0.84118874  1  0  0.073193  0  0.92521  0  0  0.095134  0  0.978989  0  0  0.095902  0  0.979402  0  0  0.093185  0.094486  0  0.978814  0
H  H20  1  0.43033734  0.99456121  0.11470020  1  0  0.064847  0  0.942977  0  0  0.085515  0  1.000497  0  0  0.086057  0  1.00103  0  0  0.09141  0.084998  0  1.000291  0
H  H21  1  0.56966241  0.00543933  0.88529977  1  0  0.064851  0  0.942973  0  0  0.085526  0  1.000493  0  0  0.086066  0  1.001027  0  0  0.091417  0.085009  0  1.000287  0
H  H22  1  0.64626304  0.01071848  0.15610323  1  0  0.060028  0  0.931373  0  0  0.079953  0  0.990366  0  0  0.080692  0  0.990511  0  0  0.087894  0.079312  0  0.990402  0
H  H23  1  0.35373782  0.98928305  0.84389773  1  0  0.060025  0  0.931378  0  0  0.079942  0  0.990375  0  0  0.080682  0  0.990518  0  0  0.087893  0.079305  0  0.990411  0
H  H24  1  0.66524335  0.93155480  0.05529996  1  0  0.063961  0  0.946649  0  0  0.084555  0  1.005451  0  0  0.084848  0  1.006678  0  0  0.090948  0.08422  0  1.004703  0
H  H25  1  0.33475662  0.06844770  0.94470006  1  0  0.063947  0  0.946644  0  0  0.084542  0  1.005444  0  0  0.084835  0  1.00667  0  0  0.09095  0.084209  0  1.004696  0
H  H26  1  0.64546890  0.71632843  0.22415299  1  0  0.094503  0  0.95311  0  0  0.111808  0  1.012538  0  0  0.112349  0  1.013526  0  0  0.100772  0.11128  0  1.012024  0
H  H27  1  0.35453208  0.28367405  0.77584438  1  0  0.094489  0  0.953167  0  0  0.111781  0  1.012603  0  0  0.112323  0  1.01359  0  0  0.100761  0.111248  0  1.012094  0
H  H28  1  0.77388051  0.82181102  0.21831227  1  0  0.062809  0  0.955582  0  0  0.081863  0  1.018543  0  0  0.082464  0  1.01888  0  0  0.088299  0.081241  0  1.018516  0
H  H29  1  0.22612025  0.17818952  0.78168585  1  0  0.062819  0  0.955533  0  0  0.081875  0  1.01849  0  0  0.082475  0  1.018828  0  0  0.088303  0.081253  0  1.018462  0
H  H30  1  0.80971987  0.63597964  0.35417461  1  0  0.043374  0  0.921937  0  0  0.061795  0  0.978318  0  0  0.061315  0  0.979772  0  0  0.109395  0.061887  0  0.977553  0
H  H31  1  0.19028089  0.36402090  0.64582431  1  0  0.043356  0  0.921891  0  0  0.061766  0  0.978282  0  0  0.061287  0  0.979737  0  0  0.109378  0.06186  0  0.977514  0
H  H32  1  0.84942890  0.85772890  0.35533309  1  0  0.097766  0  0.971985  0  0  0.115294  0  1.04193  0  0  0.116983  0  1.041242  0  0  0.086531  0.113885  0  1.042948  0
H  H33  1  0.15057174  0.14227068  0.64466862  1  0  0.097702  0  0.972021  0  0  0.115268  0  1.041933  0  0  0.11696  0  1.041242  0  0  0.086517  0.113861  0  1.04295  0
H  H34  1  0.96950310  0.75383869  0.40724412  1  0  0.093589  0  0.968404  0  0  0.11157  0  1.040753  0  0  0.113423  0  1.039562  0  0  0.084225  0.111934  0  1.038662  0
H  H35  1  0.03049743  0.24615992  0.59275797  1  0  0.093575  0  0.968418  0  0  0.111553  0  1.040777  0  0  0.113407  0  1.039586  0  0  0.084232  0.111918  0  1.038688  0
H  H36  1  0.83120157  0.78142611  0.51483210  1  0  0.105387  0  0.951639  0  0  0.128268  0  1.011998  0  0  0.129421  0  1.012437  0  0  0.090637  0.127369  0  1.011917  0
H  H37  1  0.16879673  0.21857055  0.48517039  1  0  0.1054  0  0.951586  0  0  0.128276  0  1.011963  0  0  0.129428  0  1.012405  0  0  0.090634  0.127379  0  1.011885  0
H  H38  1  0.19255719  0.67855017  0.39409864  1  0  0.028303  0  0.945892  0  0  0.043597  0  1.018422  0  0  0.044632  0  1.017016  0  0  0.085406  0.044082  0  1.016882  0
H  H39  1  0.80744336  0.32144841  0.60589862  1  0  0.028327  0  0.945917  0  0  0.043654  0  1.018418  0  0  0.044689  0  1.017011  0  0  0.085455  0.044141  0  1.016881  0
H  H40  1  0.21317121  0.60588905  0.54275206  1  0  0.058768  0  0.963724  0  0  0.07343  0  1.03648  0  0  0.074107  0  1.036255  0  0  0.101644  0.072741  0  1.036982  0
H  H41  1  0.78682844  0.39411050  0.45724506  1  0  0.05875  0  0.963722  0  0  0.073433  0  1.03647  0  0  0.074109  0  1.036246  0  0  0.101652  0.072748  0  1.036973  0
H  H42  1  0.74544918  0.53161782  0.63328624  1  0  0.095682  0  0.929394  0  0  0.11351  0  0.986531  0  0  0.114801  0  0.986671  0  0  0.10097  0.112423  0  0.986723  0
H  H43  1  0.25455337  0.46838077  0.36671297  1  0  0.095709  0  0.929333  0  0  0.113516  0  0.986486  0  0  0.114808  0  0.986627  0  0  0.100985  0.112428  0  0.986679  0
H  H44  1  0.90538318  0.53144486  0.53451499  1  0  0.064679  0  0.967452  0  0  0.084057  0  1.029755  0  0  0.08428  0  1.030753  0  0  0.0889  0.083496  0  1.029568  0
H  H45  1  0.09461838  0.46855372  0.46548204  1  0  0.064663  0  0.96738  0  0  0.084021  0  1.029714  0  0  0.084246  0  1.030709  0  0  0.088881  0.083455  0  1.029533  0
H  H46  1  0.88269277  0.12634946  0.17258621  1  0  0.026404  0  0.910815  0  0  0.041571  0  0.970436  0  0  0.041668  0  0.970624  0  0  0.097416  0.041426  0  0.970476  0
H  H47  1  0.11730587  0.87365012  0.82741516  1  0  0.02639  0  0.910756  0  0  0.041562  0  0.970382  0  0  0.041659  0  0.970568  0  0  0.097418  0.041418  0  0.970424  0
H  H48  1  0.10830762  0.12523465  0.03397852  1  0  0.067309  0  0.957874  0  0  0.086317  0  1.021697  0  0  0.086578  0  1.022907  0  0  0.090224  0.086062  0  1.020924  0
H  H49  1  0.89169202  0.87476494  0.96602342  1  0  0.067321  0  0.957869  0  0  0.08633  0  1.021686  0  0  0.086589  0  1.022894  0  0  0.090231  0.086072  0  1.020915  0
H  H50  1  0.17556177  0.25583086  0.05248798  1  0  0.100198  0  0.949016  0  0  0.116754  0  1.006522  0  0  0.118793  0  1.005627  0  0  0.098807  0.115217  0  1.00732  0
H  H51  1  0.82443676  0.74416775  0.94751377  1  0  0.100189  0  0.949022  0  0  0.116741  0  1.006525  0  0  0.118778  0  1.005627  0  0  0.098796  0.115203  0  1.007323  0
H  H52  1  0.05857175  0.98223977  0.25151994  1  0  0.042692  0  0.972245  0  0  0.060995  0  1.041088  0  0  0.061291  0  1.041649  0  0  0.079231  0.060785  0  1.040544  0
H  H53  1  0.94142688  0.01775981  0.74848224  1  0  0.042704  0  0.972264  0  0  0.061021  0  1.041097  0  0  0.061319  0  1.041659  0  0  0.079247  0.060812  0  1.040554  0
H  H54  1  0.23032793  0.04623779  0.19046762  1  0  0.066398  0  0.960771  0  0  0.086265  0  1.019418  0  0  0.086645  0  1.02048  0  0  0.091071  0.085937  0  1.018771  0
H  H55  1  0.76967070  0.95376180  0.80953537  1  0  0.066402  0  0.960814  0  0  0.086251  0  1.019489  0  0  0.086632  0  1.020551  0  0  0.091075  0.085924  0  1.018842  0
H  H56  1  0.12004197  0.04692700  0.39927972  1  0  0.058733  0  0.946797  0  0  0.079083  0  1.008337  0  0  0.079356  0  1.009411  0  0  0.086948  0.078798  0  1.007653  0
H  H57  1  0.87995699  0.95307550  0.60072134  1  0  0.05873  0  0.946826  0  0  0.079077  0  1.008355  0  0  0.079351  0  1.00943  0  0  0.086956  0.078792  0  1.007674  0
H  H58  1  0.18442969  0.20419757  0.28670725  1  0  0.061059  0  0.927584  0  0  0.081958  0  0.982882  0  0  0.083006  0  0.982571  0  0  0.089526  0.081151  0  0.983217  0
H  H59  1  0.81556816  0.79580395  0.71329281  1  0  0.061089  0  0.927572  0  0  0.081968  0  0.982888  0  0  0.083016  0  0.982578  0  0  0.089513  0.081162  0  0.983221  0
H  H60  1  0.94947293  0.20608916  0.41609751  1  0  0.064231  0  0.951185  0  0  0.082139  0  1.016582  0  0  0.082822  0  1.017142  0  0  0.087216  0.08169  0  1.015932  0
H  H61  1  0.05052625  0.79391529  0.58390199  1  0  0.064189  0  0.951212  0  0  0.082074  0  1.01665  0  0  0.082757  0  1.01721  0  0  0.087185  0.081626  0  1.015995  0
H  H62  1  0.88770789  0.08344581  0.38279151  1  0  0.065603  0  0.934221  0  0  0.08544  0  0.994933  0  0  0.08632  0  0.994845  0  0  0.089449  0.084679  0  0.995245  0
H  H63  1  0.11228995  0.91655573  0.61721096  1  0  0.065598  0  0.934203  0  0  0.085436  0  0.994916  0  0  0.086316  0  0.994826  0  0  0.089464  0.084672  0  0.995229  0
H  H64  1  0.83328559  0.29196474  0.25344514  1  0  0.06406  0  0.924855  0  0  0.076908  0  0.98323  0  0  0.077145  0  0.983736  0  0  0.115216  0.076647  0  0.982994  0
H  H65  1  0.16671326  0.70803678  0.74655469  1  0  0.064112  0  0.924862  0  0  0.07695  0  0.983237  0  0  0.077194  0  0.983736  0  0  0.115233  0.076689  0  0.983005  0
H  H66  1  0.01040741  0.41604455  0.34233733  1  0  0.034375  0  0.954935  0  0  0.051422  0  1.024375  0  0  0.051622  0  1.024742  0  0  0.088233  0.051084  0  1.024321  0
H  H67  1  0.98959134  0.58395599  0.65766207  1  0  0.034373  0  0.954904  0  0  0.051455  0  1.024309  0  0  0.051657  0  1.024672  0  0  0.08823  0.051095  0  1.024275  0
H  H68  1  0.88769116  0.48663958  0.26737936  1  0  0.072757  0  0.948554  0  0  0.085885  0  1.020956  0  0  0.086942  0  1.020202  0  0  0.105829  0.085135  0  1.021409  0
H  H69  1  0.11230860  0.51336096  0.73262061  1  0  0.072756  0  0.948574  0  0  0.085888  0  1.02098  0  0  0.086946  0  1.020225  0  0  0.105832  0.085131  0  1.021435  0
H  H70  1  0.06894430  0.28990919  0.87848734  1  0  0.037394  0  0.927795  0  0  0.051241  0  0.991843  0  0  0.051485  0  0.991844  0  0  0.104142  0.050983  0  0.991952  0
H  H71  1  0.93105545  0.71009136  0.12151262  1  0  0.037422  0  0.927767  0  0  0.051252  0  0.991835  0  0  0.051496  0  0.991836  0  0  0.104152  0.050998  0  0.991941  0
H  H72  1  0.91295028  0.07624372  0.00415084  1  0  0.096319  0  0.971073  0  0  0.115894  0  1.039135  0  0  0.117021  0  1.039505  0  0  0.086183  0.115021  0  1.038994  0
H  H73  1  0.08704925  0.92375487  0.99584826  1  0  0.096296  0  0.97109  0  0  0.115871  0  1.039141  0  0  0.116998  0  1.039514  0  0  0.086187  0.114998  0  1.039001  0
H  H74  1  0.92342511  0.14049481  0.84648926  1  0  0.093764  0  0.976694  0  0  0.115992  0  1.041719  0  0  0.116973  0  1.042278  0  0  0.08383  0.115167  0  1.041386  0
H  H75  1  0.07657576  0.85950671  0.15351009  1  0  0.093692  0  0.976692  0  0  0.11591  0  1.041742  0  0  0.11689  0  1.042301  0  0  0.0838  0.115089  0  1.041401  0
H  H76  1  0.77929224  0.15917938  0.95473211  1  0  0.111692  0  0.94397  0  0  0.135095  0  1.00169  0  0  0.136415  0  1.001866  0  0  0.095165  0.134172  0  1.001482  0
H  H77  1  0.22070662  0.84082213  0.04526530  1  0  0.111672  0  0.944017  0  0  0.135067  0  1.001757  0  0  0.136394  0  1.001925  0  0  0.095157  0.134146  0  1.001549  0
H  H78  1  0.19085369  0.58797065  0.15489656  1  0  0.099824  0  0.90511  0  0  0.120312  0  0.95558  0  0  0.121562  0  0.95548  0  0  0.106073  0.119564  0  0.955396  0
H  H79  1  0.80914595  0.41202891  0.84510297  1  0  0.099815  0  0.905113  0  0  0.120304  0  0.955585  0  0  0.121553  0  0.955487  0  0  0.106067  0.119554  0  0.955403  0
H  H80  1  0.08032649  0.63560763  0.26312282  1  0  0.070039  0  0.948792  0  0  0.091056  0  1.008351  0  0  0.09093  0  1.010042  0  0  0.092033  0.091123  0  1.006977  0
H  H81  1  0.91967415  0.36439194  0.73687808  1  0  0.070039  0  0.948796  0  0  0.091058  0  1.008356  0  0  0.090932  0  1.010047  0  0  0.092037  0.091121  0  1.006986  0
C  C82  1  0.59220344  0.78295498  0.37175297  1  0  0.124911  0  3.570757  0  0  0.101656  0  3.817433  0  0  0.105048  0  3.833102  0  0  0.00516  0.099694  0  3.80623  0
C  C83  1  0.40779710  0.21704361  0.62824590  1  0  0.124882  0  3.570789  0  0  0.101639  0  3.817432  0  0  0.10503  0  3.83311  0  0  0.005167  0.099671  0  3.806232  0
C  C84  1  0.43646073  0.76666831  0.40045612  1  0  0.106349  0  3.576721  0  0  0.087481  0  3.817208  0  0  0.090349  0  3.833788  0  0  0.00162  0.085593  0  3.805919  0
C  C85  1  0.56353992  0.23333125  0.59954318  1  0  0.106345  0  3.576605  0  0  0.08747  0  3.817128  0  0  0.090335  0  3.833715  0  0  0.001601  0.085587  0  3.805838  0
C  C86  1  0.39151324  0.88518672  0.31044737  1  0  -0.161824  0  3.689748  0  0  -0.208854  0  3.955043  0  0  -0.210408  0  3.969457  0  0  -0.166786  -0.207701  0  3.945558  0
C  C87  1  0.60848741  0.11481285  0.68955273  1  0  -0.161896  0  3.689745  0  0  -0.208917  0  3.955048  0  0  -0.210473  0  3.969462  0  0  -0.166802  -0.207761  0  3.945562  0
C  C88  1  0.46139984  0.90681066  0.17705462  1  0  -0.106212  0  3.681795  0  0  -0.147445  0  3.947716  0  0  -0.148342  0  3.962235  0  0  -0.166912  -0.146697  0  3.937805  0
C  C89  1  0.53860002  0.09319086  0.82294577  1  0  -0.106206  0  3.68183  0  0  -0.147472  0  3.947769  0  0  -0.148368  0  3.962286  0  0  -0.166929  -0.14672  0  3.937856  0
C  C90  1  0.61512950  0.92069976  0.14979306  1  0  -0.099955  0  3.686781  0  0  -0.140711  0  3.951097  0  0  -0.141727  0  3.966066  0  0  -0.164712  -0.139815  0  3.940712  0
C  C91  1  0.38487025  0.07930078  0.85020529  1  0  -0.099922  0  3.686804  0  0  -0.140669  0  3.951102  0  0  -0.14168  0  3.966065  0  0  -0.164704  -0.139778  0  3.940722  0
C  C92  1  0.66373475  0.80428653  0.23858329  1  0  -0.165584  0  3.653498  0  0  -0.208807  0  3.908908  0  0  -0.210393  0  3.923148  0  0  -0.166678  -0.207473  0  3.898963  0
C  C93  1  0.33626611  0.19571499  0.76141606  1  0  -0.16558  0  3.653562  0  0  -0.208781  0  3.908926  0  0  -0.210373  0  3.923172  0  0  -0.166669  -0.207439  0  3.898982  0
C  C94  1  0.77672128  0.65007737  0.44030132  1  0  0.206077  0  3.60328  0  0  0.190197  0  3.847298  0  0  0.194412  0  3.863959  0  0  0.000255  0.187645  0  3.835805  0
C  C95  1  0.22327925  0.34992122  0.55969835  1  0  0.20604  0  3.603354  0  0  0.190171  0  3.847351  0  0  0.194378  0  3.864031  0  0  0.000249  0.187616  0  3.835856  0
C  C96  1  0.86136302  0.76768304  0.42844080  1  0  -0.350599  0  3.691046  0  0  -0.434806  0  3.943052  0  0  -0.437556  0  3.952469  0  0  -0.247126  -0.433348  0  3.935675  0
C  C97  1  0.13863640  0.23231459  0.57156109  1  0  -0.350497  0  3.691006  0  0  -0.434747  0  3.943012  0  0  -0.437494  0  3.952425  0  0  -0.247092  -0.433288  0  3.935639  0
C  C98  1  0.24563525  0.60538319  0.45081454  1  0  0.055689  0  3.649781  0  0  -0.009191  0  3.922117  0  0  -0.004466  0  3.934053  0  0  -0.07265  -0.012416  0  3.913513  0
C  C99  1  0.75436741  0.39461638  0.54918429  1  0  0.05566  0  3.649838  0  0  -0.009278  0  3.922304  0  0  -0.004551  0  3.934237  0  0  -0.072727  -0.012512  0  3.913715  0
C  C100  1  0.79648566  0.52723225  0.54421485  1  0  -0.193617  0  3.636785  0  0  -0.233882  0  3.89062  0  0  -0.236695  0  3.904832  0  0  -0.160359  -0.23192  0  3.881682  0
C  C101  1  0.20351578  0.47276537  0.45578416  1  0  -0.193568  0  3.636661  0  0  -0.233795  0  3.890414  0  0  -0.236613  0  3.904641  0  0  -0.160332  -0.231835  0  3.881475  0
C  C102  1  0.58607325  0.49538878  0.23729303  1  0  0.541  0  3.948971  0  0  0.49653  0  4.257965  0  0  0.527285  0  4.245118  0  0  0.185605  0.475288  0  4.266718  0
C  C103  1  0.41392818  0.50460886  0.76270920  1  0  0.540941  0  3.948953  0  0  0.49657  0  4.257806  0  0  0.527326  0  4.244951  0  0  0.185613  0.475335  0  4.266544  0
C  C104  1  0.68483860  0.45433450  0.14366313  1  0  0.555334  0  3.945624  0  0  0.509969  0  4.252416  0  0  0.540404  0  4.240637  0  0  0.188624  0.489069  0  4.260201  0
C  C105  1  0.31516283  0.54566314  0.85633909  1  0  0.555456  0  3.945437  0  0  0.510027  0  4.252288  0  0  0.54046  0  4.240511  0  0  0.188634  0.489136  0  4.260068  0
C  C106  1  0.95738363  0.21375940  0.13054692  1  0  0.131562  0  3.568426  0  0  0.11188  0  3.807562  0  0  0.115357  0  3.824169  0  0  0.004902  0.109448  0  3.796308  0
C  C107  1  0.04261501  0.78624018  0.86945365  1  0  0.131716  0  3.56824  0  0  0.112016  0  3.807384  0  0  0.11549  0  3.82399  0  0  0.004947  0.109579  0  3.796139  0
C  C108  1  0.09902030  0.17048579  0.09955169  1  0  -0.174463  0  3.655149  0  0  -0.217363  0  3.908396  0  0  -0.219287  0  3.921994  0  0  -0.169361  -0.215808  0  3.898976  0
C  C109  1  0.90097833  0.82951378  0.90044888  1  0  -0.174529  0  3.655198  0  0  -0.217393  0  3.908395  0  0  -0.219313  0  3.921996  0  0  -0.169378  -0.215831  0  3.89897  0
C  C110  1  0.12696863  0.07251899  0.21496757  1  0  -0.105991  0  3.700859  0  0  -0.146534  0  3.963869  0  0  -0.147505  0  3.979111  0  0  -0.170839  -0.145621  0  3.953219  0
C  C111  1  0.87302900  0.92748059  0.78503404  1  0  -0.106011  0  3.700962  0  0  -0.146574  0  3.963975  0  0  -0.147553  0  3.979222  0  0  -0.170855  -0.145666  0  3.953328  0
C  C112  1  0.10607926  0.12298152  0.31597744  1  0  -0.104405  0  3.698417  0  0  -0.144652  0  3.964897  0  0  -0.145578  0  3.979719  0  0  -0.168661  -0.14386  0  3.954628  0
C  C113  1  0.89392060  0.87702001  0.68402295  1  0  -0.104434  0  3.698432  0  0  -0.144649  0  3.964902  0  0  -0.145575  0  3.979727  0  0  -0.168653  -0.143858  0  3.954632  0
C  C114  1  0.96496420  0.16760584  0.34489258  1  0  -0.157244  0  3.684683  0  0  -0.205257  0  3.950229  0  0  -0.206475  0  3.964313  0  0  -0.167442  -0.204245  0  3.940553  0
C  C115  1  0.03503554  0.83239472  0.65510899  1  0  -0.157163  0  3.684643  0  0  -0.205174  0  3.950192  0  0  -0.206394  0  3.964278  0  0  -0.167448  -0.204156  0  3.9405  0
C  C116  1  0.93847276  0.26909834  0.22976454  1  0  0.095501  0  3.567156  0  0  0.078155  0  3.803757  0  0  0.080605  0  3.820584  0  0  0.001007  0.076522  0  3.792245  0
C  C117  1  0.06152688  0.73090123  0.77023580  1  0  0.095353  0  3.567273  0  0  0.078021  0  3.803884  0  0  0.080466  0  3.820712  0  0  0.000982  0.076389  0  3.792375  0
C  C118  1  0.99541333  0.47096624  0.25191743  1  0  0.038657  0  3.653298  0  0  -0.027023  0  3.928621  0  0  -0.02269  0  3.940231  0  0  -0.07494  -0.02986  0  3.920695  0
C  C119  1  0.00458653  0.52903528  0.74808216  1  0  0.038701  0  3.653224  0  0  -0.027018  0  3.928583  0  0  -0.022685  0  3.940194  0  0  -0.074936  -0.029833  0  3.920651  0
C  C120  1  0.95812719  0.28843757  0.91016733  1  0  0.206856  0  3.604233  0  0  0.191534  0  3.849091  0  0  0.19624  0  3.865076  0  0  -0.000573  0.188282  0  3.838186  0
C  C121  1  0.04187234  0.71156102  0.08983178  1  0  0.206878  0  3.604271  0  0  0.191561  0  3.849115  0  0  0.196267  0  3.865102  0  0  -0.000551  0.188312  0  3.838207  0
C  C122  1  0.88977030  0.15844646  0.93043739  1  0  -0.349059  0  3.686611  0  0  -0.435673  0  3.936628  0  0  -0.438641  0  3.947014  0  0  -0.247284  -0.433335  0  3.929566  0
C  C123  1  0.11023035  0.84155309  0.06955950  1  0  -0.348978  0  3.686667  0  0  -0.435572  0  3.936685  0  0  -0.438547  0  3.947068  0  0  -0.247264  -0.433237  0  3.929618  0
C  C124  1  0.08373861  0.60134615  0.19061778  1  0  -0.187505  0  3.631455  0  0  -0.227638  0  3.886163  0  0  -0.229967  0  3.899585  0  0  -0.157036  -0.225899  0  3.876848  0
C  C125  1  0.91626114  0.39865440  0.80938218  1  0  -0.187491  0  3.631414  0  0  -0.227627  0  3.886147  0  0  -0.229956  0  3.89957  0  0  -0.157038  -0.22589  0  3.876829  0
N  N126  1  0.39252224  0.64137399  0.40172784  1  0  -0.441485  0  3.23022  0  0  -0.361806  0  3.472737  0  0  -0.380668  0  3.48239  0  0  -0.493132  -0.349873  0  3.466391  0
N  N127  1  0.60748143  0.35862558  0.59827075  1  0  -0.441354  0  3.229992  0  0  -0.361723  0  3.472588  0  0  -0.380588  0  3.482245  0  0  -0.493096  -0.349788  0  3.466241  0
N  N128  1  0.63140355  0.66816188  0.46246957  1  0  -0.457889  0  3.180151  0  0  -0.390093  0  3.426449  0  0  -0.406839  0  3.435456  0  0  -0.47772  -0.37937  0  3.4198  0
N  N129  1  0.36859609  0.33183770  0.53753157  1  0  -0.45786  0  3.180144  0  0  -0.390096  0  3.426489  0  0  -0.406827  0  3.435466  0  0  -0.477699  -0.379369  0  3.419837  0
N  N130  1  0.02427640  0.39458060  0.17676937  1  0  -0.423642  0  3.236432  0  0  -0.351673  0  3.486512  0  0  -0.368751  0  3.496805  0  0  -0.485714  -0.339877  0  3.47911  0
N  N131  1  0.97572234  0.60541995  0.82323163  1  0  -0.423724  0  3.236539  0  0  -0.351737  0  3.486613  0  0  -0.368815  0  3.496911  0  0  -0.485697  -0.339931  0  3.479179  0
N  N132  1  0.92507547  0.31223394  0.02344697  1  0  -0.477854  0  3.161414  0  0  -0.405996  0  3.403934  0  0  -0.424683  0  3.412046  0  0  -0.483831  -0.392999  0  3.398149  0
N  N133  1  0.07492428  0.68776660  0.97655219  1  0  -0.477901  0  3.161435  0  0  -0.406037  0  3.403957  0  0  -0.424723  0  3.412068  0  0  -0.483855  -0.393045  0  3.398186  0
O  O134  1  0.61859429  0.46704550  0.33675858  1  0  -0.656157  0  2.024674  0  0  -0.602677  0  2.29227  0  0  -0.62776  0  2.27966  0  0  -0.342389  -0.585072  0  2.300227  0
O  O135  1  0.38140725  0.53295310  0.66324247  1  0  -0.656116  0  2.024718  0  0  -0.602641  0  2.292246  0  0  -0.627729  0  2.279638  0  0  -0.342353  -0.58504  0  2.300197  0
O  O136  1  0.48665018  0.55388715  0.21244601  1  0  -0.605862  0  1.919125  0  0  -0.569561  0  2.130062  0  0  -0.589567  0  2.118728  0  0  -0.34679  -0.555544  0  2.137323  0
O  O137  1  0.51335215  0.44610952  0.78755636  1  0  -0.605875  0  1.919081  0  0  -0.56961  0  2.12997  0  0  -0.589613  0  2.118631  0  0  -0.346801  -0.555598  0  2.137226  0
O  O138  1  0.65929947  0.34661641  0.14061785  1  0  -0.607295  0  1.892052  0  0  -0.57265  0  2.095081  0  0  -0.592344  0  2.08361  0  0  -0.356441  -0.558887  0  2.10259  0
O  O139  1  0.34070107  0.65338219  0.85938342  1  0  -0.607353  0  1.89194  0  0  -0.572698  0  2.094998  0  0  -0.59239  0  2.083528  0  0  -0.356476  -0.558939  0  2.10251  0
O  O140  1  0.79149801  0.53553543  0.07907172  1  0  -0.650339  0  2.030718  0  0  -0.593143  0  2.288803  0  0  -0.618432  0  2.277051  0  0  -0.340708  -0.575401  0  2.296236  0
O  O141  1  0.20850152  0.46446318  0.92093060  1  0  -0.650394  0  2.030647  0  0  -0.593187  0  2.288757  0  0  -0.618484  0  2.277026  0  0  -0.340707  -0.575449  0  2.296193  0
