# generated using pymatgen
data_Cd3H8C8N6(ClO2)2
_symmetry_space_group_name_H-M   'P 1'
_cell_length_a   6.76754434
_cell_length_b   8.19771803
_cell_length_c   14.23600985
_cell_angle_alpha   89.99993610
_cell_angle_beta   89.99992692
_cell_angle_gamma   110.18131845
_symmetry_Int_Tables_number   1
_chemical_formula_structural   Cd3H8C8N6(ClO2)2
_chemical_formula_sum   'Cd6 H16 C16 N12 Cl4 O8'
_cell_volume   741.30253996
_cell_formula_units_Z   2
loop_
 _symmetry_equiv_pos_site_id
 _symmetry_equiv_pos_as_xyz
  1  'x, y, z'
loop_
 _atom_site_type_symbol
 _atom_site_label
 _atom_site_symmetry_multiplicity
 _atom_site_fract_x
 _atom_site_fract_y
 _atom_site_fract_z
 _atom_site_occupancy
 _atom_site_hle17_bader_spin_density
 _atom_site_hle17_ddec_charge
 _atom_site_hle17_ddec_spin_density
 _atom_site_hle17_ddec_sum_bond_order
 _atom_site_hle17_magmom
 _atom_site_hse06_10hf_bader_spin_density
 _atom_site_hse06_10hf_ddec_charge
 _atom_site_hse06_10hf_ddec_spin_density
 _atom_site_hse06_10hf_ddec_sum_bond_order
 _atom_site_hse06_10hf_magmom
 _atom_site_hse06_bader_spin_density
 _atom_site_hse06_ddec_charge
 _atom_site_hse06_ddec_spin_density
 _atom_site_hse06_ddec_sum_bond_order
 _atom_site_hse06_magmom
 _atom_site_pbe_bader_spin_density
 _atom_site_pbe_cm5_charge
 _atom_site_pbe_ddec_charge
 _atom_site_pbe_ddec_spin_density
 _atom_site_pbe_ddec_sum_bond_order
 _atom_site_pbe_magmom
Cd  Cd0  1  0.70188519  0.82837593  0.71848596  1  0  1.101778  0  1.748579  0  0  0.91169  0  2.206497  0  0  0.965879  0  2.157781  0  0  0.739404  0.873192  0  2.239738  0
Cd  Cd1  1  0.29811541  0.67162504  0.21848507  1  0  1.101785  0  1.748559  0  0  0.911679  0  2.206493  0  0  0.965876  0  2.157762  0  0  0.739396  0.873181  0  2.239735  0
Cd  Cd2  1  0.29811482  0.17162431  0.28151554  1  0  1.101782  0  1.748588  0  0  0.911697  0  2.206489  0  0  0.965878  0  2.157793  0  0  0.739401  0.873202  0  2.23973  0
Cd  Cd3  1  0.70188460  0.32837520  0.78151431  1  0  1.101796  0  1.748542  0  0  0.911707  0  2.206444  0  0  0.965892  0  2.15774  0  0  0.739409  0.87321  0  2.239684  0
Cd  Cd4  1  0.49999955  0.50000078  0.49999934  1  0  1.054732  0  1.824695  0  0  0.86932  0  2.28958  0  0  0.920034  0  2.244455  0  0  0.695416  0.833318  0  2.320336  0
Cd  Cd5  1  0.50000137  0.99999957  0.00000023  1  0  1.054729  0  1.824702  0  0  0.869323  0  2.289579  0  0  0.920036  0  2.244453  0  0  0.695416  0.833319  0  2.320337  0
H  H6  1  0.62765718  0.17004891  0.44964822  1  0  0.103693  0  0.978662  0  0  0.109109  0  1.050737  0  0  0.111621  0  1.05045  0  0  0.092851  0.107347  0  1.050971  0
H  H7  1  0.37234600  0.32995006  0.94964931  1  0  0.103698  0  0.97866  0  0  0.109115  0  1.050726  0  0  0.111627  0  1.050436  0  0  0.092859  0.107354  0  1.050961  0
H  H8  1  0.37234486  0.82995263  0.55035117  1  0  0.103714  0  0.978657  0  0  0.109123  0  1.050736  0  0  0.111635  0  1.050449  0  0  0.092864  0.107361  0  1.05097  0
H  H9  1  0.62765494  0.67004888  0.05035149  1  0  0.103709  0  0.978668  0  0  0.109113  0  1.050753  0  0  0.111626  0  1.050467  0  0  0.092854  0.107351  0  1.050987  0
H  H10  1  0.73407555  0.01858237  0.49949296  1  0  0.106872  0  0.96224  0  0  0.115711  0  1.031146  0  0  0.118423  0  1.029914  0  0  0.084989  0.113722  0  1.032153  0
H  H11  1  0.26592595  0.48141646  0.99949472  1  0  0.106898  0  0.962218  0  0  0.11573  0  1.031115  0  0  0.118435  0  1.029888  0  0  0.085012  0.113741  0  1.032123  0
H  H12  1  0.26592354  0.98141919  0.50050643  1  0  0.106853  0  0.962251  0  0  0.115688  0  1.031151  0  0  0.118403  0  1.029918  0  0  0.084987  0.1137  0  1.032158  0
H  H13  1  0.73407701  0.51858377  0.00050818  1  0  0.106862  0  0.962258  0  0  0.115694  0  1.031166  0  0  0.1184  0  1.029941  0  0  0.084983  0.113704  0  1.032174  0
H  H14  1  0.19632442  0.66617092  0.82349803  1  0  0.093152  0  0.937621  0  0  0.103595  0  1.001863  0  0  0.105122  0  0.999828  0  0  0.130944  0.102377  0  1.003399  0
H  H15  1  0.80366950  0.83383237  0.32350025  1  0  0.093114  0  0.937655  0  0  0.103582  0  1.001861  0  0  0.105102  0  0.999834  0  0  0.13095  0.102359  0  1.003414  0
H  H16  1  0.80367559  0.33382932  0.17650065  1  0  0.09313  0  0.937708  0  0  0.103572  0  1.001935  0  0  0.105103  0  0.999896  0  0  0.130946  0.102349  0  1.003489  0
H  H17  1  0.19632719  0.16617050  0.67650125  1  0  0.09312  0  0.9377  0  0  0.103551  0  1.001939  0  0  0.105079  0  0.999903  0  0  0.13095  0.102334  0  1.003475  0
H  H18  1  0.99863653  0.64226283  0.41817776  1  0  0.087193  0  0.968174  0  0  0.099669  0  1.030359  0  0  0.100862  0  1.028546  0  0  0.122469  0.098688  0  1.031742  0
H  H19  1  0.00135794  0.85773887  0.91818046  1  0  0.087074  0  0.968217  0  0  0.099543  0  1.030426  0  0  0.100734  0  1.028617  0  0  0.122434  0.098562  0  1.031807  0
H  H20  1  0.00135998  0.35773613  0.58182092  1  0  0.087127  0  0.968195  0  0  0.099595  0  1.030405  0  0  0.100786  0  1.028596  0  0  0.122444  0.098617  0  1.031787  0
H  H21  1  0.99864502  0.14226136  0.08181893  1  0  0.087106  0  0.96819  0  0  0.099568  0  1.030419  0  0  0.100758  0  1.02861  0  0  0.122432  0.098588  0  1.031798  0
C  C22  1  0.60746770  0.07310021  0.50502473  1  0  -0.257952  0  3.669365  0  0  -0.292068  0  3.91111  0  0  -0.298258  0  3.918239  0  0  -0.175782  -0.287756  0  3.906221  0
C  C23  1  0.39253466  0.42689754  0.00502714  1  0  -0.257913  0  3.669408  0  0  -0.292081  0  3.911174  0  0  -0.298251  0  3.9183  0  0  -0.175794  -0.28777  0  3.906291  0
C  C24  1  0.39253176  0.92689873  0.49497396  1  0  -0.257919  0  3.669411  0  0  -0.292044  0  3.911193  0  0  -0.298237  0  3.918327  0  0  -0.175791  -0.287734  0  3.906305  0
C  C25  1  0.60746922  0.57310138  0.99497506  1  0  -0.257937  0  3.669437  0  0  -0.29202  0  3.911113  0  0  -0.29821  0  3.918251  0  0  -0.175772  -0.287708  0  3.906224  0
C  C26  1  0.19228781  0.60785515  0.75479411  1  0  0.228312  0  3.691264  0  0  0.171053  0  3.961402  0  0  0.185827  0  3.975567  0  0  0.139659  0.16136  0  3.951605  0
C  C27  1  0.80771173  0.89214702  0.25479488  1  0  0.228386  0  3.691183  0  0  0.171112  0  3.961336  0  0  0.185891  0  3.975503  0  0  0.139647  0.161418  0  3.951538  0
C  C28  1  0.80771128  0.39214640  0.24520317  1  0  0.228316  0  3.691245  0  0  0.171087  0  3.961363  0  0  0.185856  0  3.975528  0  0  0.13964  0.161391  0  3.951567  0
C  C29  1  0.19228792  0.10785583  0.74520380  1  0  0.228403  0  3.691125  0  0  0.171197  0  3.961216  0  0  0.185969  0  3.97538  0  0  0.139689  0.161503  0  3.951418  0
C  C30  1  0.90711387  0.54935093  0.36688606  1  0  0.208918  0  3.749283  0  0  0.149295  0  4.02314  0  0  0.163351  0  4.03845  0  0  0.131447  0.140064  0  4.012554  0
C  C31  1  0.09288246  0.95065483  0.86688724  1  0  0.209155  0  3.749342  0  0  0.149532  0  4.02319  0  0  0.16359  0  4.0385  0  0  0.131549  0.1403  0  4.012603  0
C  C32  1  0.09288430  0.45065194  0.63311403  1  0  0.209026  0  3.749279  0  0  0.149404  0  4.023119  0  0  0.163462  0  4.038428  0  0  0.131491  0.140168  0  4.012537  0
C  C33  1  0.90711553  0.04934413  0.13311426  1  0  0.209084  0  3.749382  0  0  0.149455  0  4.023225  0  0  0.163514  0  4.038532  0  0  0.13152  0.140225  0  4.012638  0
C  C34  1  0.62413582  0.16121898  0.59930392  1  0  0.724165  0  3.779907  0  0  0.678819  0  4.066042  0  0  0.713577  0  4.05913  0  0  0.212885  0.655129  0  4.069907  0
C  C35  1  0.37586580  0.33878109  0.09930710  1  0  0.724032  0  3.78004  0  0  0.678811  0  4.065965  0  0  0.713547  0  4.059074  0  0  0.212793  0.655114  0  4.069849  0
C  C36  1  0.37586420  0.83878127  0.40069476  1  0  0.724098  0  3.779894  0  0  0.67877  0  4.065999  0  0  0.713518  0  4.059102  0  0  0.212832  0.65508  0  4.069865  0
C  C37  1  0.62413458  0.66121655  0.90069510  1  0  0.724057  0  3.779938  0  0  0.678767  0  4.065996  0  0  0.713519  0  4.059093  0  0  0.212831  0.655078  0  4.06986  0
N  N38  1  0.97681631  0.51760239  0.28226192  1  0  -0.436955  0  3.22215  0  0  -0.354709  0  3.508055  0  0  -0.380263  0  3.523392  0  0  -0.361382  -0.337285  0  3.497103  0
N  N39  1  0.02318165  0.98239971  0.78226452  1  0  -0.437069  0  3.222185  0  0  -0.354833  0  3.508084  0  0  -0.380386  0  3.523416  0  0  -0.36145  -0.33741  0  3.497132  0
N  N40  1  0.02318223  0.48239786  0.71773677  1  0  -0.436987  0  3.222173  0  0  -0.354729  0  3.50808  0  0  -0.380282  0  3.52341  0  0  -0.3614  -0.337308  0  3.497128  0
N  N41  1  0.97681744  0.01760184  0.21773627  1  0  -0.437014  0  3.222183  0  0  -0.35476  0  3.508104  0  0  -0.380314  0  3.523435  0  0  -0.361398  -0.337338  0  3.497153  0
N  N42  1  0.70713558  0.45156558  0.38159322  1  0  -0.305644  0  3.224107  0  0  -0.233203  0  3.497415  0  0  -0.252354  0  3.518738  0  0  -0.263732  -0.220107  0  3.482606  0
N  N43  1  0.29286050  0.04843364  0.88159594  1  0  -0.305743  0  3.224159  0  0  -0.233297  0  3.497463  0  0  -0.252449  0  3.518783  0  0  -0.263784  -0.220203  0  3.482657  0
N  N44  1  0.29286093  0.54843338  0.61840476  1  0  -0.305725  0  3.224156  0  0  -0.233283  0  3.497461  0  0  -0.252436  0  3.51878  0  0  -0.263783  -0.22019  0  3.482656  0
N  N45  1  0.70714302  0.95156789  0.11840485  1  0  -0.305713  0  3.224209  0  0  -0.233252  0  3.497496  0  0  -0.252404  0  3.518815  0  0  -0.26378  -0.220158  0  3.48269  0
N  N46  1  0.35699694  0.65111420  0.69660640  1  0  -0.298693  0  3.189383  0  0  -0.228296  0  3.464686  0  0  -0.246928  0  3.483919  0  0  -0.260266  -0.215615  0  3.451329  0
N  N47  1  0.64300375  0.84888684  0.19660729  1  0  -0.298742  0  3.189308  0  0  -0.228359  0  3.464633  0  0  -0.246993  0  3.483864  0  0  -0.260275  -0.215677  0  3.451279  0
N  N48  1  0.64300197  0.34888344  0.30339159  1  0  -0.298696  0  3.189314  0  0  -0.228319  0  3.464635  0  0  -0.246951  0  3.483869  0  0  -0.260276  -0.215637  0  3.45128  0
N  N49  1  0.35699737  0.15111600  0.80339350  1  0  -0.29871  0  3.189328  0  0  -0.228338  0  3.464631  0  0  -0.246971  0  3.483864  0  0  -0.260277  -0.215656  0  3.451275  0
Cl  Cl50  1  0.83716724  0.74715221  0.56371505  1  0  -0.553182  0  0.967072  0  0  -0.483397  0  1.255966  0  0  -0.502634  0  1.232198  0  0  -0.283974  -0.469762  0  1.272222  0
Cl  Cl51  1  0.16283250  0.75284925  0.06371419  1  0  -0.553187  0  0.967095  0  0  -0.483399  0  1.255984  0  0  -0.502635  0  1.232212  0  0  -0.283979  -0.469762  0  1.27224  0
Cl  Cl52  1  0.16283130  0.25284804  0.43628504  1  0  -0.553182  0  0.967088  0  0  -0.483398  0  1.255986  0  0  -0.502634  0  1.23222  0  0  -0.283975  -0.469763  0  1.272242  0
Cl  Cl53  1  0.83716751  0.24715100  0.93628520  1  0  -0.553199  0  0.967091  0  0  -0.483405  0  1.255973  0  0  -0.502639  0  1.232203  0  0  -0.283977  -0.469768  0  1.272228  0
O  O54  1  0.68457003  0.09564535  0.67110284  1  0  -0.674655  0  2.06498  0  0  -0.595854  0  2.336334  0  0  -0.628259  0  2.324145  0  0  -0.334785  -0.572952  0  2.343605  0
O  O55  1  0.31542927  0.40435320  0.17110460  1  0  -0.67464  0  2.065122  0  0  -0.595866  0  2.336395  0  0  -0.628267  0  2.324227  0  0  -0.334745  -0.572961  0  2.343674  0
O  O56  1  0.31542795  0.90435360  0.32889655  1  0  -0.674633  0  2.065051  0  0  -0.595834  0  2.336393  0  0  -0.628232  0  2.324203  0  0  -0.33477  -0.572939  0  2.34368  0
O  O57  1  0.68457166  0.59564573  0.82889760  1  0  -0.674605  0  2.065098  0  0  -0.595828  0  2.336422  0  0  -0.628233  0  2.324247  0  0  -0.334754  -0.572926  0  2.343696  0
O  O58  1  0.41741777  0.69939191  0.39155319  1  0  -0.654309  0  2.010884  0  0  -0.586024  0  2.274677  0  0  -0.615927  0  2.263658  0  0  -0.322361  -0.565001  0  2.281499  0
O  O59  1  0.58258307  0.80060722  0.89155206  1  0  -0.65426  0  2.010848  0  0  -0.586011  0  2.274635  0  0  -0.615912  0  2.263613  0  0  -0.322376  -0.564993  0  2.281458  0
O  O60  1  0.58258409  0.30060571  0.60844690  1  0  -0.654336  0  2.011031  0  0  -0.586035  0  2.274811  0  0  -0.615939  0  2.263787  0  0  -0.322401  -0.565017  0  2.281634  0
O  O61  1  0.41741381  0.19938913  0.10844944  1  0  -0.654269  0  2.010958  0  0  -0.586036  0  2.274705  0  0  -0.615934  0  2.263692  0  0  -0.322355  -0.565011  0  2.281532  0
