# generated using pymatgen
data_ZnH18C20N2O5
_symmetry_space_group_name_H-M   'P 1'
_cell_length_a   8.17860826
_cell_length_b   11.36514784
_cell_length_c   11.29103522
_cell_angle_alpha   66.68511584
_cell_angle_beta   85.89763661
_cell_angle_gamma   68.05230049
_symmetry_Int_Tables_number   1
_chemical_formula_structural   ZnH18C20N2O5
_chemical_formula_sum   'Zn2 H36 C40 N4 O10'
_cell_volume   890.36021287
_cell_formula_units_Z   2
loop_
 _symmetry_equiv_pos_site_id
 _symmetry_equiv_pos_as_xyz
  1  'x, y, z'
loop_
 _atom_site_type_symbol
 _atom_site_label
 _atom_site_symmetry_multiplicity
 _atom_site_fract_x
 _atom_site_fract_y
 _atom_site_fract_z
 _atom_site_occupancy
 _atom_site_hle17_bader_spin_density
 _atom_site_hle17_ddec_charge
 _atom_site_hle17_ddec_spin_density
 _atom_site_hle17_ddec_sum_bond_order
 _atom_site_hle17_magmom
 _atom_site_hse06_10hf_bader_spin_density
 _atom_site_hse06_10hf_ddec_charge
 _atom_site_hse06_10hf_ddec_spin_density
 _atom_site_hse06_10hf_ddec_sum_bond_order
 _atom_site_hse06_10hf_magmom
 _atom_site_hse06_bader_spin_density
 _atom_site_hse06_ddec_charge
 _atom_site_hse06_ddec_spin_density
 _atom_site_hse06_ddec_sum_bond_order
 _atom_site_hse06_magmom
 _atom_site_pbe_bader_spin_density
 _atom_site_pbe_cm5_charge
 _atom_site_pbe_ddec_charge
 _atom_site_pbe_ddec_spin_density
 _atom_site_pbe_ddec_sum_bond_order
 _atom_site_pbe_magmom
Zn  Zn0  1  0.59920196  0.81568842  0.74740932  1  0  1.009113  0  1.803164  0  0  0.826187  0  2.243078  0  0  0.875892  0  2.190555  0  0  0.670795  0.791966  0  2.278666  0
Zn  Zn1  1  0.40079982  0.18431077  0.25259154  1  0  1.009154  0  1.803142  0  0  0.826231  0  2.243071  0  0  0.875932  0  2.190552  0  0  0.670804  0.792011  0  2.27867  0
H  H2  1  0.86075061  0.45327984  0.96998463  1  0  0.121705  0  0.934201  0  0  0.135637  0  0.995567  0  0  0.137996  0  0.99517  0  0  0.103246  0.13396  0  0.995943  0
H  H3  1  0.13925512  0.54672143  0.03001258  1  0  0.121683  0  0.934179  0  0  0.135589  0  0.995562  0  0  0.137947  0  0.995166  0  0  0.103219  0.133914  0  0.995932  0
H  H4  1  0.82512714  0.29547581  0.02953663  1  0  0.107365  0  0.957769  0  0  0.117318  0  1.027722  0  0  0.120008  0  1.026274  0  0  0.095824  0.115325  0  1.028936  0
H  H5  1  0.17487782  0.70452441  0.97046368  1  0  0.10737  0  0.957914  0  0  0.117284  0  1.027852  0  0  0.11999  0  1.026387  0  0  0.095826  0.115292  0  1.029067  0
H  H6  1  0.07560034  0.49351944  0.80324418  1  0  0.097286  0  0.960748  0  0  0.108451  0  1.02225  0  0  0.111274  0  1.02125  0  0  0.098674  0.106361  0  1.023155  0
H  H7  1  0.92439904  0.50647983  0.19675055  1  0  0.097222  0  0.96082  0  0  0.1084  0  1.022308  0  0  0.111224  0  1.021308  0  0  0.098666  0.10631  0  1.023211  0
H  H8  1  0.19065428  0.45077632  0.60917450  1  0  0.07368  0  0.962851  0  0  0.088249  0  1.019436  0  0  0.090677  0  1.018747  0  0  0.092197  0.086598  0  1.019878  0
H  H9  1  0.80934414  0.54921986  0.39082058  1  0  0.073671  0  0.962802  0  0  0.088259  0  1.019366  0  0  0.090685  0  1.018683  0  0  0.092179  0.086608  0  1.019806  0
H  H10  1  0.18248233  0.24868463  0.57646770  1  0  0.091797  0  0.996566  0  0  0.101961  0  1.062967  0  0  0.105117  0  1.061015  0  0  0.094443  0.099677  0  1.064496  0
H  H11  1  0.81751362  0.75131152  0.42353015  1  0  0.091809  0  0.996501  0  0  0.102  0  1.062876  0  0  0.105158  0  1.060921  0  0  0.09444  0.099718  0  1.0644  0
H  H12  1  0.95810228  0.12515866  0.93983368  1  0  0.090526  0  0.967388  0  0  0.102291  0  1.033016  0  0  0.105155  0  1.031924  0  0  0.095791  0.100274  0  1.033845  0
H  H13  1  0.04189778  0.87484157  0.06016684  1  0  0.090531  0  0.967339  0  0  0.102296  0  1.03297  0  0  0.105158  0  1.031878  0  0  0.095786  0.100278  0  1.0338  0
H  H14  1  0.99645138  0.08158092  0.64538965  1  0  0.113786  0  0.917204  0  0  0.130436  0  0.969869  0  0  0.132837  0  0.968613  0  0  0.102289  0.128674  0  0.970888  0
H  H15  1  0.00354601  0.91841209  0.35461290  1  0  0.113775  0  0.917152  0  0  0.130442  0  0.969809  0  0  0.132839  0  0.968556  0  0  0.102297  0.128677  0  0.970827  0
H  H16  1  0.00572371  0.99127393  0.81573780  1  0  0.113206  0  0.935598  0  0  0.125736  0  0.999134  0  0  0.127833  0  0.998783  0  0  0.100642  0.124181  0  0.999538  0
H  H17  1  0.99427586  0.00872216  0.18426523  1  0  0.113172  0  0.935633  0  0  0.125731  0  0.999137  0  0  0.127807  0  0.998812  0  0  0.100616  0.124176  0  0.999538  0
H  H18  1  0.74689897  0.63825766  0.60002378  1  0  0.087835  0  0.977137  0  0  0.096515  0  1.039278  0  0  0.098776  0  1.037408  0  0  0.11683  0.094838  0  1.040675  0
H  H19  1  0.25310111  0.36174259  0.39997497  1  0  0.087865  0  0.977091  0  0  0.096509  0  1.039272  0  0  0.098769  0  1.037405  0  0  0.116833  0.094832  0  1.040664  0
H  H20  1  0.75586025  0.41770939  0.59616561  1  0  0.10375  0  0.961549  0  0  0.113734  0  1.023486  0  0  0.116667  0  1.023033  0  0  0.108426  0.111708  0  1.023834  0
H  H21  1  0.24413663  0.58228982  0.40383457  1  0  0.103738  0  0.961622  0  0  0.113722  0  1.023558  0  0  0.116656  0  1.023102  0  0  0.108416  0.111698  0  1.023898  0
H  H22  1  0.40216426  0.39537416  0.90089724  1  0  0.125109  0  0.942247  0  0  0.133369  0  1.004346  0  0  0.137068  0  1.002915  0  0  0.11431  0.130818  0  1.005389  0
H  H23  1  0.59783600  0.60462810  0.09910604  1  0  0.125133  0  0.942241  0  0  0.133393  0  1.004361  0  0  0.137091  0  1.00293  0  0  0.114326  0.130848  0  1.00539  0
H  H24  1  0.40242830  0.62131336  0.88567548  1  0  0.081335  0  0.968393  0  0  0.087338  0  1.038037  0  0  0.089576  0  1.036466  0  0  0.117479  0.085722  0  1.039233  0
H  H25  1  0.59757444  0.37868892  0.11432502  1  0  0.081349  0  0.968397  0  0  0.087376  0  1.038013  0  0  0.089615  0  1.036439  0  0  0.11749  0.08576  0  1.03921  0
H  H26  1  0.58728668  0.10050272  0.54552701  1  0  0.091688  0  0.953124  0  0  0.099686  0  1.017343  0  0  0.10233  0  1.014942  0  0  0.120307  0.097805  0  1.019025  0
H  H27  1  0.41270721  0.89949749  0.45447734  1  0  0.091684  0  0.953141  0  0  0.099693  0  1.017331  0  0  0.102337  0  1.014931  0  0  0.120317  0.097812  0  1.019008  0
H  H28  1  0.57776881  0.32327472  0.54006970  1  0  0.098858  0  0.967432  0  0  0.109175  0  1.02802  0  0  0.111907  0  1.028279  0  0  0.103794  0.107364  0  1.027783  0
H  H29  1  0.42222337  0.67672655  0.45993254  1  0  0.098946  0  0.967231  0  0  0.109234  0  1.027862  0  0  0.111966  0  1.028122  0  0  0.103825  0.107422  0  1.027621  0
H  H30  1  0.60769871  0.14739696  0.95890542  1  0  0.126503  0  0.971489  0  0  0.131585  0  1.039228  0  0  0.135919  0  1.036581  0  0  0.109289  0.128499  0  1.041256  0
H  H31  1  0.39230796  0.85260219  0.04109789  1  0  0.126528  0  0.971523  0  0  0.131636  0  1.039231  0  0  0.135976  0  1.036573  0  0  0.109305  0.128549  0  1.041249  0
H  H32  1  0.62397651  0.92875309  0.94640098  1  0  0.079623  0  0.952032  0  0  0.087228  0  1.018916  0  0  0.089219  0  1.018014  0  0  0.117713  0.085818  0  1.019464  0
H  H33  1  0.37603016  0.07124606  0.05360233  1  0  0.079651  0  0.951986  0  0  0.087244  0  1.018902  0  0  0.089267  0  1.017933  0  0  0.117732  0.08584  0  1.019448  0
H  H34  1  0.74502430  0.90881389  0.51436832  1  0  0.426685  0  0.878265  0  0  0.394167  0  0.944459  0  0  0.405977  0  0.927367  0  0  0.287103  0.385771  0  0.956591  0
H  H35  1  0.25497380  0.09118532  0.48563180  1  0  0.426664  0  0.878295  0  0  0.394176  0  0.944435  0  0  0.405983  0  0.927348  0  0  0.287118  0.385785  0  0.956569  0
H  H36  1  0.87586855  0.80497271  0.65267943  1  0  0.416671  0  0.895692  0  0  0.384142  0  0.961007  0  0  0.396936  0  0.94264  0  0  0.281215  0.375193  0  0.973815  0
H  H37  1  0.12413075  0.19503165  0.34731953  1  0  0.416664  0  0.895689  0  0  0.384114  0  0.961034  0  0  0.396909  0  0.942665  0  0  0.281214  0.37517  0  0.973833  0
C  C38  1  0.05183594  0.28736582  0.11848411  1  0  0.706027  0  3.832086  0  0  0.65856  0  4.135978  0  0  0.691701  0  4.129241  0  0  0.208329  0.63613  0  4.140076  0
C  C39  1  0.94817176  0.71263650  0.88151173  1  0  0.706032  0  3.831935  0  0  0.658583  0  4.135783  0  0  0.691724  0  4.12905  0  0  0.208335  0.636153  0  4.139883  0
C  C40  1  0.92635908  0.34052005  0.99870114  1  0  -0.322829  0  3.690641  0  0  -0.364664  0  3.929833  0  0  -0.371162  0  3.937243  0  0  -0.166935  -0.36025  0  3.924895  0
C  C41  1  0.07364836  0.65948019  0.00129640  1  0  -0.322806  0  3.690682  0  0  -0.364593  0  3.929888  0  0  -0.371105  0  3.937297  0  0  -0.166915  -0.360183  0  3.92495  0
C  C42  1  0.00998267  0.31132477  0.88533919  1  0  0.13357  0  3.76977  0  0  0.154908  0  4.003447  0  0  0.156608  0  4.027312  0  0  -0.012991  0.153823  0  3.987195  0
C  C43  1  0.99001866  0.68867551  0.11465595  1  0  0.133564  0  3.769753  0  0  0.15486  0  4.003444  0  0  0.156561  0  4.027305  0  0  -0.013022  0.153775  0  3.987191  0
C  C44  1  0.07737737  0.40206484  0.79202474  1  0  -0.130915  0  3.740123  0  0  -0.154859  0  3.991225  0  0  -0.157615  0  4.011338  0  0  -0.098629  -0.152954  0  3.977613  0
C  C45  1  0.92262029  0.59793547  0.20796878  1  0  -0.130873  0  3.74022  0  0  -0.154819  0  3.991336  0  0  -0.157572  0  4.011443  0  0  -0.098665  -0.152914  0  3.977724  0
C  C46  1  0.14055320  0.37851202  0.68218246  1  0  -0.0652  0  3.823242  0  0  -0.076199  0  4.076418  0  0  -0.077602  0  4.098935  0  0  -0.097912  -0.075168  0  4.060988  0
C  C47  1  0.85944273  0.62148932  0.31781162  1  0  -0.065266  0  3.823297  0  0  -0.076271  0  4.076473  0  0  -0.077677  0  4.098992  0  0  -0.097902  -0.07524  0  4.061046  0
C  C48  1  0.13724499  0.26493971  0.66392809  1  0  -0.147287  0  3.751292  0  0  -0.170952  0  4.001545  0  0  -0.174576  0  4.023552  0  0  -0.107763  -0.168498  0  3.986757  0
C  C49  1  0.86275070  0.73505956  0.33606769  1  0  -0.147293  0  3.751276  0  0  -0.170989  0  4.001521  0  0  -0.174613  0  4.02353  0  0  -0.107766  -0.168541  0  3.986737  0
C  C50  1  0.07441873  0.17078984  0.75773153  1  0  0.123005  0  3.752648  0  0  0.144385  0  3.990822  0  0  0.145375  0  4.015448  0  0  -0.012386  0.143734  0  3.974127  0
C  C51  1  0.92557644  0.82921043  0.24226654  1  0  0.123167  0  3.752607  0  0  0.144567  0  3.990761  0  0  0.145558  0  4.015379  0  0  -0.012301  0.143912  0  3.97407  0
C  C52  1  0.01262180  0.19512190  0.86796589  1  0  -0.190079  0  3.70987  0  0  -0.215835  0  3.952323  0  0  -0.220421  0  3.974406  0  0  -0.10019  -0.212711  0  3.937342  0
C  C53  1  0.98737460  0.80487837  0.13203213  1  0  -0.190128  0  3.709803  0  0  -0.215876  0  3.952262  0  0  -0.220459  0  3.974341  0  0  -0.100194  -0.212752  0  3.937284  0
C  C54  1  0.07069007  0.04724222  0.73807933  1  0  -0.303915  0  3.684464  0  0  -0.347504  0  3.926481  0  0  -0.353016  0  3.933055  0  0  -0.161306  -0.34377  0  3.922067  0
C  C55  1  0.92930879  0.95275286  0.26192236  1  0  -0.303887  0  3.684482  0  0  -0.347534  0  3.926565  0  0  -0.353031  0  3.933136  0  0  -0.161268  -0.34379  0  3.922139  0
C  C56  1  0.25794811  0.94907899  0.73754749  1  0  0.71194  0  3.810516  0  0  0.663372  0  4.110253  0  0  0.697195  0  4.102585  0  0  0.209907  0.640444  0  4.115002  0
C  C57  1  0.74205171  0.05091917  0.26245385  1  0  0.711884  0  3.810648  0  0  0.663305  0  4.110408  0  0  0.69714  0  4.102719  0  0  0.209878  0.640379  0  4.115154  0
C  C58  1  0.66970043  0.58209176  0.66215565  1  0  0.127783  0  3.709823  0  0  0.097291  0  3.95974  0  0  0.103985  0  3.978479  0  0  0.046081  0.092887  0  3.946882  0
C  C59  1  0.33029891  0.41790745  0.33784442  1  0  0.127807  0  3.709819  0  0  0.097358  0  3.959722  0  0  0.10405  0  3.978458  0  0  0.046109  0.092954  0  3.946868  0
C  C60  1  0.67208403  0.46039613  0.66015733  1  0  -0.163899  0  3.739782  0  0  -0.183515  0  3.989868  0  0  -0.191332  0  4.011525  0  0  -0.080793  -0.178284  0  3.975128  0
C  C61  1  0.32791257  0.53960616  0.33984344  1  0  -0.163951  0  3.739784  0  0  -0.183567  0  3.989863  0  0  -0.191383  0  4.01152  0  0  -0.080805  -0.178337  0  3.975124  0
C  C62  1  0.57836881  0.38808999  0.74760834  1  0  0.096824  0  3.760318  0  0  0.108669  0  3.988561  0  0  0.112915  0  4.009761  0  0  0.016952  0.106031  0  3.97399  0
C  C63  1  0.42163001  0.61191022  0.25239403  1  0  0.096998  0  3.760291  0  0  0.108826  0  3.988537  0  0  0.113073  0  4.009735  0  0  0.017028  0.106188  0  3.973966  0
C  C64  1  0.47997340  0.44579129  0.83182791  1  0  -0.148572  0  3.656415  0  0  -0.165157  0  3.901574  0  0  -0.172799  0  3.921587  0  0  -0.073165  -0.160243  0  3.887996  0
C  C65  1  0.52002564  0.55421098  0.16817453  1  0  -0.148639  0  3.656545  0  0  -0.16524  0  3.901699  0  0  -0.172881  0  3.921712  0  0  -0.073207  -0.160327  0  3.888123  0
C  C66  1  0.48010816  0.57085717  0.82467844  1  0  0.143463  0  3.678221  0  0  0.110812  0  3.929296  0  0  0.118538  0  3.946452  0  0  0.054751  0.105878  0  3.917454  0
C  C67  1  0.51989262  0.42914407  0.17532343  1  0  0.143358  0  3.678247  0  0  0.110701  0  3.929315  0  0  0.118425  0  3.94647  0  0  0.054724  0.10577  0  3.917471  0
C  C68  1  0.59233910  0.11438695  0.63514773  1  0  0.135773  0  3.692465  0  0  0.104234  0  3.945664  0  0  0.111311  0  3.963284  0  0  0.050454  0.099732  0  3.93348  0
C  C69  1  0.40766019  0.88561221  0.36485679  1  0  0.135814  0  3.692242  0  0  0.104305  0  3.945411  0  0  0.111382  0  3.963029  0  0  0.050488  0.099818  0  3.933219  0
C  C70  1  0.58739245  0.23869501  0.63277460  1  0  -0.156288  0  3.711081  0  0  -0.173837  0  3.958461  0  0  -0.181494  0  3.979402  0  0  -0.080072  -0.168843  0  3.944173  0
C  C71  1  0.41260515  0.76130522  0.36722692  1  0  -0.156383  0  3.710921  0  0  -0.173934  0  3.958324  0  0  -0.181592  0  3.979265  0  0  -0.080141  -0.168946  0  3.944035  0
C  C72  1  0.58743071  0.25562415  0.74913912  1  0  0.098111  0  3.769554  0  0  0.109836  0  3.998359  0  0  0.113527  0  4.020299  0  0  0.015733  0.10765  0  3.983286  0
C  C73  1  0.41257104  0.74437501  0.25086440  1  0  0.098125  0  3.769454  0  0  0.109875  0  3.99823  0  0  0.113566  0  4.020169  0  0  0.015754  0.10769  0  3.983155  0
C  C74  1  0.59954915  0.14258850  0.86489244  1  0  -0.157779  0  3.667925  0  0  -0.175477  0  3.916612  0  0  -0.183052  0  3.936231  0  0  -0.077889  -0.170472  0  3.903286  0
C  C75  1  0.40045531  0.85741273  0.13510928  1  0  -0.157833  0  3.667775  0  0  -0.175544  0  3.916422  0  0  -0.183121  0  3.936038  0  0  -0.077903  -0.170529  0  3.903086  0
C  C76  1  0.60908303  0.02039231  0.85865705  1  0  0.135962  0  3.691448  0  0  0.104535  0  3.943115  0  0  0.111532  0  3.961768  0  0  0.049743  0.099968  0  3.930252  0
C  C77  1  0.39092288  0.97960578  0.14134936  1  0  0.13589  0  3.691648  0  0  0.104461  0  3.943307  0  0  0.111455  0  3.961974  0  0  0.049672  0.099879  0  3.930458  0
N  N78  1  0.57469018  0.63761631  0.74254076  1  0  -0.316926  0  3.254606  0  0  -0.236243  0  3.517411  0  0  -0.254766  0  3.533151  0  0  -0.320584  -0.223375  0  3.506133  0
N  N79  1  0.42531110  0.36238391  0.25745971  1  0  -0.316919  0  3.254719  0  0  -0.236255  0  3.51752  0  0  -0.254772  0  3.533255  0  0  -0.320604  -0.223388  0  3.506244  0
N  N80  1  0.60300178  0.00641451  0.74635366  1  0  -0.324616  0  3.285899  0  0  -0.246849  0  3.544512  0  0  -0.265868  0  3.563508  0  0  -0.319125  -0.233703  0  3.531112  0
N  N81  1  0.39699900  0.99358674  0.25364733  1  0  -0.324622  0  3.286026  0  0  -0.246897  0  3.544669  0  0  -0.265917  0  3.563667  0  0  -0.319126  -0.233757  0  3.531285  0
O  O82  1  0.99245211  0.24445033  0.22724676  1  0  -0.62357  0  1.923376  0  0  -0.568723  0  2.134386  0  0  -0.593318  0  2.125018  0  0  -0.324093  -0.551784  0  2.140491  0
O  O83  1  0.00754790  0.75556023  0.77274977  1  0  -0.623596  0  1.923392  0  0  -0.568748  0  2.134363  0  0  -0.593342  0  2.125  0  0  -0.324098  -0.551809  0  2.140471  0
O  O84  1  0.20598977  0.29354013  0.09997527  1  0  -0.663553  0  2.017592  0  0  -0.595153  0  2.283428  0  0  -0.623601  0  2.271162  0  0  -0.332482  -0.575904  0  2.291446  0
O  O85  1  0.79401796  0.70645704  0.90002078  1  0  -0.663477  0  2.017441  0  0  -0.595111  0  2.283311  0  0  -0.623556  0  2.271049  0  0  -0.332448  -0.575861  0  2.291327  0
O  O86  1  0.32538633  0.96012058  0.62948518  1  0  -0.663063  0  1.996168  0  0  -0.594895  0  2.231111  0  0  -0.623273  0  2.220123  0  0  -0.317583  -0.575557  0  2.238446  0
O  O87  1  0.67461249  0.03987964  0.37051630  1  0  -0.663058  0  1.996167  0  0  -0.594872  0  2.231135  0  0  -0.623253  0  2.220138  0  0  -0.317578  -0.575531  0  2.238467  0
O  O88  1  0.34910205  0.86288347  0.84460615  1  0  -0.638736  0  1.949761  0  0  -0.574794  0  2.193135  0  0  -0.601723  0  2.182539  0  0  -0.31649  -0.556386  0  2.200103  0
O  O89  1  0.65089776  0.13711469  0.15539608  1  0  -0.638708  0  1.949865  0  0  -0.574758  0  2.19324  0  0  -0.60169  0  2.182638  0  0  -0.31648  -0.556354  0  2.20022  0
O  O90  1  0.76833235  0.82455558  0.59674822  1  0  -0.851787  0  1.935215  0  0  -0.785171  0  2.145285  0  0  -0.808272  0  2.107785  0  0  -0.58195  -0.768954  0  2.17108  0
O  O91  1  0.23166844  0.17544568  0.40325187  1  0  -0.851774  0  1.935253  0  0  -0.78514  0  2.145316  0  0  -0.808238  0  2.107821  0  0  -0.581952  -0.768931  0  2.171083  0
