# generated using pymatgen
data_Zn2H56C79N4O13
_symmetry_space_group_name_H-M   'P 1'
_cell_length_a   12.59450239
_cell_length_b   13.49465152
_cell_length_c   27.97858415
_cell_angle_alpha   89.04228238
_cell_angle_beta   74.80591401
_cell_angle_gamma   79.33521626
_symmetry_Int_Tables_number   1
_chemical_formula_structural   Zn2H56C79N4O13
_chemical_formula_sum   'Zn2 H56 C79 N4 O13'
_cell_volume   4507.17060214
_cell_formula_units_Z   1
loop_
 _symmetry_equiv_pos_site_id
 _symmetry_equiv_pos_as_xyz
  1  'x, y, z'
loop_
 _atom_site_type_symbol
 _atom_site_label
 _atom_site_symmetry_multiplicity
 _atom_site_fract_x
 _atom_site_fract_y
 _atom_site_fract_z
 _atom_site_occupancy
 _atom_site_pbe_bader_charge
 _atom_site_pbe_bader_spin_density
 _atom_site_pbe_cm5_charge
 _atom_site_pbe_ddec_charge
 _atom_site_pbe_ddec_spin_density
 _atom_site_pbe_ddec_sum_bond_order
 _atom_site_pbe_magmom
Zn  Zn0  1  0.61488848  0.50402658  0.48561987  1  1.288295  0  0.668765  0.820835  0  2.448457  0
Zn  Zn1  1  0.38600541  0.49118716  0.51119923  1  1.289482  0  0.670803  0.81698  0  2.418419  0
H  H2  1  0.32008934  0.50959423  0.67447783  1  0.094558  0  0.101419  0.106116  0  1.03252  0
H  H3  1  0.57721305  0.71099579  0.86269902  1  0.13292  0  0.114004  0.120492  0  0.997729  0
H  H4  1  0.47694053  0.73177428  0.03112820  1  0.074877  0  0.108333  0.107494  0  1.013217  0
H  H5  1  0.68626594  0.52455420  0.32684020  1  0.103049  0  0.102634  0.107854  0  1.029392  0
H  H6  1  0.46131652  0.73109273  0.12150776  1  0.092698  0  0.114971  0.121522  0  0.981912  0
H  H7  1  0.29715929  0.13303654  0.61639199  1  0.049163  0  0.096174  0.094727  0  1.001764  0
H  H8  1  0.23207721  0.97058624  0.62299738  1  0.023717  0  0.096549  0.097224  0  1.00948  0
H  H9  1  0.55939969  0.81940108  0.48796435  1  0.073138  0  0.099419  0.099642  0  1.03776  0
H  H10  1  0.74654775  0.19756164  0.43151469  1  0.090595  0  0.107699  0.115471  0  0.994376  0
H  H11  1  0.67491169  0.89980492  0.46115628  1  0.060742  0  0.0974  0.093241  0  1.024574  0
H  H12  1  0.80160079  0.01015772  0.41696191  1  0.055904  0  0.09926  0.094987  0  0.996265  0
H  H13  1  0.42124862  0.24300431  0.56998878  1  0.070769  0  0.099134  0.107567  0  1.038888  0
H  H14  1  0.72265456  0.65753130  0.43583424  1  0.120095  0  0.129092  0.109092  0  0.977316  0
H  H15  1  0.10199807  0.69115253  0.42556040  1  0.087475  0  0.11751  0.121182  0  0.969722  0
H  H16  1  0.90770949  0.71555076  0.41655296  1  0.0974  0  0.118448  0.125668  0  0.976838  0
H  H17  1  0.27067546  0.36861281  0.58157367  1  0.166375  0  0.128194  0.099981  0  0.996055  0
H  H18  1  0.50422684  0.23175246  0.88070892  1  0.124217  0  0.114888  0.120352  0  0.982216  0
H  H19  1  0.92835339  0.39946326  0.57576129  1  0.065396  0  0.116537  0.113355  0  0.993407  0
H  H20  1  0.07883705  0.32716122  0.61520813  1  0.071744  0  0.11753  0.120676  0  0.977175  0
H  H21  1  0.25019853  0.59949613  0.46183980  1  0.147116  0  0.120553  0.13933  0  1.011343  0
H  H22  1  0.34767668  0.47747926  0.36387011  1  0.089965  0  0.103961  0.108186  0  1.005682  0
H  H23  1  0.35684288  0.46643102  0.27301525  1  0.066836  0  0.106554  0.113621  0  0.981772  0
H  H24  1  0.59262354  0.22301848  0.02474411  1  0.062344  0  0.101322  0.101568  0  1.047728  0
H  H25  1  0.52740882  0.22778418  0.96622388  1  0.06995  0  0.105525  0.106377  0  1.004091  0
H  H26  1  0.67780103  0.44856046  0.62754833  1  0.094429  0  0.099245  0.101351  0  1.021235  0
H  H27  1  0.78829644  0.55764130  0.66906115  1  0.045865  0  0.084343  0.111094  0  1.009018  0
H  H28  1  0.72379571  0.60100980  0.73111901  1  0.062541  0  0.087233  0.127328  0  1.013889  0
H  H29  1  0.85902940  0.52180544  0.71580063  1  0.021297  0  0.081704  0.106234  0  1.01054  0
H  H30  1  0.71530840  0.41935571  0.75582430  1  0.023797  0  0.089259  0.079567  0  0.997274  0
H  H31  1  0.77589125  0.37892834  0.69358391  1  0.054166  0  0.092101  0.085586  0  0.972655  0
H  H32  1  0.80904694  0.59710964  0.26564900  1  0.02936  0  0.0876  0.113695  0  1.000897  0
H  H33  1  0.85170568  0.46403073  0.26511065  1  0.029576  0  0.089354  0.117067  0  0.998208  0
H  H34  1  0.90037570  0.53211692  0.21147002  1  0.025593  0  0.085681  0.11045  0  1.00412  0
H  H35  1  0.75110093  0.44659130  0.19902870  1  0.03726  0  0.093123  0.087847  0  0.975342  0
H  H36  1  0.70737089  0.57832285  0.20067373  1  0.014625  0  0.093994  0.089997  0  0.975977  0
H  H37  1  0.78760427  0.69929444  0.90474835  1  0.024925  0  0.08966  0.118166  0  0.995052  0
H  H38  1  0.70035893  0.78839385  0.87758277  1  0.046535  0  0.090673  0.117797  0  1.009329  0
H  H39  1  0.74818299  0.82679486  0.92715847  1  0.021679  0  0.090509  0.118255  0  0.99532  0
H  H40  1  0.54887857  0.80667588  0.95896700  1  0.032481  0  0.096337  0.091613  0  0.965628  0
H  H41  1  0.63936267  0.72333239  0.98610794  1  0.062842  0  0.093895  0.091204  0  1.003084  0
H  H42  1  0.08765681  0.86549006  0.57856458  1  0.027252  0  0.081242  0.105646  0  1.01006  0
H  H43  1  0.16039857  0.75609915  0.54088501  1  0.032347  0  0.08028  0.113466  0  1.035937  0
H  H44  1  0.06600373  0.74361810  0.59945500  1  0.003336  0  0.079588  0.104329  0  1.006908  0
H  H45  1  0.26398025  0.69825769  0.60490712  1  0.052457  0  0.092536  0.099653  0  0.994523  0
H  H46  1  0.19266655  0.80734223  0.64237403  1  -0.001955  0  0.086061  0.075886  0  0.9855  0
H  H47  1  0.18287578  0.60456070  0.73775696  1  0.026262  0  0.089  0.116863  0  0.999292  0
H  H48  1  0.17687383  0.47407527  0.73927453  1  0.02876  0  0.086637  0.111711  0  1.003515  0
H  H49  1  0.11453852  0.55220323  0.79344856  1  0.034012  0  0.085089  0.109272  0  1.005995  0
H  H50  1  0.29553142  0.44926929  0.80018148  1  0.035516  0  0.093617  0.09161  0  0.977682  0
H  H51  1  0.30022466  0.57877441  0.79960232  1  0.038381  0  0.093765  0.089784  0  0.973071  0
H  H52  1  0.74663778  0.37498523  0.52839616  1  0.14429  0  0.116003  0.077831  0  1.02474  0
H  H53  1  0.56492096  0.08935787  0.06925056  1  0.015171  0  0.082761  0.104499  0  1.00979  0
H  H54  1  0.70881010  0.09952334  0.05024689  1  -0.000328  0  0.08494  0.108124  0  1.007548  0
H  H55  1  0.65850612  0.03053339  0.10310620  1  0.05608  0  0.093394  0.123931  0  0.991843  0
H  H56  1  0.68447076  0.19335963  0.13217623  1  0.072693  0  0.10471  0.113838  0  0.961424  0
H  H57  1  0.54486030  0.18526817  0.14998002  1  0.066669  0  0.105398  0.11543  0  0.956777  0
C  C58  1  0.56404553  0.30269304  0.48963768  1  1.520233  0  0.217343  0.598623  0  4.149731  0
C  C59  1  0.40161815  0.49544438  0.73422449  1  0.028609  0  -0.001453  0.063154  0  3.933515  0
C  C60  1  0.50718786  0.47719913  0.74426626  1  0.271974  0  0.0884  0.080018  0  3.947004  0
C  C61  1  0.53246028  0.47531993  0.89357403  1  -0.007367  0  -1.4e-05  0.03108  0  4.022082  0
C  C62  1  0.51803183  0.38673663  0.87163963  1  0.00041  0  -0.012277  -0.069512  0  4.002224  0
C  C63  1  0.51566553  0.29899711  0.89833291  1  -0.037809  0  -0.072823  -0.074436  0  3.981342  0
C  C64  1  0.53963989  0.56403533  0.86616357  1  -0.042394  0  -0.015493  -0.076298  0  4.036185  0
C  C65  1  0.49837792  0.47873192  0.64651786  1  -0.049138  0  -0.019851  -0.022225  0  4.008573  0
C  C66  1  0.51679383  0.50277490  0.34999741  1  -0.064063  0  -0.017424  -0.02791  0  3.978936  0
C  C67  1  0.55711887  0.38365011  0.01971519  1  -0.004094  0  0.001219  0.047734  0  4.012463  0
C  C68  1  0.53240617  0.57057501  0.01973364  1  -0.048102  0  0.003007  0.048345  0  3.978178  0
C  C69  1  0.49444764  0.48181118  0.59346111  1  1.570086  0  0.214085  0.595073  0  4.161557  0
C  C70  1  0.54442740  0.47765213  0.04485259  1  -0.010889  0  0.000392  -0.007287  0  3.937457  0
C  C71  1  0.57881454  0.29484640  0.04458940  1  -0.01059  0  -0.086611  -0.184354  0  3.933166  0
C  C72  1  0.58462436  0.29237422  0.09415803  1  -0.060663  0  0.015324  0.138761  0  3.891401  0
C  C73  1  0.56158510  0.38531434  0.12080880  1  0.016124  0  -0.012883  -0.137451  0  3.931999  0
C  C74  1  0.53991531  0.47760427  0.09644559  1  -0.036609  0  0.003315  0.041267  0  4.003663  0
C  C75  1  0.51184159  0.57169682  0.12298369  1  -0.006184  0  -0.014736  -0.074036  0  4.004741  0
C  C76  1  0.50416918  0.57758528  0.17637161  1  1.335074  0  0.237349  0.432775  0  4.133209  0
C  C77  1  0.56062865  0.38926602  0.17383280  1  1.317567  0  0.239359  0.434693  0  4.100084  0
C  C78  1  0.42858561  0.47925013  0.28534642  1  -0.005321  0  -0.086296  -0.149181  0  4.003253  0
C  C79  1  0.42321212  0.48578463  0.33555459  1  0.018125  0  -0.085775  -0.08567  0  3.983409  0
C  C80  1  0.43558048  0.68948879  0.51994216  1  1.557855  0  0.216064  0.600518  0  4.156673  0
C  C81  1  0.61512679  0.51206337  0.31403571  1  -0.045722  0  -0.082261  -0.13722  0  3.927381  0
C  C82  1  0.62256180  0.50526079  0.26347480  1  0.015811  0  -0.001281  0.056797  0  3.912687  0
C  C83  1  0.52685901  0.48921178  0.25018152  1  0.318517  0  0.089953  0.141201  0  3.988968  0
C  C84  1  0.54197094  0.38429727  0.96964448  1  0.00775  0  0.003822  0.038841  0  3.9696  0
C  C85  1  0.54055366  0.47628186  0.94346874  1  0.03043  0  0.003491  0.005214  0  3.931283  0
C  C86  1  0.54980721  0.56811105  0.96591759  1  -0.01612  0  0.005321  -0.016821  0  3.920575  0
C  C87  1  0.52882174  0.29785035  0.94637743  1  -0.064734  0  -0.083685  -0.122782  0  3.97404  0
C  C88  1  0.56493985  0.64680064  0.88635894  1  -0.032683  0  -0.069047  -0.120424  0  3.928701  0
C  C89  1  0.49828708  0.66070554  0.04832240  1  -0.05732  0  -0.084369  -0.130409  0  3.990399  0
C  C90  1  0.48761984  0.66094676  0.09924283  1  0.049336  0  -0.072926  -0.072389  0  3.980709  0
C  C91  1  0.51348464  0.50896487  0.40382041  1  1.581982  0  0.21507  0.595068  0  4.162658  0
C  C92  1  0.57417062  0.65015678  0.93540801  1  -0.017313  0  0.002497  0.080461  0  3.881797  0
C  C93  1  0.30323757  0.93761180  0.59241717  1  -0.085351  0  -0.095566  -0.204111  0  3.963371  0
C  C94  1  0.40956045  0.79664235  0.53880612  1  -0.033872  0  -0.017283  -0.084027  0  3.941623  0
C  C95  1  0.69430602  0.14737566  0.45256857  1  0.038635  0  -0.084122  -0.089124  0  3.987941  0
C  C96  1  0.72374086  0.04258901  0.44407409  1  -0.044707  0  -0.099275  -0.095618  0  4.077356  0
C  C97  1  0.65261795  0.98089630  0.46916219  1  -0.125888  0  -0.089293  -0.123281  0  4.00802  0
C  C98  1  0.55259848  0.02093696  0.50520599  1  0.028715  0  -0.001404  0.034201  0  3.95034  0
C  C99  1  0.52655508  0.12684894  0.51674707  1  0.00871  0  0.000238  0.066241  0  3.944005  0
C  C100  1  0.47487292  0.95772171  0.53035435  1  0.030256  0  -0.006749  0.027359  0  3.976224  0
C  C101  1  0.37976588  0.99946534  0.56940298  1  -0.049099  0  -0.009107  0.087857  0  4.041265  0
C  C102  1  0.50651860  0.38619466  0.82040084  1  1.324907  0  0.238633  0.429057  0  4.11665  0
C  C103  1  0.36550789  0.10300083  0.58417267  1  -0.033865  0  -0.095405  -0.139142  0  4.032207  0
C  C104  1  0.43435644  0.16415855  0.55861472  1  -0.058358  0  -0.093063  -0.126692  0  4.011526  0
C  C105  1  0.48756043  0.85571627  0.51699078  1  -0.034943  0  -0.086098  -0.134962  0  3.98056  0
C  C106  1  0.31396494  0.83751245  0.57773875  1  0.063515  0  -0.000121  0.116958  0  3.922514  0
C  C107  1  0.59610075  0.19001223  0.48745942  1  -0.018366  0  -0.013913  -0.076074  0  3.91857  0
C  C108  1  0.89331816  0.65146864  0.44007181  1  0.027279  0  -0.070564  -0.165151  0  3.950074  0
C  C109  1  0.20187288  0.39936090  0.56558063  1  0.482754  0  0.073562  0.128191  0  3.904889  0
C  C110  1  0.09509258  0.37582438  0.58371727  1  0.003839  0  -0.075278  -0.127548  0  3.985229  0
C  C111  1  0.01208304  0.41541327  0.56112508  1  0.024076  0  -0.053738  -0.052823  0  3.942929  0
C  C112  1  0.03575355  0.47733467  0.51997852  1  -0.020542  0  0.010151  0.008189  0  3.946883  0
C  C113  1  0.52630750  0.56764531  0.81522960  1  1.326158  0  0.242213  0.436978  0  4.105358  0
C  C114  1  0.14330632  0.50487438  0.50676386  1  0.506154  0  0.129695  0.209423  0  3.941595  0
C  C115  1  0.95549243  0.51976995  0.49285384  1  0.015842  0  0.012187  -0.026677  0  3.90302  0
C  C116  1  0.97805905  0.60159506  0.46119220  1  -0.036049  0  0.014716  0.109765  0  4.016311  0
C  C117  1  0.08559933  0.62991006  0.45077945  1  -0.027593  0  -0.073366  -0.114772  0  3.956489  0
C  C118  1  0.16704254  0.58053366  0.47107194  1  -0.025393  0  -0.062531  -0.118324  0  3.91337  0
C  C119  1  0.85490545  0.48438377  0.49505695  1  0.519542  0  0.132115  0.13869  0  3.87506  0
C  C120  1  0.79228633  0.61941136  0.44967195  1  0.444065  0  0.052439  0.095875  0  3.93645  0
C  C121  1  0.60814277  0.45948249  0.70696572  1  0.011651  0  -0.001979  0.064912  0  3.934904  0
C  C122  1  0.60152797  0.46096859  0.65788030  1  -0.044617  0  -0.085802  -0.144265  0  3.954318  0
C  C123  1  0.39909628  0.49557374  0.68467977  1  2.9e-05  0  -0.087595  -0.150083  0  3.94942  0
C  C124  1  0.72165912  0.44251230  0.71748869  1  -0.010314  0  -0.1583  -0.130242  0  3.977044  0
C  C125  1  0.77655193  0.53620800  0.70792677  1  -0.108029  0  -0.246609  -0.356516  0  3.955298  0
C  C126  1  0.72767846  0.51431277  0.22381324  1  -0.000248  0  -0.156765  -0.128307  0  3.979497  0
C  C127  1  0.82756684  0.52760294  0.24267145  1  -0.064586  0  -0.242616  -0.351475  0  3.987618  0
C  C128  1  0.61639438  0.73937669  0.95118963  1  -0.035967  0  -0.158473  -0.147814  0  3.978973  0
C  C129  1  0.71856071  0.76477772  0.91276591  1  -0.060294  0  -0.239669  -0.350307  0  3.963047  0
C  C130  1  0.22603617  0.77809716  0.60376065  1  0.024137  0  -0.16298  -0.14552  0  3.973632  0
C  C131  1  0.12914154  0.78642946  0.57916961  1  -0.049214  0  -0.247225  -0.345003  0  3.9672  0
C  C132  1  0.29592621  0.51519449  0.77632670  1  -0.014335  0  -0.157197  -0.131931  0  3.981059  0
C  C133  1  0.18667381  0.53775773  0.76071580  1  -0.073814  0  -0.242966  -0.349192  0  3.988361  0
C  C134  1  0.83503372  0.38028093  0.51120037  1  0.941063  0  0.106336  0.235469  0  3.90766  0
C  C135  1  0.61292463  0.19153603  0.11676036  1  -0.006363  0  -0.156594  -0.152029  0  3.965044  0
C  C136  1  0.63739147  0.09825170  0.08266651  1  -0.0597  0  -0.243612  -0.351514  0  3.99825  0
N  N137  1  0.51205229  0.47734557  0.79536659  1  -1.164718  0  -0.233902  -0.217764  0  3.631457  0
N  N138  1  0.52915155  0.48510914  0.19827090  1  -1.192259  0  -0.234765  -0.22361  0  3.621496  0
N  N139  1  0.77500134  0.53555960  0.47565990  1  -1.239653  0  -0.30612  -0.220485  0  3.482391  0
N  N140  1  0.22451837  0.46332432  0.52914568  1  -1.208088  0  -0.310681  -0.234738  0  3.461933  0
O  O141  1  0.64231989  0.35223147  0.47263887  1  -1.164792  0  -0.317949  -0.550123  0  2.347146  0
O  O142  1  0.58591239  0.31462453  0.19741708  1  -1.101445  0  -0.271111  -0.437504  0  2.112711  0
O  O143  1  0.52810372  0.64414475  0.79059416  1  -1.10892  0  -0.278534  -0.442269  0  2.078216  0
O  O144  1  0.47876784  0.65765397  0.20080324  1  -1.107442  0  -0.290102  -0.452417  0  2.061367  0
O  O145  1  0.46096672  0.34195210  0.50652019  1  -1.166918  0  -0.311527  -0.545682  0  2.378361  0
O  O146  1  0.58786899  0.47598792  0.56094450  1  -1.182806  0  -0.319641  -0.565305  0  2.372469  0
O  O147  1  0.39905190  0.49091111  0.58452076  1  -1.166851  0  -0.315908  -0.552309  0  2.31773  0
O  O148  1  0.53928600  0.64980052  0.50605999  1  -1.169304  0  -0.320567  -0.558162  0  2.368463  0
O  O149  1  0.35513796  0.64531003  0.51865184  1  -1.163283  0  -0.30917  -0.536839  0  2.346573  0
O  O150  1  0.60037648  0.52707162  0.41465256  1  -1.168553  0  -0.321117  -0.547743  0  2.316934  0
O  O151  1  0.42385413  0.49455324  0.43486024  1  -1.184368  0  -0.315963  -0.555971  0  2.351388  0
O  O152  1  0.49290929  0.31128383  0.79987082  1  -1.100848  0  -0.282347  -0.442267  0  2.061142  0
O  O153  1  0.91094930  0.30670526  0.50295943  1  -1.059076  0  -0.250836  -0.327335  0  2.109898  0
