# generated using pymatgen
data_Zn4H24C54O13
_symmetry_space_group_name_H-M   'P 1'
_cell_length_a   24.42261247
_cell_length_b   24.42261344
_cell_length_c   24.42262621
_cell_angle_alpha   59.99990698
_cell_angle_beta   59.99991233
_cell_angle_gamma   59.99989360
_symmetry_Int_Tables_number   1
_chemical_formula_structural   Zn4H24C54O13
_chemical_formula_sum   'Zn8 H48 C108 O26'
_cell_volume   10300.55620749
_cell_formula_units_Z   2
loop_
 _symmetry_equiv_pos_site_id
 _symmetry_equiv_pos_as_xyz
  1  'x, y, z'
loop_
 _atom_site_type_symbol
 _atom_site_label
 _atom_site_symmetry_multiplicity
 _atom_site_fract_x
 _atom_site_fract_y
 _atom_site_fract_z
 _atom_site_occupancy
 _atom_site_pbe_bader_charge
 _atom_site_pbe_bader_spin_density
 _atom_site_pbe_cm5_charge
 _atom_site_pbe_ddec_charge
 _atom_site_pbe_ddec_spin_density
 _atom_site_pbe_ddec_sum_bond_order
 _atom_site_pbe_magmom
Zn  Zn0  1  0.34839712  0.21720042  0.21720030  1  1.306978  0  0.670618  0.961604  0  2.382276  0
Zn  Zn1  1  0.21720023  0.34839766  0.21720046  1  1.307004  0  0.670604  0.961585  0  2.382252  0
Zn  Zn2  1  0.21720053  0.21720048  0.34839730  1  1.307004  0  0.670635  0.961647  0  2.382189  0
Zn  Zn3  1  0.21720237  0.21720233  0.21720211  1  1.313133  0  0.67063  0.961591  0  2.382356  0
Zn  Zn4  1  0.78279969  0.65160290  0.78279937  1  1.306955  0  0.67063  0.96162  0  2.382234  0
Zn  Zn5  1  0.65160303  0.78279955  0.78279936  1  1.306973  0  0.670603  0.961561  0  2.382262  0
Zn  Zn6  1  0.78279956  0.78279943  0.65160300  1  1.306998  0  0.670652  0.961691  0  2.382179  0
Zn  Zn7  1  0.78279779  0.78279765  0.78279756  1  1.313167  0  0.670618  0.961573  0  2.382386  0
H  H8  1  0.31387240  0.48951806  0.09830468  1  0.082107  0  0.106597  0.114905  0  1.000803  0
H  H9  1  0.32460597  0.60379191  0.03580118  1  0.035107  0  0.104148  0.106007  0  0.990813  0
H  H10  1  0.48951810  0.31387236  0.09830469  1  0.082106  0  0.106599  0.114916  0  1.00079  0
H  H11  1  0.60379195  0.32460593  0.03580119  1  0.035057  0  0.104147  0.105998  0  0.990818  0
H  H12  1  0.09830503  0.09830499  0.31387192  1  0.096694  0  0.106607  0.114966  0  1.000719  0
H  H13  1  0.03580124  0.03580120  0.32460587  1  0.071019  0  0.104152  0.105999  0  0.990857  0
H  H14  1  0.09830470  0.09830464  0.48951773  1  0.074541  0  0.106615  0.11495  0  1.000722  0
H  H15  1  0.03580084  0.03580077  0.60379126  1  0.05859  0  0.104146  0.105995  0  0.990848  0
H  H16  1  0.09830488  0.48951830  0.31387240  1  0.082079  0  0.106622  0.114957  0  1.000722  0
H  H17  1  0.03580085  0.60379171  0.32460641  1  0.072001  0  0.104148  0.105996  0  0.99082  0
H  H18  1  0.09830508  0.31387280  0.48951766  1  0.082063  0  0.106599  0.114942  0  1.000797  0
H  H19  1  0.03580163  0.32460568  0.60379159  1  0.035112  0  0.10415  0.106012  0  0.990804  0
H  H20  1  0.48951764  0.09830495  0.09830510  1  0.074525  0  0.10663  0.114987  0  1.00069  0
H  H21  1  0.60379149  0.03580055  0.03580150  1  0.058705  0  0.104158  0.10601  0  0.990805  0
H  H22  1  0.31387207  0.09830508  0.09830484  1  0.096698  0  0.106605  0.114925  0  1.000785  0
H  H23  1  0.32460595  0.03580181  0.03580063  1  0.071018  0  0.104158  0.10602  0  0.990836  0
H  H24  1  0.09830498  0.48951761  0.09830508  1  0.074526  0  0.106634  0.114964  0  1.000694  0
H  H25  1  0.03580075  0.60379164  0.03580163  1  0.058698  0  0.104163  0.106018  0  0.990813  0
H  H26  1  0.09830511  0.31387205  0.09830483  1  0.096696  0  0.1066  0.11493  0  1.000782  0
H  H27  1  0.03580142  0.32460634  0.03580062  1  0.071027  0  0.104168  0.10602  0  0.990806  0
H  H28  1  0.31387205  0.09830502  0.48951797  1  0.082097  0  0.106596  0.114935  0  1.000775  0
H  H29  1  0.32460592  0.03580172  0.60379178  1  0.035097  0  0.104152  0.106017  0  0.9908  0
H  H30  1  0.48951819  0.09830466  0.31387225  1  0.104454  0  0.106613  0.114928  0  1.000733  0
H  H31  1  0.60379135  0.03580120  0.32460644  1  0.035129  0  0.104155  0.106013  0  0.990806  0
H  H32  1  0.51048206  0.68612762  0.90169497  1  0.083111  0  0.1066  0.114931  0  1.000779  0
H  H33  1  0.39620831  0.67539414  0.96419928  1  0.072082  0  0.10416  0.10601  0  0.990813  0
H  H34  1  0.68612776  0.51048192  0.90169498  1  0.083107  0  0.106596  0.114924  0  1.000783  0
H  H35  1  0.67539412  0.39620800  0.96419913  1  0.072085  0  0.104164  0.106019  0  0.990805  0
H  H36  1  0.90169537  0.90169523  0.68612727  1  0.096714  0  0.106597  0.114943  0  1.000785  0
H  H37  1  0.96419892  0.96419878  0.67539380  1  0.07103  0  0.104165  0.106002  0  0.990837  0
H  H38  1  0.90169506  0.90169493  0.51048224  1  0.074509  0  0.106625  0.114989  0  1.000706  0
H  H39  1  0.96419899  0.96419887  0.39620807  1  0.058812  0  0.104151  0.106007  0  0.990796  0
H  H40  1  0.51048173  0.90169509  0.68612788  1  0.082078  0  0.106617  0.114944  0  1.000729  0
H  H41  1  0.39620832  0.96419912  0.67539386  1  0.072081  0  0.104167  0.106035  0  0.9908  0
H  H42  1  0.68612746  0.90169513  0.51048216  1  0.104394  0  0.106604  0.114947  0  1.000793  0
H  H43  1  0.67539393  0.96419877  0.39620869  1  0.072087  0  0.104168  0.106024  0  0.990795  0
H  H44  1  0.90169511  0.51048230  0.90169522  1  0.074572  0  0.106632  0.114969  0  1.000701  0
H  H45  1  0.96419958  0.39620851  0.96419820  1  0.058698  0  0.104116  0.105944  0  0.990884  0
H  H46  1  0.90169481  0.68612770  0.90169530  1  0.096708  0  0.106606  0.114955  0  1.000772  0
H  H47  1  0.96419850  0.67539421  0.96419921  1  0.071017  0  0.104161  0.10601  0  0.99083  0
H  H48  1  0.51048204  0.90169537  0.90169520  1  0.074527  0  0.106618  0.114938  0  1.000721  0
H  H49  1  0.39620866  0.96419943  0.96419816  1  0.058697  0  0.104166  0.106033  0  0.990773  0
H  H50  1  0.68612785  0.90169466  0.90169529  1  0.096701  0  0.106601  0.114941  0  1.000778  0
H  H51  1  0.67539373  0.96419851  0.96419967  1  0.071028  0  0.104169  0.106036  0  0.990794  0
H  H52  1  0.90169460  0.68612752  0.51048265  1  0.082129  0  0.106602  0.11493  0  1.000783  0
H  H53  1  0.96419887  0.67539382  0.39620871  1  0.072095  0  0.104171  0.10603  0  0.990792  0
H  H54  1  0.90169480  0.51048201  0.68612791  1  0.082093  0  0.106615  0.114975  0  1.000716  0
H  H55  1  0.96419924  0.39620820  0.67539389  1  0.072092  0  0.104167  0.106032  0  0.9908  0
C  C56  1  0.36840478  0.46792496  0.08183551  1  -0.083133  0  -0.080258  -0.141554  0  3.929734  0
C  C57  1  0.40796723  0.50950030  0.04126691  1  0.013002  0  -0.006278  0.076276  0  4.03859  0
C  C58  1  0.37917376  0.58130802  0.01975961  1  -0.073436  0  -0.089653  -0.132053  0  4.015458  0
C  C59  1  0.46792500  0.36840473  0.08183551  1  -0.083124  0  -0.080273  -0.141586  0  3.929754  0
C  C60  1  0.50949953  0.40796719  0.04126722  1  0.013107  0  -0.006277  0.076275  0  4.038593  0
C  C61  1  0.58130806  0.37917372  0.01975962  1  -0.073372  0  -0.089636  -0.132012  0  4.015427  0
C  C62  1  0.08183573  0.08183569  0.36840420  1  -0.108932  0  -0.080335  -0.141867  0  3.929633  0
C  C63  1  0.04126616  0.04126611  0.40796718  1  0.033352  0  -0.006263  0.076388  0  4.038503  0
C  C64  1  0.01975962  0.01975958  0.37917293  1  0.054655  0  -0.089638  -0.132018  0  4.015466  0
C  C65  1  0.08183539  0.08183534  0.46792447  1  -0.000872  0  -0.080343  -0.141748  0  3.929677  0
C  C66  1  0.04126606  0.04126600  0.50950041  1  -0.023663  0  -0.006293  0.07623  0  4.038598  0
C  C67  1  0.01975946  0.01975940  0.58130753  1  -0.155362  0  -0.089659  -0.13205  0  4.015385  0
C  C68  1  0.08183548  0.46792495  0.36840423  1  -0.083149  0  -0.08028  -0.141662  0  3.92963  0
C  C69  1  0.04126632  0.50950029  0.40796722  1  0.013358  0  -0.006285  0.076263  0  4.038611  0
C  C70  1  0.01975937  0.58130782  0.37917359  1  -0.110279  0  -0.089665  -0.132036  0  4.015422  0
C  C71  1  0.08183590  0.36840432  0.46792441  1  -0.083086  0  -0.080299  -0.14174  0  3.929769  0
C  C72  1  0.04126643  0.40796727  0.50950011  1  0.013079  0  -0.006292  0.076277  0  4.038627  0
C  C73  1  0.01975973  0.37917304  0.58130796  1  0.073845  0  -0.089638  -0.132009  0  4.015382  0
C  C74  1  0.46792456  0.08183582  0.08183494  1  -0.001174  0  -0.080318  -0.141724  0  3.929608  0
C  C75  1  0.50950011  0.04126687  0.04126563  1  -0.023374  0  -0.006282  0.076306  0  4.038598  0
C  C76  1  0.58130780  0.01975926  0.01975951  1  -0.155487  0  -0.089633  -0.132001  0  4.015384  0
C  C77  1  0.36840446  0.08183513  0.08183562  1  -0.109072  0  -0.080246  -0.141588  0  3.929637  0
C  C78  1  0.40796730  0.04126555  0.04126671  1  0.033474  0  -0.006265  0.076338  0  4.03855  0
C  C79  1  0.37917296  0.01975955  0.01975972  1  0.054656  0  -0.089666  -0.132071  0  4.015413  0
C  C80  1  0.08183585  0.46792453  0.08183492  1  -0.001186  0  -0.080272  -0.141569  0  3.929593  0
C  C81  1  0.04126690  0.50950008  0.04126561  1  -0.023373  0  -0.00633  0.076187  0  4.038678  0
C  C82  1  0.01975929  0.58130778  0.01975947  1  -0.155474  0  -0.089665  -0.13206  0  4.0154  0
C  C83  1  0.08183580  0.36840426  0.08183513  1  -0.109075  0  -0.080281  -0.141654  0  3.92965  0
C  C84  1  0.04126622  0.40796711  0.04126621  1  0.033482  0  -0.006261  0.076351  0  4.038515  0
C  C85  1  0.01975980  0.37917318  0.01975923  1  0.054648  0  -0.089613  -0.131994  0  4.015387  0
C  C86  1  0.36840438  0.08183583  0.46792442  1  -0.083212  0  -0.080297  -0.141693  0  3.929763  0
C  C87  1  0.40796692  0.04126676  0.50950013  1  0.013026  0  -0.0063  0.076246  0  4.038662  0
C  C88  1  0.37917312  0.01975965  0.58130798  1  -0.073322  0  -0.089643  -0.132005  0  4.015384  0
C  C89  1  0.46792460  0.08183501  0.36840456  1  -0.065645  0  -0.080263  -0.141593  0  3.929618  0
C  C90  1  0.50950035  0.04126626  0.40796724  1  -0.06319  0  -0.006272  0.076291  0  4.038583  0
C  C91  1  0.58130788  0.01975930  0.37917363  1  -0.073409  0  -0.08967  -0.132071  0  4.015417  0
C  C92  1  0.53207526  0.63159534  0.91816496  1  -0.010274  0  -0.080292  -0.141651  0  3.929708  0
C  C93  1  0.49049985  0.59203282  0.95873419  1  -0.016931  0  -0.006272  0.07629  0  4.038565  0
C  C94  1  0.41869195  0.62082694  0.98024101  1  0.030604  0  -0.08962  -0.131967  0  4.015402  0
C  C95  1  0.63159548  0.53207512  0.91816496  1  -0.010277  0  -0.080288  -0.14164  0  3.92971  0
C  C96  1  0.59203296  0.49049971  0.95873420  1  -0.01694  0  -0.006286  0.076263  0  4.038599  0
C  C97  1  0.62082667  0.41869222  0.98024103  1  0.030602  0  -0.089622  -0.131982  0  4.015412  0
C  C98  1  0.91816442  0.91816429  0.63159546  1  -0.108951  0  -0.08031  -0.141783  0  3.929786  0
C  C99  1  0.95873401  0.95873305  0.59203279  1  0.033584  0  -0.006338  0.076193  0  4.038672  0
C  C100  1  0.98024038  0.98024023  0.62082657  1  0.054666  0  -0.089614  -0.131898  0  4.01533  0
C  C101  1  0.91816437  0.91816424  0.53207550  1  -0.001185  0  -0.080322  -0.141822  0  3.929643  0
C  C102  1  0.95873411  0.95873316  0.49049956  1  -0.023357  0  -0.006285  0.076338  0  4.038572  0
C  C103  1  0.98024053  0.98024041  0.41869196  1  -0.15561  0  -0.08964  -0.13203  0  4.015347  0
C  C104  1  0.53207492  0.91816433  0.63159589  1  -0.083083  0  -0.08028  -0.141624  0  3.929631  0
C  C105  1  0.49049958  0.95873348  0.59203289  1  0.013145  0  -0.006292  0.076243  0  4.038651  0
C  C106  1  0.41869221  0.98024061  0.62082668  1  0.068668  0  -0.089646  -0.13204  0  4.015404  0
C  C107  1  0.63159553  0.91816472  0.53207541  1  -0.065533  0  -0.080291  -0.141696  0  3.929677  0
C  C108  1  0.59203275  0.95873437  0.49049987  1  -0.01691  0  -0.006272  0.0763  0  4.038566  0
C  C109  1  0.62082697  0.98024107  0.41869202  1  0.030604  0  -0.089613  -0.131961  0  4.015358  0
C  C110  1  0.91816407  0.53207521  0.91816522  1  -0.001214  0  -0.080289  -0.141624  0  3.929632  0
C  C111  1  0.95873326  0.49049990  0.95873406  1  -0.023364  0  -0.006317  0.076173  0  4.038673  0
C  C112  1  0.98024063  0.41869196  0.98024066  1  -0.155484  0  -0.089606  -0.131917  0  4.015403  0
C  C113  1  0.91816500  0.63159554  0.91816406  1  -0.10939  0  -0.080297  -0.141733  0  3.929668  0
C  C114  1  0.95873417  0.59203310  0.95873298  1  0.033424  0  -0.00626  0.076371  0  4.038509  0
C  C115  1  0.98024035  0.62082680  0.98024044  1  0.054661  0  -0.089624  -0.131978  0  4.01534  0
C  C116  1  0.53207519  0.91816457  0.91816472  1  -0.001191  0  -0.080266  -0.141597  0  3.929619  0
C  C117  1  0.49050005  0.95873311  0.95873403  1  -0.023367  0  -0.006265  0.076318  0  4.038593  0
C  C118  1  0.41869212  0.98024048  0.98024063  1  -0.155475  0  -0.089637  -0.132034  0  4.015343  0
C  C119  1  0.63159570  0.91816485  0.91816404  1  -0.109444  0  -0.080294  -0.14168  0  3.929661  0
C  C120  1  0.59203285  0.95873443  0.95873295  1  0.033482  0  -0.006284  0.076301  0  4.038583  0
C  C121  1  0.62082656  0.98024060  0.98024042  1  0.054659  0  -0.089638  -0.13203  0  4.015375  0
C  C122  1  0.91816484  0.63159541  0.53207542  1  -0.010756  0  -0.080295  -0.14168  0  3.929699  0
C  C123  1  0.95873448  0.59203264  0.49049989  1  -0.01691  0  -0.006263  0.076333  0  4.038565  0
C  C124  1  0.98024117  0.62082686  0.41869204  1  0.030604  0  -0.08961  -0.131977  0  4.015353  0
C  C125  1  0.91816404  0.53207520  0.63159591  1  -0.083155  0  -0.08035  -0.141805  0  3.929627  0
C  C126  1  0.95873360  0.49049946  0.59203292  1  0.015801  0  -0.006272  0.076354  0  4.038542  0
C  C127  1  0.98024072  0.41869209  0.62082671  1  -0.078528  0  -0.089621  -0.132019  0  4.015426  0
C  C128  1  0.39806259  0.39806255  0.10193779  1  -0.015657  0  -0.021384  -0.035934  0  4.019788  0
C  C129  1  0.35479746  0.35479742  0.14520290  1  1.571066  0  0.228706  0.609497  0  4.157207  0
C  C130  1  0.47943239  0.47943235  0.02056878  1  -0.042584  0  0.00592  0.006276  0  3.899216  0
C  C131  1  0.10193762  0.10193757  0.39806253  1  -0.028449  0  -0.021273  -0.03558  0  4.019688  0
C  C132  1  0.14520235  0.14520230  0.35479772  1  1.555014  0  0.228638  0.609354  0  4.157548  0
C  C133  1  0.02056800  0.02056713  0.47943201  1  -0.037502  0  0.005976  0.006358  0  3.899195  0
C  C134  1  0.10193762  0.39806278  0.39806244  1  -0.015635  0  -0.021308  -0.035711  0  4.019725  0
C  C135  1  0.14520238  0.35479776  0.35479757  1  1.567121  0  0.228682  0.60946  0  4.157372  0
C  C136  1  0.02056765  0.47943240  0.47943232  1  -0.043052  0  0.005911  0.006285  0  3.899359  0
C  C137  1  0.39806225  0.10193782  0.10193724  1  -0.015299  0  -0.021366  -0.035854  0  4.019693  0
C  C138  1  0.35479749  0.14520284  0.14520211  1  1.541904  0  0.228704  0.609474  0  4.15735  0
C  C139  1  0.47943240  0.02056755  0.02056783  1  0.12372  0  0.005898  0.006224  0  3.899383  0
C  C140  1  0.10193744  0.39806263  0.10193722  1  -0.028403  0  -0.021388  -0.035918  0  4.019833  0
C  C141  1  0.14520246  0.35479786  0.14520210  1  1.55502  0  0.228678  0.609482  0  4.157252  0
C  C142  1  0.02056822  0.47943221  0.02056733  1  0.120603  0  0.005939  0.006266  0  3.899334  0
C  C143  1  0.39806267  0.10193739  0.39806229  1  0.016886  0  -0.021358  -0.035816  0  4.019763  0
C  C144  1  0.35479748  0.14520199  0.35479724  1  1.568496  0  0.22869  0.60946  0  4.157405  0
C  C145  1  0.47943206  0.02056798  0.47943235  1  0.067147  0  0.005919  0.006292  0  3.899347  0
C  C146  1  0.60193773  0.60193759  0.89806204  1  -0.011111  0  -0.021319  -0.035857  0  4.019681  0
C  C147  1  0.64520263  0.64520249  0.85479740  1  1.564645  0  0.228741  0.609579  0  4.157236  0
C  C148  1  0.52056773  0.52056759  0.97943297  1  0.054326  0  0.005925  0.006315  0  3.899194  0
C  C149  1  0.89806230  0.89806217  0.60193760  1  -0.028448  0  -0.021238  -0.035526  0  4.019586  0
C  C150  1  0.85479764  0.85479751  0.64520178  1  1.555011  0  0.228643  0.60937  0  4.157526  0
C  C151  1  0.97943264  0.97943169  0.52056732  1  0.123458  0  0.005958  0.006299  0  3.899283  0
C  C152  1  0.60193725  0.89806235  0.60193785  1  0.020542  0  -0.021356  -0.035802  0  4.019681  0
C  C153  1  0.64520227  0.85479758  0.64520272  1  1.56464  0  0.228658  0.609378  0  4.15744  0
C  C154  1  0.52056762  0.97943233  0.52056796  1  -0.047415  0  0.005915  0.00628  0  3.899354  0
C  C155  1  0.89806272  0.60193735  0.89806244  1  -0.028084  0  -0.021342  -0.035814  0  4.019716  0
C  C156  1  0.85479770  0.64520211  0.85479756  1  1.555047  0  0.22869  0.609488  0  4.157379  0
C  C157  1  0.97943251  0.52056753  0.97943250  1  -0.034412  0  0.005964  0.006326  0  3.899294  0
C  C158  1  0.60193750  0.89806257  0.89806242  1  -0.02803  0  -0.021354  -0.035873  0  4.019771  0
C  C159  1  0.64520226  0.85479755  0.85479755  1  1.555001  0  0.22869  0.6095  0  4.157378  0
C  C160  1  0.52056769  0.97943236  0.97943247  1  -0.037529  0  0.00591  0.006261  0  3.899357  0
C  C161  1  0.89806206  0.60193754  0.60193786  1  -0.0119  0  -0.02132  -0.035766  0  4.019661  0
C  C162  1  0.85479771  0.64520214  0.64520274  1  1.564636  0  0.228659  0.609404  0  4.157419  0
C  C163  1  0.97943244  0.52056751  0.52056798  1  0.059668  0  0.005907  0.006232  0  3.899348  0
O  O164  1  0.25000064  0.25000060  0.25000034  1  -1.202487  0  -0.5733  -1.026503  0  2.537247  0
O  O165  1  0.74999952  0.74999938  0.74999932  1  -1.2025  0  -0.573313  -1.026524  0  2.537273  0
O  O166  1  0.38469754  0.29141167  0.16194568  1  -1.183632  0  -0.316982  -0.548537  0  2.338177  0
O  O167  1  0.29141171  0.38469749  0.16194567  1  -1.183631  0  -0.316957  -0.548545  0  2.338222  0
O  O168  1  0.16194486  0.16194481  0.38469870  1  -1.17581  0  -0.316952  -0.548525  0  2.338327  0
O  O169  1  0.16194578  0.16194574  0.29141217  1  -1.16631  0  -0.316933  -0.54848  0  2.338263  0
O  O170  1  0.16194517  0.29141222  0.38469742  1  -1.182888  0  -0.316951  -0.548536  0  2.338192  0
O  O171  1  0.16194437  0.38469807  0.29141189  1  -1.180414  0  -0.316996  -0.548557  0  2.338183  0
O  O172  1  0.29141197  0.16194564  0.16194561  1  -1.166326  0  -0.316941  -0.548513  0  2.338259  0
O  O173  1  0.38469848  0.16194550  0.16194395  1  -1.175803  0  -0.316974  -0.548524  0  2.338256  0
O  O174  1  0.16194568  0.29141193  0.16194561  1  -1.166342  0  -0.316944  -0.548526  0  2.338202  0
O  O175  1  0.16194530  0.38469820  0.16194441  1  -1.175834  0  -0.316947  -0.5485  0  2.338217  0
O  O176  1  0.38469763  0.16194300  0.29141171  1  -1.180412  0  -0.316937  -0.548515  0  2.338207  0
O  O177  1  0.29141187  0.16194552  0.38469743  1  -1.180424  0  -0.316958  -0.548537  0  2.338252  0
O  O178  1  0.70858831  0.61530235  0.83805527  1  -1.18041  0  -0.316982  -0.548568  0  2.338171  0
O  O179  1  0.61530232  0.70858801  0.83805510  1  -1.180401  0  -0.316986  -0.548569  0  2.338155  0
O  O180  1  0.83805507  0.83805494  0.61530143  1  -1.175828  0  -0.316971  -0.548567  0  2.338339  0
O  O181  1  0.83805414  0.83805401  0.70858797  1  -1.166308  0  -0.316923  -0.548471  0  2.338256  0
O  O182  1  0.70858781  0.83805480  0.61530287  1  -1.180391  0  -0.316954  -0.548519  0  2.338216  0
O  O183  1  0.61530213  0.83805576  0.70858856  1  -1.180415  0  -0.316952  -0.548481  0  2.33823  0
O  O184  1  0.83805448  0.70858805  0.83805406  1  -1.166335  0  -0.316938  -0.548512  0  2.338219  0
O  O185  1  0.83805503  0.61530113  0.83805572  1  -1.175813  0  -0.316977  -0.54855  0  2.338227  0
O  O186  1  0.70858819  0.83805434  0.83805405  1  -1.16634  0  -0.316943  -0.548518  0  2.338214  0
O  O187  1  0.61530127  0.83805489  0.83805571  1  -1.175812  0  -0.316974  -0.548535  0  2.338223  0
O  O188  1  0.83805589  0.61530200  0.70858858  1  -1.180417  0  -0.316953  -0.548496  0  2.338218  0
O  O189  1  0.83805451  0.70858810  0.61530288  1  -1.180411  0  -0.316955  -0.548529  0  2.338219  0
