# generated using pymatgen
data_ZnH22C26NO4
_symmetry_space_group_name_H-M   'P 1'
_cell_length_a   11.01286980
_cell_length_b   13.93229294
_cell_length_c   15.34996210
_cell_angle_alpha   90.98666196
_cell_angle_beta   92.12866907
_cell_angle_gamma   89.18168109
_symmetry_Int_Tables_number   1
_chemical_formula_structural   ZnH22C26NO4
_chemical_formula_sum   'Zn2 H44 C52 N2 O8'
_cell_volume   2353.02061295
_cell_formula_units_Z   2
loop_
 _symmetry_equiv_pos_site_id
 _symmetry_equiv_pos_as_xyz
  1  'x, y, z'
loop_
 _atom_site_type_symbol
 _atom_site_label
 _atom_site_symmetry_multiplicity
 _atom_site_fract_x
 _atom_site_fract_y
 _atom_site_fract_z
 _atom_site_occupancy
 _atom_site_pbe_bader_charge
 _atom_site_pbe_bader_spin_density
 _atom_site_pbe_cm5_charge
 _atom_site_pbe_ddec_charge
 _atom_site_pbe_ddec_spin_density
 _atom_site_pbe_ddec_sum_bond_order
 _atom_site_pbe_magmom
Zn  Zn0  1  0.49620879  0.59952711  0.49740876  1  1.287888  0  0.665895  0.807973  0  2.448033  0
Zn  Zn1  1  0.50566107  0.40043349  0.49894717  1  1.278885  0  0.666102  0.806778  0  2.447579  0
H  H2  1  0.41625480  0.07325430  0.62598158  1  0.078563  0  0.114644  0.119178  0  0.993705  0
H  H3  1  0.53888452  0.69436831  0.00428971  1  0.046661  0  0.091179  0.126732  0  0.998835  0
H  H4  1  0.38227930  0.70327191  0.02277483  1  0.034457  0  0.089684  0.123436  0  1.002589  0
H  H5  1  0.48816380  0.74508809  0.10428000  1  0.036576  0  0.088343  0.121614  0  1.002448  0
H  H6  1  0.42278284  0.25262247  0.61992307  1  0.159454  0  0.131978  0.108823  0  0.967896  0
H  H7  1  0.64619811  0.74894016  0.42228745  1  0.119131  0  0.131206  0.105644  0  0.978866  0
H  H8  1  0.57754640  0.24372828  0.37899041  1  0.125413  0  0.1286  0.100249  0  1.004699  0
H  H9  1  0.34754592  0.75431489  0.57731269  1  0.112495  0  0.130357  0.104206  0  0.974366  0
H  H10  1  0.57583052  0.06467964  0.37239519  1  0.065659  0  0.114863  0.120458  0  0.990817  0
H  H11  1  0.33844568  0.93380082  0.58006715  1  0.058111  0  0.114428  0.120021  0  0.992475  0
H  H12  1  0.22592687  0.30491082  0.19686014  1  0.064245  0  0.097034  0.098628  0  1.005128  0
H  H13  1  0.65371901  0.92799725  0.41963339  1  0.081869  0  0.113184  0.115658  0  1.000232  0
H  H14  1  0.76378022  0.68201953  0.80302849  1  0.064124  0  0.095936  0.097034  0  1.00683  0
H  H15  1  0.04721299  0.49383474  0.27921464  1  0.042768  0  0.089491  0.125028  0  1.000165  0
H  H16  1  0.19925987  0.51747904  0.31221607  1  0.049003  0  0.092659  0.137971  0  0.997777  0
H  H17  1  0.16736293  0.46554341  0.20777719  1  0.043235  0  0.089652  0.12474  0  1.003575  0
H  H18  1  0.97463064  0.51284702  0.72185313  1  0.025674  0  0.089338  0.125222  0  1.009774  0
H  H19  1  0.85117982  0.52805280  0.79275153  1  0.033692  0  0.087709  0.119702  0  1.02363  0
H  H20  1  0.82840631  0.47431108  0.68752788  1  0.032901  0  0.092854  0.134554  0  0.997605  0
H  H21  1  0.08738802  0.30190146  0.56552939  1  0.055662  0  0.090996  0.130837  0  1.011677  0
H  H22  1  0.01704580  0.19433984  0.52841603  1  0.022131  0  0.088592  0.122627  0  0.994427  0
H  H23  1  0.17335824  0.19323632  0.56006093  1  0.02343  0  0.081847  0.109996  0  1.022788  0
H  H24  1  0.19673892  0.11148851  0.41071211  1  0.036604  0  0.088219  0.087779  0  1.015916  0
H  H25  1  0.86081943  0.71697917  0.43104450  1  0.052744  0  0.091872  0.129428  0  1.001978  0
H  H26  1  0.87474929  0.84077287  0.46198346  1  0.00811  0  0.082892  0.112281  0  1.016679  0
H  H27  1  0.00081463  0.76029987  0.47282142  1  0.064508  0  0.091195  0.131036  0  0.996461  0
H  H28  1  0.88056224  0.37530841  0.42352054  1  0.084723  0  0.104363  0.113656  0  0.998511  0
H  H29  1  0.12188086  0.62813449  0.57511106  1  0.092843  0  0.102933  0.10632  0  1.011803  0
H  H30  1  0.30186145  0.56404731  0.93312960  1  0.003324  0  0.096853  0.099052  0  1.010154  0
H  H31  1  0.49203701  0.35196525  0.04727942  1  0.06137  0  0.096488  0.098723  0  1.011786  0
H  H32  1  0.28933319  0.63968243  0.72007375  1  0.063203  0  0.089596  0.128777  0  1.008608  0
H  H33  1  0.23323080  0.52214384  0.71009356  1  0.037001  0  0.091314  0.130605  0  0.997155  0
H  H34  1  0.19444195  0.59499085  0.80148211  1  0.03064  0  0.088577  0.122167  0  1.003621  0
H  H35  1  0.79117481  0.88539946  0.59672106  1  0.027965  0  0.086561  0.083774  0  1.024801  0
H  H36  1  0.44390339  0.29248091  0.26045391  1  0.067007  0  0.088315  0.128772  0  1.051248  0
H  H37  1  0.51203196  0.25575177  0.16105825  1  0.012778  0  0.082167  0.111965  0  1.010308  0
H  H38  1  0.60212647  0.30305023  0.25008809  1  0.022024  0  0.089672  0.12645  0  1.000788  0
H  H39  1  0.65909471  0.43959535  0.78004951  1  0.04428  0  0.099332  0.105794  0  1.02058  0
H  H40  1  0.47983923  0.64712521  0.22771128  1  0.110234  0  0.098152  0.106309  0  1.020087  0
H  H41  1  0.25266980  0.14135355  0.25805570  1  0.028728  0  0.092593  0.087261  0  1.005535  0
H  H42  1  0.72391348  0.84535056  0.74457349  1  0.050172  0  0.09339  0.087923  0  1.004175  0
H  H43  1  0.72703267  0.48953787  0.00679188  1  0.037412  0  0.092493  0.129738  0  0.994125  0
H  H44  1  0.68890817  0.36867870  0.98690840  1  0.021582  0  0.089792  0.124598  0  1.004703  0
H  H45  1  0.77579178  0.42929186  0.91063067  1  0.019906  0  0.088708  0.121892  0  1.011004  0
C  C46  1  0.48982392  0.50096520  0.66864915  1  1.583384  0  0.217493  0.610959  0  4.156021  0
C  C47  1  0.49689829  0.40842183  0.17818648  1  0.008586  0  -0.003603  0.163836  0  3.947242  0
C  C48  1  0.48146122  0.50308176  0.76592134  1  -0.019265  0  -0.01994  -0.081796  0  3.958847  0
C  C49  1  0.49255506  0.49420944  0.22874925  1  -0.095331  0  -0.022789  -0.098262  0  3.935708  0
C  C50  1  0.58163123  0.46825616  0.81480953  1  -0.023408  0  -0.094216  -0.17036  0  3.992225  0
C  C51  1  0.48203430  0.58263160  0.18643714  1  -0.095206  0  -0.092538  -0.156898  0  3.979141  0
C  C52  1  0.58632112  0.47044133  0.90585249  1  -0.014227  0  -0.015851  0.110464  0  3.973787  0
C  C53  1  0.47690057  0.59099313  0.09587552  1  0.010775  0  -0.014679  0.109217  0  3.971508  0
C  C54  1  0.48300601  0.50564614  0.94862871  1  -0.039454  0  -0.012964  0.015508  0  3.991086  0
C  C55  1  0.48114771  0.50555099  0.04532431  1  0.07189  0  -0.006836  0.030165  0  3.984724  0
C  C56  1  0.45140152  0.10762437  0.56908051  1  0.007117  0  -0.076056  -0.177238  0  3.94763  0
C  C57  1  0.49933392  0.49668461  0.32662091  1  1.549073  0  0.213562  0.595517  0  4.157781  0
C  C58  1  0.58256550  0.89304278  0.45437571  1  -0.00584  0  -0.075974  -0.175663  0  3.949185  0
C  C59  1  0.45500502  0.20719144  0.56678963  1  0.419385  0  0.067388  0.115028  0  3.9054  0
C  C60  1  0.58006545  0.79349269  0.45594145  1  0.489531  0  0.067815  0.11795  0  3.906725  0
C  C61  1  0.26353723  0.50378937  0.49386349  1  1.562612  0  0.213934  0.592541  0  4.19033  0
C  C62  1  0.73842853  0.49960326  0.50344383  1  1.590506  0  0.214496  0.593655  0  4.175175  0
C  C63  1  0.54307567  0.20228563  0.43201164  1  0.446305  0  0.065535  0.112931  0  3.91067  0
C  C64  1  0.41305974  0.79661521  0.54344590  1  0.588274  0  0.06618  0.113104  0  3.914901  0
C  C65  1  0.54223699  0.10270321  0.42940780  1  0.02044  0  -0.075829  -0.172968  0  3.944411  0
C  C66  1  0.40949870  0.89629933  0.54493064  1  -0.06155  0  -0.076403  -0.175447  0  3.943927  0
C  C67  1  0.49609427  0.05286734  0.49933057  1  -0.04312  0  0.015363  0.103632  0  3.993218  0
C  C68  1  0.87451216  0.50274653  0.50343083  1  -0.05724  0  -0.011356  -0.070151  0  3.934893  0
C  C69  1  0.49579258  0.94694127  0.49952368  1  0.044097  0  0.015951  0.104846  0  3.987811  0
C  C70  1  0.20018557  0.29116416  0.26345219  1  -0.128079  0  -0.103189  -0.158521  0  4.021535  0
C  C71  1  0.79229655  0.69962424  0.73790295  1  0.002267  0  -0.103313  -0.155733  0  4.014243  0
C  C72  1  0.15322649  0.36689900  0.31352540  1  0.025414  0  -0.008204  0.135262  0  3.949763  0
C  C73  1  0.85045568  0.62894199  0.68789604  1  0.003309  0  -0.009755  0.133694  0  3.951138  0
C  C74  1  0.11877602  0.34879429  0.39940747  1  -0.042535  0  -0.008543  -0.044015  0  3.899976  0
C  C75  1  0.88398902  0.65116435  0.60290873  1  -0.065993  0  -0.010024  -0.042324  0  3.906566  0
C  C76  1  0.13443328  0.25664335  0.43485465  1  0.079035  0  -0.011749  0.132993  0  3.956351  0
C  C77  1  0.86460407  0.74412826  0.57002775  1  0.026385  0  -0.014251  0.125256  0  3.976732  0
C  C78  1  0.18361401  0.18288844  0.38319091  1  -0.115081  0  -0.112577  -0.17511  0  4.049091  0
C  C79  1  0.12778896  0.50088212  0.49468590  1  -0.062657  0  -0.009419  -0.063269  0  3.945956  0
C  C80  1  0.80737697  0.81338358  0.62208382  1  -0.055586  0  -0.112129  -0.17149  0  4.049167  0
C  C81  1  0.21547449  0.19955063  0.29785123  1  -0.004536  0  -0.107224  -0.094689  0  4.119183  0
C  C82  1  0.76997184  0.79114667  0.70513105  1  -0.099828  0  -0.106203  -0.087952  0  4.102503  0
C  C83  1  0.93496815  0.43056595  0.45668537  1  -0.001191  0  -0.081345  -0.14292  0  3.951978  0
C  C84  1  0.06768339  0.57299415  0.54155479  1  -0.068746  0  -0.084851  -0.155048  0  3.971112  0
C  C85  1  0.70026723  0.43782468  0.95492429  1  -0.031178  0  -0.239262  -0.405818  0  3.994169  0
C  C86  1  0.47136623  0.68850831  0.05485079  1  -0.068115  0  -0.238606  -0.402764  0  3.999692  0
C  C87  1  0.14092014  0.46591877  0.27600346  1  -0.073221  0  -0.239424  -0.410231  0  3.97652  0
C  C88  1  0.87726866  0.53101305  0.72458995  1  -0.053874  0  -0.239442  -0.41257  0  3.981157  0
C  C89  1  0.10119472  0.23593869  0.52702687  1  -0.068378  0  -0.241081  -0.402861  0  3.990132  0
C  C90  1  0.94153940  0.57530785  0.54779250  1  0.023662  0  0.00253  0.075639  0  3.968828  0
C  C91  1  0.90194239  0.76721212  0.47941592  1  -0.087149  0  -0.240745  -0.411086  0  3.998069  0
C  C92  1  0.26787415  0.57605624  0.75763277  1  -0.079565  0  -0.240431  -0.40672  0  3.980105  0
C  C93  1  0.51396555  0.30929248  0.21446258  1  -0.02762  0  -0.245528  -0.414831  0  3.996303  0
C  C94  1  0.06132559  0.42741909  0.45157199  1  0.02442  0  0.00202  0.068727  0  3.97932  0
C  C95  1  0.38187813  0.53868445  0.89902747  1  -0.066031  0  -0.097289  -0.201454  0  3.984282  0
C  C96  1  0.48943003  0.41732617  0.08755411  1  -0.099022  0  -0.098149  -0.208462  0  3.986225  0
C  C97  1  0.37866893  0.53960897  0.80786169  1  0.046024  0  -0.010268  0.146461  0  3.976428  0
N  N98  1  0.50046283  0.25354869  0.49947776  1  -1.21169  0  -0.313071  -0.184283  0  3.501677  0
N  N99  1  0.49672336  0.74630126  0.49957740  1  -1.24216  0  -0.314804  -0.186475  0  3.50957  0
O  O100  1  0.47437917  0.58018005  0.62942460  1  -1.171109  0  -0.313673  -0.546125  0  2.310224  0
O  O101  1  0.49659400  0.41690687  0.36616545  1  -1.165665  0  -0.310903  -0.536023  0  2.355404  0
O  O102  1  0.51452446  0.42006709  0.63312644  1  -1.167384  0  -0.320086  -0.555863  0  2.304789  0
O  O103  1  0.50644589  0.57887090  0.36422361  1  -1.170061  0  -0.323593  -0.556033  0  2.331143  0
O  O104  1  0.31009881  0.58585938  0.48397243  1  -1.164287  0  -0.320772  -0.551691  0  2.3158  0
O  O105  1  0.69092603  0.41682904  0.49782451  1  -1.164883  0  -0.32121  -0.547128  0  2.312433  0
O  O106  1  0.32081009  0.42479771  0.50448191  1  -1.16528  0  -0.308041  -0.53918  0  2.34448  0
O  O107  1  0.68103370  0.57941231  0.50777101  1  -1.166136  0  -0.306131  -0.539344  0  2.361816  0
