# generated using pymatgen
data_CuH5C6IN3
_symmetry_space_group_name_H-M   'P 1'
_cell_length_a   4.23112451
_cell_length_b   9.44801124
_cell_length_c   18.91864611
_cell_angle_alpha   90.00051815
_cell_angle_beta   90.00031432
_cell_angle_gamma   97.04606720
_symmetry_Int_Tables_number   1
_chemical_formula_structural   CuH5C6IN3
_chemical_formula_sum   'Cu4 H20 C24 I4 N12'
_cell_volume   750.57475440
_cell_formula_units_Z   4
loop_
 _symmetry_equiv_pos_site_id
 _symmetry_equiv_pos_as_xyz
  1  'x, y, z'
loop_
 _atom_site_type_symbol
 _atom_site_label
 _atom_site_symmetry_multiplicity
 _atom_site_fract_x
 _atom_site_fract_y
 _atom_site_fract_z
 _atom_site_occupancy
 _atom_site_pbe_bader_spin_density
 _atom_site_pbe_cm5_charge
 _atom_site_pbe_ddec_charge
 _atom_site_pbe_ddec_spin_density
 _atom_site_pbe_ddec_sum_bond_order
 _atom_site_pbe_magmom
Cu  Cu0  1  0.70318146  0.90782886  0.49373497  1  0  0.240912  0.148665  0  2.690996  0
Cu  Cu1  1  0.29679369  0.59216151  0.99373490  1  0  0.24089  0.148549  0  2.691173  0
Cu  Cu2  1  0.29682315  0.09217340  0.50626548  1  0  0.240866  0.148534  0  2.691074  0
Cu  Cu3  1  0.70320507  0.40783647  0.00626450  1  0  0.240893  0.14858  0  2.691136  0
H  H4  1  0.86227165  0.41479899  0.55601484  1  0  0.317319  0.247721  0  1.021338  0
H  H5  1  0.13774188  0.08520436  0.05601327  1  0  0.31734  0.247761  0  1.021411  0
H  H6  1  0.13771613  0.58520216  0.44398508  1  0  0.317324  0.247747  0  1.02137  0
H  H7  1  0.86227692  0.91479794  0.94398454  1  0  0.317324  0.247725  0  1.021441  0
H  H8  1  0.24655530  0.85408674  0.63569028  1  0  0.092659  0.105252  0  1.054182  0
H  H9  1  0.75344404  0.64591159  0.13568712  1  0  0.092647  0.105284  0  1.054193  0
H  H10  1  0.75346142  0.14591662  0.36431546  1  0  0.092646  0.105226  0  1.05416  0
H  H11  1  0.24653677  0.35408102  0.86431175  1  0  0.092686  0.105268  0  1.054086  0
H  H12  1  0.00716124  0.72002034  0.74208750  1  0  0.09526  0.10161  0  1.012186  0
H  H13  1  0.99283091  0.77997686  0.24208684  1  0  0.095261  0.101633  0  1.012149  0
H  H14  1  0.99284044  0.27997978  0.25791665  1  0  0.09526  0.101646  0  1.012179  0
H  H15  1  0.00716257  0.22001898  0.75791045  1  0  0.095281  0.101611  0  1.012111  0
H  H16  1  0.11968834  0.47834797  0.76822896  1  0  0.091744  0.0953  0  1.041367  0
H  H17  1  0.88030286  0.02164989  0.26823069  1  0  0.091754  0.095332  0  1.041321  0
H  H18  1  0.88028774  0.52164463  0.23177043  1  0  0.091784  0.095366  0  1.041324  0
H  H19  1  0.11972275  0.97835136  0.73176554  1  0  0.091721  0.095318  0  1.0413  0
H  H20  1  0.46802751  0.35006357  0.68920738  1  0  0.09758  0.11437  0  1.033791  0
H  H21  1  0.53198351  0.14993599  0.18920660  1  0  0.097589  0.114357  0  1.033792  0
H  H22  1  0.53194676  0.64993116  0.31078884  1  0  0.097609  0.114424  0  1.033666  0
H  H23  1  0.46805477  0.85006848  0.81078751  1  0  0.097612  0.114418  0  1.033632  0
C  C24  1  0.29745603  0.74681424  0.64858581  1  0  -0.089383  -0.130509  0  3.947609  0
C  C25  1  0.70254049  0.75318114  0.14858307  1  0  -0.089331  -0.130506  0  3.947424  0
C  C26  1  0.70255512  0.25318591  0.35141834  1  0  -0.089292  -0.13036  0  3.947531  0
C  C27  1  0.29745953  0.24681258  0.85141579  1  0  -0.089381  -0.130431  0  3.947458  0
C  C28  1  0.16715818  0.67172116  0.70673190  1  0  -0.095348  -0.085492  0  3.994151  0
C  C29  1  0.83283350  0.82827748  0.20673231  1  0  -0.095351  -0.085534  0  3.994092  0
C  C30  1  0.83283822  0.32827682  0.29327120  1  0  -0.095392  -0.085599  0  3.994254  0
C  C31  1  0.16717292  0.17172265  0.79326762  1  0  -0.095395  -0.085577  0  3.994162  0
C  C32  1  0.22970107  0.53073815  0.72150593  1  0  -0.09325  -0.072867  0  4.00166  0
C  C33  1  0.77028102  0.96925862  0.22150690  1  0  -0.093309  -0.072987  0  4.001819  0
C  C34  1  0.77027905  0.46926085  0.27849505  1  0  -0.093282  -0.072929  0  4.001681  0
C  C35  1  0.22972721  0.03073938  0.77848985  1  0  -0.093236  -0.07295  0  4.001579  0
C  C36  1  0.42141124  0.45875134  0.67838494  1  0  -0.0958  -0.163184  0  3.977055  0
C  C37  1  0.57859292  0.04125012  0.17838532  1  0  -0.095789  -0.163061  0  3.977022  0
C  C38  1  0.57857834  0.54124769  0.32161498  1  0  -0.095808  -0.163175  0  3.976971  0
C  C39  1  0.42141906  0.95875322  0.82161408  1  0  -0.09581  -0.163093  0  3.97691  0
C  C40  1  0.55483163  0.53497437  0.61983291  1  0  0.103911  0.133834  0  4.033194  0
C  C41  1  0.44517727  0.96502581  0.11982922  1  0  0.103956  0.13374  0  4.033003  0
C  C42  1  0.44515852  0.46502679  0.38016754  1  0  0.103831  0.133705  0  4.033167  0
C  C43  1  0.55482498  0.03497645  0.88016754  1  0  0.103893  0.133692  0  4.033041  0
C  C44  1  0.49635164  0.67624662  0.60504884  1  0  0.091277  0.105256  0  4.021517  0
C  C45  1  0.50365182  0.82375218  0.10504669  1  0  0.091148  0.105237  0  4.021553  0
C  C46  1  0.50365506  0.32375458  0.39495320  1  0  0.091209  0.10507  0  4.021719  0
C  C47  1  0.49634695  0.17624580  0.89495323  1  0  0.091213  0.105221  0  4.021616  0
I  I48  1  0.79892543  0.10343190  0.59335927  1  0  -0.169455  -0.275952  0  2.164924  0
I  I49  1  0.20108807  0.39656792  0.09335918  1  0  -0.169447  -0.275947  0  2.164935  0
I  I50  1  0.20107862  0.89656823  0.40664172  1  0  -0.169449  -0.275971  0  2.164928  0
I  I51  1  0.79891125  0.60343220  0.90664021  1  0  -0.169425  -0.275919  0  2.164949  0
N  N52  1  0.66482873  0.71972378  0.54482222  1  0  -0.24352  -0.145375  0  3.587433  0
N  N53  1  0.33516587  0.78027382  0.04481966  1  0  -0.243466  -0.145325  0  3.587377  0
N  N54  1  0.33517408  0.28028061  0.45518088  1  0  -0.243464  -0.145128  0  3.587383  0
N  N55  1  0.66482636  0.21972628  0.95517920  1  0  -0.24354  -0.145376  0  3.587497  0
N  N56  1  0.81938016  0.61559673  0.52309959  1  0  -0.082853  -0.029531  0  3.238266  0
N  N57  1  0.18061910  0.88440259  0.02309679  1  0  -0.082794  -0.029431  0  3.238001  0
N  N58  1  0.18061235  0.38440444  0.47690350  1  0  -0.082821  -0.02957  0  3.238032  0
N  N59  1  0.81938134  0.11560179  0.97690208  1  0  -0.08274  -0.029386  0  3.237929  0
N  N60  1  0.75591436  0.50457469  0.56731811  1  0  -0.261028  -0.149022  0  3.701413  0
N  N61  1  0.24409384  0.99542765  0.06731536  1  0  -0.2611  -0.149125  0  3.701376  0
N  N62  1  0.24407578  0.49542647  0.43268287  1  0  -0.261051  -0.149057  0  3.701087  0
N  N63  1  0.75591759  0.00457356  0.93268404  1  0  -0.261091  -0.149082  0  3.701142  0
