# generated using pymatgen
data_CdH4C7S(NO)2
_symmetry_space_group_name_H-M   'P 1'
_cell_length_a   5.72436242
_cell_length_b   10.16339566
_cell_length_c   15.39836526
_cell_angle_alpha   83.68097274
_cell_angle_beta   79.32916695
_cell_angle_gamma   73.64247685
_symmetry_Int_Tables_number   1
_chemical_formula_structural   CdH4C7S(NO)2
_chemical_formula_sum   'Cd4 H16 C28 S4 N8 O8'
_cell_volume   843.13933818
_cell_formula_units_Z   4
loop_
 _symmetry_equiv_pos_site_id
 _symmetry_equiv_pos_as_xyz
  1  'x, y, z'
loop_
 _atom_site_type_symbol
 _atom_site_label
 _atom_site_symmetry_multiplicity
 _atom_site_fract_x
 _atom_site_fract_y
 _atom_site_fract_z
 _atom_site_occupancy
 _atom_site_pbe_bader_spin_density
 _atom_site_pbe_cm5_charge
 _atom_site_pbe_ddec_charge
 _atom_site_pbe_ddec_spin_density
 _atom_site_pbe_ddec_sum_bond_order
 _atom_site_pbe_magmom
Cd  Cd0  1  0.88818358  0.65924623  0.67300449  1  0  0.759531  0.888181  0  2.259848  0
Cd  Cd1  1  0.21992855  0.84157093  0.82709026  1  0  0.759821  0.887744  0  2.261565  0
Cd  Cd2  1  0.11184602  0.34073558  0.32699744  1  0  0.759568  0.888277  0  2.259771  0
Cd  Cd3  1  0.78007257  0.15845103  0.17290539  1  0  0.759783  0.887631  0  2.261649  0
H  H4  1  0.44068677  0.94049947  0.46182095  1  0  0.108683  0.123317  0  1.041345  0
H  H5  1  0.84278607  0.55960201  0.03811172  1  0  0.108532  0.122998  0  1.040355  0
H  H6  1  0.55932188  0.05948747  0.53818141  1  0  0.108702  0.123277  0  1.041393  0
H  H7  1  0.15718756  0.44041779  0.96189080  1  0  0.108423  0.12276  0  1.040531  0
H  H8  1  0.28929458  0.93015928  0.32277072  1  0  0.100179  0.103437  0  1.030673  0
H  H9  1  0.54256387  0.56976275  0.17715531  1  0  0.10005  0.103435  0  1.03088  0
H  H10  1  0.71072138  0.06981535  0.67723075  1  0  0.100143  0.103303  0  1.030764  0
H  H11  1  0.45740910  0.43025499  0.82284714  1  0  0.10015  0.103591  0  1.030822  0
H  H12  1  0.95761848  0.80752161  0.32726527  1  0  0.101772  0.112581  0  1.008916  0
H  H13  1  0.09271292  0.69221969  0.17266027  1  0  0.101515  0.112522  0  1.008385  0
H  H14  1  0.04239230  0.19245194  0.67273998  1  0  0.10173  0.112538  0  1.008862  0
H  H15  1  0.90726819  0.30780028  0.82733162  1  0  0.101528  0.112498  0  1.008362  0
H  H16  1  0.80921799  0.69417343  0.47137893  1  0  0.108068  0.07834  0  1.043976  0
H  H17  1  0.97438306  0.80572180  0.02858603  1  0  0.107327  0.077501  0  1.043464  0
H  H18  1  0.19078433  0.30580521  0.52862848  1  0  0.108002  0.078299  0  1.043965  0
H  H19  1  0.02559942  0.19429615  0.97140385  1  0  0.107316  0.077451  0  1.043491  0
C  C20  1  0.48273501  0.49935813  0.64371230  1  0  0.152984  0.285335  0  4.269192  0
C  C21  1  0.62531395  0.00120333  0.85629930  1  0  0.153074  0.285866  0  4.267862  0
C  C22  1  0.51727958  0.50063293  0.35628917  1  0  0.15296  0.285348  0  4.269143  0
C  C23  1  0.37466805  0.99880741  0.14369120  1  0  0.153175  0.286048  0  4.26763  0
C  C24  1  0.27719311  0.83603735  0.62766079  1  0  0.203179  0.535268  0  4.229633  0
C  C25  1  0.74040100  0.66425235  0.87231470  1  0  0.202576  0.535001  0  4.231882  0
C  C26  1  0.72280292  0.16395569  0.37234549  1  0  0.203172  0.535284  0  4.229351  0
C  C27  1  0.25960616  0.33575505  0.12769260  1  0  0.202572  0.534942  0  4.232092  0
C  C28  1  0.20128301  0.82588210  0.54028232  1  0  0.109764  0.100612  0  3.96151  0
C  C29  1  0.56713964  0.67427951  0.95968789  1  0  0.109425  0.099651  0  3.962407  0
C  C30  1  0.79873624  0.17410694  0.45971741  1  0  0.109778  0.100631  0  3.961472  0
C  C31  1  0.43284314  0.32573315  0.04031112  1  0  0.109573  0.099807  0  3.962187  0
C  C32  1  0.30173524  0.88637469  0.46203098  1  0  -0.073237  -0.121221  0  3.909132  0
C  C33  1  0.64994909  0.61361842  0.03790868  1  0  -0.073041  -0.120204  0  3.909682  0
C  C34  1  0.69828251  0.11361125  0.53797001  1  0  -0.073325  -0.121192  0  3.909002  0
C  C35  1  0.35002473  0.38639741  0.96208540  1  0  -0.072922  -0.119851  0  3.909541  0
C  C36  1  0.21483954  0.88103508  0.38395173  1  0  -0.063823  -0.011849  0  3.922168  0
C  C37  1  0.47984277  0.61894403  0.11597796  1  0  -0.063766  -0.012189  0  3.924529  0
C  C38  1  0.78516885  0.11894161  0.61604914  1  0  -0.06381  -0.011735  0  3.922056  0
C  C39  1  0.52014597  0.38108809  0.88402447  1  0  -0.063923  -0.012626  0  3.924888  0
C  C40  1  0.03355744  0.81306577  0.38620041  1  0  -0.078542  -0.110005  0  3.923462  0
C  C41  1  0.23279294  0.68673400  0.11370920  1  0  -0.077434  -0.108785  0  3.925108  0
C  C42  1  0.96645449  0.18691499  0.61380358  1  0  -0.078411  -0.109864  0  3.923218  0
C  C43  1  0.76719674  0.31327362  0.88628402  1  0  -0.077482  -0.10863  0  3.92502  0
C  C44  1  0.94632005  0.75164304  0.46644658  1  0  0.052541  0.109588  0  3.933071  0
C  C45  1  0.16412322  0.74825349  0.03344878  1  0  0.052539  0.109572  0  3.933742  0
C  C46  1  0.05367913  0.24833869  0.53356058  1  0  0.052513  0.109544  0  3.933074  0
C  C47  1  0.83586497  0.25176544  0.96654368  1  0  0.052583  0.109683  0  3.933541  0
S  S48  1  0.25564387  0.42831247  0.67305365  1  0  -0.118825  -0.291325  0  2.528751  0
S  S49  1  0.35651939  0.07234385  0.82689123  1  0  -0.118555  -0.291007  0  2.529826  0
S  S50  1  0.74438098  0.57167039  0.32694719  1  0  -0.118817  -0.291303  0  2.528592  0
S  S51  1  0.64347046  0.92767600  0.17310770  1  0  -0.118639  -0.291207  0  2.529328  0
N  N52  1  0.65023617  0.54886233  0.62124202  1  0  -0.392665  -0.469616  0  3.114133  0
N  N53  1  0.82002501  0.95162611  0.87868812  1  0  -0.39258  -0.469868  0  3.114122  0
N  N54  1  0.34979201  0.45111941  0.37876471  1  0  -0.392678  -0.469666  0  3.114084  0
N  N55  1  0.17998983  0.04838571  0.12129945  1  0  -0.392609  -0.469846  0  3.11437  0
N  N56  1  0.02716678  0.75939698  0.54140634  1  0  -0.32982  -0.251247  0  3.537624  0
N  N57  1  0.32748573  0.74072808  0.95853508  1  0  -0.329446  -0.250514  0  3.537444  0
N  N58  1  0.97284303  0.24059099  0.45859612  1  0  -0.329757  -0.251272  0  3.537693  0
N  N59  1  0.67249361  0.25928973  0.04146297  1  0  -0.329502  -0.250616  0  3.537268  0
O  O60  1  0.13641255  0.80095849  0.69776876  1  0  -0.333786  -0.552314  0  2.411588  0
O  O61  1  0.63438120  0.69965075  0.80220352  1  0  -0.334017  -0.552714  0  2.410575  0
O  O62  1  0.86360299  0.19903460  0.30223421  1  0  -0.333748  -0.552292  0  2.411391  0
O  O63  1  0.36560036  0.30036083  0.19779889  1  0  -0.333986  -0.552669  0  2.410981  0
O  O64  1  0.46106607  0.87774997  0.62926757  1  0  -0.306272  -0.529118  0  2.207127  0
O  O65  1  0.96750899  0.62227614  0.87069290  1  0  -0.305741  -0.528962  0  2.210213  0
O  O66  1  0.53892868  0.12225133  0.37073585  1  0  -0.306257  -0.529129  0  2.20721  0
O  O67  1  0.03249830  0.37772426  0.12930241  1  0  -0.305816  -0.529026  0  2.210112  0
