# generated using pymatgen
data_H9PbC17NCl2O3
_symmetry_space_group_name_H-M   'P 1'
_cell_length_a   7.30028666
_cell_length_b   10.26156983
_cell_length_c   11.28391032
_cell_angle_alpha   104.51981341
_cell_angle_beta   101.76012763
_cell_angle_gamma   100.86832135
_symmetry_Int_Tables_number   1
_chemical_formula_structural   H9PbC17NCl2O3
_chemical_formula_sum   'H18 Pb2 C34 N2 Cl4 O6'
_cell_volume   775.09416192
_cell_formula_units_Z   2
loop_
 _symmetry_equiv_pos_site_id
 _symmetry_equiv_pos_as_xyz
  1  'x, y, z'
loop_
 _atom_site_type_symbol
 _atom_site_label
 _atom_site_symmetry_multiplicity
 _atom_site_fract_x
 _atom_site_fract_y
 _atom_site_fract_z
 _atom_site_occupancy
 _atom_site_pbe_bader_spin_density
 _atom_site_pbe_cm5_charge
 _atom_site_pbe_ddec_charge
 _atom_site_pbe_ddec_spin_density
 _atom_site_pbe_ddec_sum_bond_order
 _atom_site_pbe_magmom
H  H0  1  0.28832705  0.16207873  0.51806223  1  0  0.108348  0.084711  0  1.023728  0
H  H1  1  0.71168813  0.83788170  0.48194527  1  0  0.108405  0.084827  0  1.023657  0
H  H2  1  0.31626104  0.91504630  0.45223807  1  0  0.098868  0.121267  0  1.032556  0
H  H3  1  0.68374124  0.08491367  0.54774639  1  0  0.098902  0.121266  0  1.032477  0
H  H4  1  0.14929502  0.33015316  0.95309578  1  0  0.101208  0.099515  0  1.040491  0
H  H5  1  0.85067662  0.66987292  0.04694227  1  0  0.101261  0.099708  0  1.040424  0
H  H6  1  0.15085892  0.24300271  0.72354286  1  0  0.093243  0.098557  0  1.032529  0
H  H7  1  0.84912045  0.75704521  0.27648872  1  0  0.093284  0.098725  0  1.032373  0
H  H8  1  0.20822465  0.00718146  0.64423164  1  0  0.097624  0.100766  0  1.014685  0
H  H9  1  0.79177589  0.99287221  0.35578626  1  0  0.097653  0.100846  0  1.014859  0
H  H10  1  0.26655885  0.86653096  0.78417344  1  0  0.099868  0.107191  0  1.05453  0
H  H11  1  0.73340160  0.13350084  0.21582813  1  0  0.099855  0.107163  0  1.054515  0
H  H12  1  0.33881674  0.71085418  0.28421797  1  0  0.10455  0.140244  0  1.028789  0
H  H13  1  0.66121054  0.28911990  0.71575253  1  0  0.104409  0.140188  0  1.028988  0
H  H14  1  0.17443354  0.50683868  0.84110875  1  0  0.122324  0.077255  0  0.955653  0
H  H15  1  0.82558370  0.49316803  0.15886343  1  0  0.122274  0.077234  0  0.955651  0
H  H16  1  0.43598974  0.55846314  0.87219206  1  0  0.114315  0.086096  0  1.004561  0
H  H17  1  0.56402111  0.44157518  0.12774835  1  0  0.114311  0.086036  0  1.004432  0
Pb  Pb18  1  0.19360689  0.42741597  0.40868488  1  0  0.47192  0.901722  0  2.148248  0
Pb  Pb19  1  0.80653841  0.57258155  0.59136907  1  0  0.471902  0.901606  0  2.148619  0
C  C20  1  0.28255122  0.10871302  0.42019060  1  0  0.044323  0.084483  0  3.978379  0
C  C21  1  0.71744436  0.89125708  0.57981037  1  0  0.044187  0.084034  0  3.978541  0
C  C22  1  0.30261646  0.97366287  0.38403045  1  0  -0.074204  -0.149243  0  3.905936  0
C  C23  1  0.69736791  0.02630273  0.61595742  1  0  -0.074163  -0.149033  0  3.905858  0
C  C24  1  0.29926632  0.90975078  0.25772176  1  0  0.008187  0.118935  0  4.02059  0
C  C25  1  0.70069773  0.09021726  0.74225961  1  0  0.008095  0.118815  0  4.020605  0
C  C26  1  0.27371043  0.98859475  0.16945841  1  0  0.002553  -0.024701  0  3.953784  0
C  C27  1  0.72624383  0.01138743  0.83053288  1  0  0.002786  -0.02426  0  3.953549  0
C  C28  1  0.24649483  0.12328914  0.21541995  1  0  0.11386  0.087058  0  3.973373  0
C  C29  1  0.75346770  0.87669229  0.78458287  1  0  0.113634  0.086558  0  3.973576  0
C  C30  1  0.19996580  0.20436859  0.12732530  1  0  0.149054  0.314635  0  4.020682  0
C  C31  1  0.80001911  0.79563624  0.87269723  1  0  0.149011  0.31453  0  4.021041  0
C  C32  1  0.20852868  0.14872426  0.99641715  1  0  -0.025231  -0.070333  0  3.981689  0
C  C33  1  0.79143156  0.85127773  0.00359801  1  0  -0.025335  -0.07019  0  3.981516  0
C  C34  1  0.17693729  0.22967774  0.91399620  1  0  -0.0864  -0.093672  0  3.968614  0
C  C35  1  0.82302204  0.77034484  0.08602972  1  0  -0.086521  -0.094121  0  3.968847  0
C  C36  1  0.17782666  0.18114508  0.78796221  1  0  -0.089672  -0.082631  0  3.988599  0
C  C37  1  0.82214209  0.81889529  0.21206630  1  0  -0.089663  -0.082623  0  3.988269  0
C  C38  1  0.21052953  0.04948510  0.74340278  1  0  -0.079675  -0.045448  0  3.961307  0
C  C39  1  0.78944899  0.95055554  0.25661198  1  0  -0.079769  -0.045656  0  3.96167  0
C  C40  1  0.24277886  0.96805406  0.82325303  1  0  -0.090647  -0.12962  0  3.936002  0
C  C41  1  0.75717899  0.03197356  0.17675168  1  0  -0.090497  -0.12933  0  3.935968  0
C  C42  1  0.24250451  0.01535899  0.95186016  1  0  -0.001303  0.06676  0  3.974583  0
C  C43  1  0.75743109  0.98464528  0.04813994  1  0  -0.001265  0.06663  0  3.974268  0
C  C44  1  0.27023109  0.93259691  0.03861667  1  0  -0.017564  -0.082925  0  4.025031  0
C  C45  1  0.72970437  0.06739290  0.96136861  1  0  -0.017669  -0.083086  0  4.025082  0
C  C46  1  0.29128460  0.79761149  0.00554980  1  0  0.104497  0.156857  0  3.995818  0
C  C47  1  0.70866560  0.20238595  0.99442582  1  0  0.104442  0.156682  0  3.995586  0
C  C48  1  0.31176963  0.71915454  0.09284355  1  0  0.089001  0.180048  0  4.084198  0
C  C49  1  0.68822700  0.28083917  0.90712568  1  0  0.088818  0.180171  0  4.083949  0
C  C50  1  0.31752835  0.77075364  0.21771204  1  0  -0.094319  -0.233838  0  3.934221  0
C  C51  1  0.68246549  0.22922560  0.78226242  1  0  -0.094154  -0.233796  0  3.934035  0
C  C52  1  0.30909702  0.58349714  0.90094327  1  0  0.044661  0.169894  0  3.769198  0
C  C53  1  0.69091872  0.41652390  0.09901689  1  0  0.044764  0.1701  0  3.768696  0
N  N54  1  0.25336427  0.18141771  0.33764212  1  0  -0.292559  -0.24691  0  3.476303  0
N  N55  1  0.74662554  0.81855635  0.66236786  1  0  -0.292416  -0.246399  0  3.476106  0
Cl  Cl56  1  0.89302289  0.29222357  0.49482968  1  0  -0.305465  -0.564997  0  1.052492  0
Cl  Cl57  1  0.10710523  0.70779286  0.50518203  1  0  -0.305519  -0.565111  0  1.052203  0
Cl  Cl58  1  0.43883120  0.44753102  0.63645000  1  0  -0.249281  -0.501921  0  1.183299  0
Cl  Cl59  1  0.56137192  0.55235396  0.36357346  1  0  -0.249313  -0.501967  0  1.183247  0
O  O60  1  0.15135568  0.31581918  0.16273737  1  0  -0.261867  -0.426175  0  2.240141  0
O  O61  1  0.84868230  0.68420383  0.83731119  1  0  -0.261742  -0.426117  0  2.240464  0
O  O62  1  0.32778805  0.59075338  0.03218002  1  0  -0.157354  -0.177716  0  2.447283  0
O  O63  1  0.67227127  0.40925872  0.96778373  1  0  -0.157278  -0.177838  0  2.447227  0
O  O64  1  0.29726129  0.71953963  0.89071803  1  0  -0.142782  -0.165715  0  2.490226  0
O  O65  1  0.70270534  0.28047581  0.10925404  1  0  -0.142772  -0.16574  0  2.48987  0
