# generated using pymatgen
data_CdBH12C8N3O4
_symmetry_space_group_name_H-M   'P 1'
_cell_length_a   11.46119445
_cell_length_b   11.46121933
_cell_length_c   22.82099275
_cell_angle_alpha   90.00003846
_cell_angle_beta   89.99993412
_cell_angle_gamma   119.99996322
_symmetry_Int_Tables_number   1
_chemical_formula_structural   CdBH12C8N3O4
_chemical_formula_sum   'Cd6 B6 H72 C48 N18 O24'
_cell_volume   2596.12757692
_cell_formula_units_Z   6
loop_
 _symmetry_equiv_pos_site_id
 _symmetry_equiv_pos_as_xyz
  1  'x, y, z'
loop_
 _atom_site_type_symbol
 _atom_site_label
 _atom_site_symmetry_multiplicity
 _atom_site_fract_x
 _atom_site_fract_y
 _atom_site_fract_z
 _atom_site_occupancy
 _atom_site_pbe_bader_charge
 _atom_site_pbe_bader_spin_density
 _atom_site_pbe_cm5_charge
 _atom_site_pbe_ddec_charge
 _atom_site_pbe_ddec_spin_density
 _atom_site_pbe_ddec_sum_bond_order
 _atom_site_pbe_magmom
Cd  Cd0  1  0.47439035  0.23719444  0.08333239  1  1.39892  0  0.882663  1.023976  0  2.25754  0
Cd  Cd1  1  0.23719117  0.47438544  0.24999483  1  1.398791  0  0.882695  1.024049  0  2.257395  0
Cd  Cd2  1  0.76281604  0.52562152  0.74999879  1  1.398795  0  0.88272  1.024129  0  2.257365  0
Cd  Cd3  1  0.76280597  0.23719013  0.41666267  1  1.396654  0  0.882695  1.024051  0  2.257468  0
Cd  Cd4  1  0.23720442  0.76281335  0.91666308  1  1.396842  0  0.882691  1.024025  0  2.257482  0
Cd  Cd5  1  0.52561975  0.76280997  0.58333218  1  1.39884  0  0.882727  1.024131  0  2.257344  0
B  B6  1  0.35134031  0.99999943  0.99999951  1  2.315509  0  -0.001399  0.815696  0  3.317205  0
B  B7  1  0.35134548  0.35133913  0.16666668  1  2.322391  0  -0.001367  0.815635  0  3.317193  0
B  B8  1  0.00000322  0.64866063  0.83333283  1  2.315601  0  -0.001379  0.815706  0  3.317117  0
B  B9  1  0.00000431  0.35134310  0.33333131  1  2.315277  0  -0.001377  0.815715  0  3.317047  0
B  B10  1  0.64866237  0.00000462  0.49999866  1  2.315554  0  -0.001348  0.815746  0  3.31704  0
B  B11  1  0.64865832  0.64865919  0.66666768  1  2.321961  0  -0.001358  0.815693  0  3.317271  0
H  H12  1  0.13771842  0.95872731  0.11179500  1  0.041036  0  0.094815  0.089219  0  1.004771  0
H  H13  1  0.17899391  0.13771933  0.27846156  1  0.028918  0  0.094822  0.089245  0  1.00478  0
H  H14  1  0.04127305  0.86227979  0.72153754  1  0.040524  0  0.094805  0.089197  0  1.004791  0
H  H15  1  0.04127674  0.17899241  0.44512483  1  0.054688  0  0.094818  0.089269  0  1.004759  0
H  H16  1  0.17898915  0.04126971  0.88820496  1  0.052906  0  0.094801  0.089197  0  1.004754  0
H  H17  1  0.86228373  0.04127627  0.61179347  1  0.040783  0  0.094809  0.089239  0  1.004767  0
H  H18  1  0.13771679  0.17898427  0.05487403  1  0.028727  0  0.094812  0.089195  0  1.00475  0
H  H19  1  0.82101113  0.86228453  0.77846078  1  0.028836  0  0.094798  0.089213  0  1.004792  0
H  H20  1  0.95873390  0.13771878  0.22153612  1  0.040357  0  0.094795  0.089132  0  1.004757  0
H  H21  1  0.95873093  0.82101548  0.94512570  1  0.052715  0  0.094805  0.089196  0  1.004748  0
H  H22  1  0.82101667  0.95873316  0.38820477  1  0.052857  0  0.094789  0.089145  0  1.004817  0
H  H23  1  0.86228602  0.82101178  0.55487452  1  0.028948  0  0.09482  0.089248  0  1.004743  0
H  H24  1  0.16430860  0.82771749  0.08405165  1  0.023902  0  0.089405  0.076575  0  1.019827  0
H  H25  1  0.33659238  0.16430412  0.25072040  1  0.022165  0  0.089395  0.076574  0  1.019912  0
H  H26  1  0.17228537  0.83569302  0.74927906  1  0.023857  0  0.089394  0.076574  0  1.019861  0
H  H27  1  0.17228991  0.33659089  0.41738325  1  0.03385  0  0.089397  0.076548  0  1.019877  0
H  H28  1  0.33658988  0.17228069  0.91594694  1  0.033891  0  0.089392  0.076566  0  1.019862  0
H  H29  1  0.83569672  0.17228820  0.58405150  1  0.023876  0  0.089394  0.076576  0  1.019839  0
H  H30  1  0.16430879  0.33658363  0.08261517  1  0.022317  0  0.089381  0.076537  0  1.019816  0
H  H31  1  0.66340850  0.83569349  0.75072189  1  0.022222  0  0.089406  0.07659  0  1.01981  0
H  H32  1  0.82772474  0.16431280  0.24927641  1  0.023746  0  0.089411  0.076553  0  1.019815  0
H  H33  1  0.82772259  0.66341572  0.91738459  1  0.033979  0  0.08937  0.076509  0  1.019873  0
H  H34  1  0.66341386  0.82772420  0.41594504  1  0.033961  0  0.089391  0.076555  0  1.019823  0
H  H35  1  0.83569359  0.66341105  0.58261563  1  0.022274  0  0.089404  0.076588  0  1.019815  0
H  H36  1  0.08713115  0.89701941  0.03868731  1  0.034474  0  0.090684  0.075282  0  1.01305  0
H  H37  1  0.19011342  0.08713125  0.20535343  1  0.0351  0  0.09068  0.075302  0  1.012999  0
H  H38  1  0.10297996  0.91286809  0.79464522  1  0.032322  0  0.090669  0.075257  0  1.013006  0
H  H39  1  0.10297946  0.19011113  0.37201668  1  0.035016  0  0.090712  0.075338  0  1.013053  0
H  H40  1  0.19011146  0.10297895  0.96131309  1  0.036969  0  0.090703  0.075309  0  1.013056  0
H  H41  1  0.91286954  0.10298053  0.53868578  1  0.034419  0  0.090693  0.075313  0  1.013054  0
H  H42  1  0.08713060  0.19010672  0.12798173  1  0.035084  0  0.090701  0.075262  0  1.013051  0
H  H43  1  0.80988728  0.91287010  0.70535355  1  0.03546  0  0.090709  0.075331  0  1.013057  0
H  H44  1  0.89702031  0.08713003  0.29464338  1  0.035606  0  0.090671  0.075226  0  1.012934  0
H  H45  1  0.89702400  0.80989238  0.87201759  1  0.034926  0  0.090718  0.075302  0  1.013059  0
H  H46  1  0.80989158  0.89702132  0.46131201  1  0.037014  0  0.090694  0.075302  0  1.013057  0
H  H47  1  0.91286742  0.80988874  0.62798307  1  0.034557  0  0.09072  0.075345  0  1.013006  0
H  H48  1  0.67079969  0.24275457  0.96568132  1  0.038651  0  0.092901  0.087177  0  1.019167  0
H  H49  1  0.42804748  0.67080063  0.13234831  1  0.034197  0  0.092873  0.087091  0  1.019181  0
H  H50  1  0.75724445  0.32919909  0.86765052  1  0.038772  0  0.09288  0.087125  0  1.019134  0
H  H51  1  0.75724221  0.42804460  0.29901840  1  0.034909  0  0.092883  0.087184  0  1.019019  0
H  H52  1  0.42804577  0.75724510  0.03431797  1  0.034907  0  0.092882  0.087135  0  1.019133  0
H  H53  1  0.32919972  0.75724410  0.46568486  1  0.038642  0  0.092881  0.087159  0  1.019062  0
H  H54  1  0.67080924  0.42804683  0.20098237  1  0.034214  0  0.092909  0.087238  0  1.019164  0
H  H55  1  0.57195879  0.32919704  0.63235275  1  0.034369  0  0.092921  0.087294  0  1.019134  0
H  H56  1  0.24276402  0.67080639  0.36764487  1  0.039058  0  0.092903  0.087267  0  1.019177  0
H  H57  1  0.24276117  0.57195564  0.79901698  1  0.034937  0  0.092932  0.087291  0  1.019169  0
H  H58  1  0.57196076  0.24276471  0.53431318  1  0.034932  0  0.092902  0.087246  0  1.019201  0
H  H59  1  0.32919482  0.57195989  0.70098090  1  0.034369  0  0.092912  0.087262  0  1.019151  0
H  H60  1  0.53969765  0.16371648  0.91218455  1  0.02057  0  0.088724  0.07612  0  1.015094  0
H  H61  1  0.37598390  0.53969883  0.07885019  1  0.045768  0  0.088719  0.076131  0  1.015048  0
H  H62  1  0.83628339  0.46030180  0.92114775  1  0.020927  0  0.088763  0.076183  0  1.015024  0
H  H63  1  0.83628197  0.37598312  0.24552069  1  0.038239  0  0.088765  0.076199  0  1.015107  0
H  H64  1  0.37598123  0.83628376  0.08781479  1  0.037507  0  0.088743  0.076169  0  1.015039  0
H  H65  1  0.46029985  0.83628418  0.41218760  1  0.020555  0  0.08877  0.076192  0  1.015127  0
H  H66  1  0.53970786  0.37597891  0.25447920  1  0.044961  0  0.088761  0.076179  0  1.015127  0
H  H67  1  0.62401848  0.46029584  0.57885464  1  0.046283  0  0.088796  0.076263  0  1.015087  0
H  H68  1  0.16372521  0.53970696  0.42114255  1  0.020656  0  0.088812  0.076298  0  1.015094  0
H  H69  1  0.16372465  0.62401921  0.74551933  1  0.039145  0  0.088742  0.076186  0  1.015126  0
H  H70  1  0.62402107  0.16372495  0.58781038  1  0.037613  0  0.0888  0.076263  0  1.015108  0
H  H71  1  0.46029636  0.62402407  0.75447898  1  0.044957  0  0.088768  0.076208  0  1.015102  0
H  H72  1  0.59846694  0.06657635  0.94999488  1  0.043474  0  0.09443  0.087124  0  0.992749  0
H  H73  1  0.53189387  0.59846788  0.11666095  1  0.059666  0  0.094405  0.087072  0  0.99277  0
H  H74  1  0.93342357  0.40153140  0.88333735  1  0.043639  0  0.094441  0.087102  0  0.992744  0
H  H75  1  0.93342326  0.53188993  0.28333061  1  0.025901  0  0.094419  0.087115  0  0.99281  0
H  H76  1  0.53189076  0.93342439  0.05000396  1  0.025895  0  0.09443  0.087105  0  0.992793  0
H  H77  1  0.40153099  0.93342383  0.44999756  1  0.04364  0  0.094412  0.087088  0  0.992771  0
H  H78  1  0.59847675  0.53189043  0.21667147  1  0.059995  0  0.094433  0.087098  0  0.992825  0
H  H79  1  0.46810870  0.40152304  0.61666548  1  0.059963  0  0.09445  0.087161  0  0.99283  0
H  H80  1  0.06658598  0.59847821  0.38333222  1  0.043233  0  0.094428  0.087134  0  0.992831  0
H  H81  1  0.06658480  0.46811090  0.78332970  1  0.02627  0  0.094436  0.087137  0  0.992848  0
H  H82  1  0.46811272  0.06658844  0.54999961  1  0.026319  0  0.094423  0.087138  0  0.99291  0
H  H83  1  0.40152429  0.46811231  0.71666992  1  0.059781  0  0.094434  0.087126  0  0.992839  0
C  C84  1  0.97223891  0.48611378  0.08332264  1  0.398389  0  -0.041966  -0.21747  0  4.306565  0
C  C85  1  0.48611340  0.97223178  0.24999265  1  0.398999  0  -0.041875  -0.217256  0  4.306732  0
C  C86  1  0.51388868  0.02777509  0.74999966  1  0.401191  0  -0.041903  -0.217472  0  4.306626  0
C  C87  1  0.51388353  0.48611497  0.41665841  1  0.377833  0  -0.041898  -0.217339  0  4.306812  0
C  C88  1  0.48613598  0.51389159  0.91667216  1  0.37583  0  -0.042017  -0.217492  0  4.306707  0
C  C89  1  0.02776833  0.51388475  0.58332703  1  0.39897  0  -0.041913  -0.217388  0  4.30659  0
C  C90  1  0.83112926  0.41556157  0.08332267  1  0.815839  0  0.197622  0.3039  0  4.099451  0
C  C91  1  0.41555743  0.83112271  0.24999221  1  0.815845  0  0.197365  0.303594  0  4.099228  0
C  C92  1  0.58444626  0.16888778  0.75000097  1  0.816198  0  0.197472  0.303792  0  4.098959  0
C  C93  1  0.58443546  0.41555637  0.41665574  1  0.8234  0  0.197436  0.303734  0  4.099221  0
C  C94  1  0.41557345  0.58444161  0.91666913  1  0.823488  0  0.197479  0.303653  0  4.099577  0
C  C95  1  0.16888161  0.58443858  0.58332524  1  0.815999  0  0.197466  0.303693  0  4.099227  0
C  C96  1  0.04260138  0.54821801  0.03182823  1  0.853212  0  0.194854  0.297465  0  4.09878  0
C  C97  1  0.49436861  0.04259453  0.19849736  1  0.854266  0  0.194803  0.2973  0  4.09885  0
C  C98  1  0.45178219  0.95741929  0.80149671  1  0.852252  0  0.194943  0.297605  0  4.099029  0
C  C99  1  0.45177584  0.49437312  0.36516330  1  0.855098  0  0.194866  0.297439  0  4.098812  0
C  C100  1  0.49438153  0.45178448  0.96816772  1  0.854843  0  0.194917  0.297547  0  4.098714  0
C  C101  1  0.95740711  0.45177763  0.53183205  1  0.852195  0  0.194789  0.297351  0  4.09874  0
C  C102  1  0.04259867  0.49436431  0.13482418  1  0.85651  0  0.195144  0.297736  0  4.099254  0
C  C103  1  0.50564432  0.95741904  0.69850337  1  0.852146  0  0.194948  0.297562  0  4.098875  0
C  C104  1  0.54822868  0.04258742  0.30149155  1  0.852079  0  0.194984  0.297576  0  4.099075  0
C  C105  1  0.54823976  0.50563747  0.86517351  1  0.855104  0  0.194963  0.297568  0  4.098854  0
C  C106  1  0.50564173  0.54822696  0.46815662  1  0.853314  0  0.194928  0.297478  0  4.098957  0
C  C107  1  0.95741406  0.50564084  0.63482670  1  0.855915  0  0.195012  0.297642  0  4.099294  0
C  C108  1  0.16442878  0.92129401  0.07269765  1  0.438024  0  -0.134881  -0.0982  0  3.968418  0
C  C109  1  0.24313837  0.16442750  0.23936465  1  0.45263  0  -0.13492  -0.098322  0  3.968426  0
C  C110  1  0.07870732  0.83557048  0.76063486  1  0.44073  0  -0.134877  -0.098205  0  3.968441  0
C  C111  1  0.07871038  0.24313439  0.40602837  1  0.416038  0  -0.134947  -0.098357  0  3.968463  0
C  C112  1  0.24313434  0.07870541  0.92730185  1  0.415846  0  -0.134881  -0.098185  0  3.968326  0
C  C113  1  0.83557483  0.07870993  0.57269659  1  0.438315  0  -0.134892  -0.098296  0  3.968469  0
C  C114  1  0.16442766  0.24312928  0.09397049  1  0.452352  0  -0.134856  -0.098089  0  3.967979  0
C  C115  1  0.75686602  0.83557359  0.73936522  1  0.452247  0  -0.134925  -0.09832  0  3.96845  0
C  C116  1  0.92129840  0.16443099  0.26063303  1  0.437619  0  -0.134834  -0.097991  0  3.96809  0
C  C117  1  0.92129664  0.75687074  0.90602924  1  0.417787  0  -0.134839  -0.098091  0  3.968159  0
C  C118  1  0.75687089  0.92129798  0.42730168  1  0.415677  0  -0.134846  -0.098119  0  3.968292  0
C  C119  1  0.83557368  0.75686641  0.59397142  1  0.452712  0  -0.134928  -0.098284  0  3.96826  0
C  C120  1  0.57735797  0.14997691  0.95462792  1  0.447768  0  -0.138103  -0.103185  0  3.964267  0
C  C121  1  0.42737927  0.57735510  0.12129619  1  0.408094  0  -0.138098  -0.103106  0  3.964519  0
C  C122  1  0.85002485  0.42264330  0.87870261  1  0.447294  0  -0.138152  -0.103187  0  3.964392  0
C  C123  1  0.85002372  0.42738269  0.28796188  1  0.447356  0  -0.138112  -0.10327  0  3.96419  0
C  C124  1  0.42738110  0.85002371  0.04537009  1  0.448018  0  -0.138147  -0.103231  0  3.964362  0
C  C125  1  0.42264306  0.85002538  0.45462924  1  0.447286  0  -0.138156  -0.103267  0  3.964348  0
C  C126  1  0.57737091  0.42738497  0.21203845  1  0.407946  0  -0.13817  -0.103258  0  3.964254  0
C  C127  1  0.57261765  0.42263623  0.62129715  1  0.407071  0  -0.138254  -0.103511  0  3.964506  0
C  C128  1  0.14998384  0.57736545  0.37870049  1  0.447286  0  -0.13826  -0.103565  0  3.964643  0
C  C129  1  0.14998395  0.57261676  0.78796052  1  0.445823  0  -0.138226  -0.103463  0  3.96443  0
C  C130  1  0.57262064  0.14998737  0.54536833  1  0.44742  0  -0.138211  -0.103478  0  3.964632  0
C  C131  1  0.42263602  0.57262062  0.71203648  1  0.408583  0  -0.138214  -0.103406  0  3.964499  0
N  N132  1  0.71327192  0.35663121  0.08332533  1  -1.230362  0  -0.329172  -0.409896  0  3.076956  0
N  N133  1  0.35662973  0.71326123  0.24999177  1  -1.23048  0  -0.328971  -0.409707  0  3.076668  0
N  N134  1  0.64338850  0.28674869  0.75000010  1  -1.230894  0  -0.329073  -0.409877  0  3.076636  0
N  N135  1  0.64336795  0.35663112  0.41665703  1  -1.228441  0  -0.329011  -0.409775  0  3.076752  0
N  N136  1  0.35665005  0.64337696  0.91666609  1  -1.228061  0  -0.328984  -0.409594  0  3.07697  0
N  N137  1  0.28674005  0.64337306  0.58332697  1  -1.230661  0  -0.329027  -0.409744  0  3.076782  0
N  N138  1  0.10086397  0.59904944  0.98856530  1  -1.218206  0  -0.326033  -0.407244  0  3.056774  0
N  N139  1  0.50180159  0.10085610  0.15523633  1  -1.208535  0  -0.325949  -0.407044  0  3.056789  0
N  N140  1  0.40094587  0.89915894  0.84475689  1  -1.217318  0  -0.326027  -0.407219  0  3.057129  0
N  N141  1  0.40094470  0.50180388  0.32190051  1  -1.208044  0  -0.325989  -0.407163  0  3.056713  0
N  N142  1  0.50179718  0.40094516  0.01143019  1  -1.208118  0  -0.326006  -0.407211  0  3.056811  0
N  N143  1  0.89914717  0.40094792  0.48856839  1  -1.217347  0  -0.325953  -0.407115  0  3.056575  0
N  N144  1  0.10085029  0.50178121  0.17808039  1  -1.210292  0  -0.326125  -0.407266  0  3.057701  0
N  N145  1  0.49822748  0.89915537  0.65524539  1  -1.208448  0  -0.326056  -0.407215  0  3.056995  0
N  N146  1  0.59907384  0.10084060  0.34475040  1  -1.217055  0  -0.326038  -0.40721  0  3.057256  0
N  N147  1  0.59907233  0.49821408  0.82191157  1  -1.207935  0  -0.326016  -0.407211  0  3.057006  0
N  N148  1  0.49823203  0.59907517  0.51141680  1  -1.207926  0  -0.326019  -0.407169  0  3.056965  0
N  N149  1  0.89916195  0.49822960  0.67808338  1  -1.209936  0  -0.326053  -0.407227  0  3.057572  0
O  O150  1  0.29295305  0.02276625  0.05321057  1  -1.288706  0  -0.250234  -0.469405  0  2.626868  0
O  O151  1  0.27019579  0.29295375  0.21987822  1  -1.292288  0  -0.250237  -0.469355  0  2.626838  0
O  O152  1  0.97723835  0.70704740  0.78012146  1  -1.288844  0  -0.250229  -0.469372  0  2.626881  0
O  O153  1  0.97723999  0.27019281  0.38654298  1  -1.289678  0  -0.250262  -0.469388  0  2.62687  0
O  O154  1  0.27018688  0.97723185  0.94678931  1  -1.289933  0  -0.250226  -0.469425  0  2.626794  0
O  O155  1  0.70704808  0.97724021  0.55321034  1  -1.288595  0  -0.250279  -0.469421  0  2.626949  0
O  O156  1  0.29295601  0.27018152  0.11345778  1  -1.292364  0  -0.250277  -0.46942  0  2.626562  0
O  O157  1  0.72981001  0.70704770  0.71987832  1  -1.292069  0  -0.250214  -0.469327  0  2.626788  0
O  O158  1  0.02277021  0.29295293  0.28012107  1  -1.288861  0  -0.250239  -0.469443  0  2.626733  0
O  O159  1  0.02277143  0.72981668  0.88654218  1  -1.289656  0  -0.25027  -0.469446  0  2.626708  0
O  O160  1  0.72981743  0.02277067  0.44678929  1  -1.289909  0  -0.250266  -0.469437  0  2.626789  0
O  O161  1  0.70704630  0.72981317  0.61345702  1  -1.292176  0  -0.250276  -0.469486  0  2.626851  0
O  O162  1  0.48347712  0.12407714  0.00013747  1  -1.288986  0  -0.250561  -0.469199  0  2.661211  0
O  O163  1  0.35940495  0.48347747  0.16680210  1  -1.28711  0  -0.25054  -0.469157  0  2.661411  0
O  O164  1  0.87592526  0.51652068  0.83319584  1  -1.289113  0  -0.250556  -0.469208  0  2.661381  0
O  O165  1  0.87592554  0.35939998  0.33347128  1  -1.28477  0  -0.250556  -0.469184  0  2.661087  0
O  O166  1  0.35940065  0.87592199  0.99986189  1  -1.284992  0  -0.250509  -0.469141  0  2.661241  0
O  O167  1  0.51652476  0.87592691  0.50013819  1  -1.288752  0  -0.250531  -0.469152  0  2.661172  0
O  O168  1  0.48348392  0.35940252  0.16652554  1  -1.286234  0  -0.250457  -0.469136  0  2.660952  0
O  O169  1  0.64059836  0.51652136  0.66680656  1  -1.286998  0  -0.250493  -0.469145  0  2.661109  0
O  O170  1  0.12408067  0.48348218  0.33319020  1  -1.288511  0  -0.250438  -0.469054  0  2.661117  0
O  O171  1  0.12408177  0.64060325  0.83347258  1  -1.284888  0  -0.250445  -0.469064  0  2.661017  0
O  O172  1  0.64060341  0.12408242  0.49985758  1  -1.284893  0  -0.250438  -0.469057  0  2.661038  0
O  O173  1  0.51651925  0.64059818  0.66652705  1  -1.286784  0  -0.250485  -0.469148  0  2.661116  0
