# generated using pymatgen
data_AlH12C18NO7
_symmetry_space_group_name_H-M   'P 1'
_cell_length_a   6.64886086
_cell_length_b   20.94707939
_cell_length_c   21.40664280
_cell_angle_alpha   90.00003064
_cell_angle_beta   90.00174483
_cell_angle_gamma   96.23969968
_symmetry_Int_Tables_number   1
_chemical_formula_structural   AlH12C18NO7
_chemical_formula_sum   'Al4 H48 C72 N4 O28'
_cell_volume   2963.73130894
_cell_formula_units_Z   4
loop_
 _symmetry_equiv_pos_site_id
 _symmetry_equiv_pos_as_xyz
  1  'x, y, z'
loop_
 _atom_site_type_symbol
 _atom_site_label
 _atom_site_symmetry_multiplicity
 _atom_site_fract_x
 _atom_site_fract_y
 _atom_site_fract_z
 _atom_site_occupancy
 _atom_site_pbe_bader_charge
 _atom_site_pbe_bader_spin_density
 _atom_site_pbe_cm5_charge
 _atom_site_pbe_ddec_charge
 _atom_site_pbe_ddec_spin_density
 _atom_site_pbe_ddec_sum_bond_order
 _atom_site_pbe_magmom
Al  Al0  1  0.92810479  0.69010042  0.49664823  1  2.500486  0  0.395689  1.637101  0  2.580627  0
Al  Al1  1  0.07191108  0.30990363  0.99665114  1  2.500508  0  0.395678  1.63722  0  2.580471  0
Al  Al2  1  0.42753140  0.69011539  0.49496372  1  2.500103  0  0.398423  1.632734  0  2.573331  0
Al  Al3  1  0.57247579  0.30988471  0.99496474  1  2.500359  0  0.398385  1.632476  0  2.573594  0
H  H4  1  0.00018448  0.51114345  0.05243622  1  0.109463  0  0.109121  0.113379  0  0.98331  0
H  H5  1  0.99991877  0.48884598  0.55242445  1  0.110898  0  0.109117  0.113262  0  0.983504  0
H  H6  1  0.93561454  0.65625882  0.21818701  1  0.055607  0  0.104947  0.105983  0  0.98977  0
H  H7  1  0.06444825  0.34373510  0.71817589  1  0.055654  0  0.104874  0.105923  0  0.989703  0
H  H8  1  0.01005095  0.60741928  0.12135599  1  0.088199  0  0.103982  0.105427  0  0.995667  0
H  H9  1  0.99005803  0.39257384  0.62134086  1  0.08804  0  0.104032  0.105387  0  0.99553  0
H  H10  1  0.48173911  0.48157892  0.45412830  1  0.05023  0  0.110844  0.114272  0  0.982884  0
H  H11  1  0.51823515  0.51842397  0.95414092  1  0.04962  0  0.110828  0.114274  0  0.982719  0
H  H12  1  0.57779906  0.38053192  0.40511329  1  0.046206  0  0.107648  0.105432  0  0.988844  0
H  H13  1  0.42214958  0.61946520  0.90512141  1  0.046083  0  0.107633  0.105388  0  0.988944  0
H  H14  1  0.78547418  0.65010583  0.32333587  1  0.07525  0  0.10618  0.114001  0  1.006398  0
H  H15  1  0.21455323  0.34989096  0.82333419  1  0.076886  0  0.106219  0.11403  0  1.006229  0
H  H16  1  0.42572286  0.80651853  0.34242745  1  0.138422  0  0.112559  0.119373  0  0.985513  0
H  H17  1  0.57422178  0.19349169  0.84243121  1  0.138723  0  0.112586  0.119322  0  0.985632  0
H  H18  1  0.44620833  0.90063931  0.26807116  1  0.090254  0  0.114033  0.121459  0  1.00049  0
H  H19  1  0.55376529  0.09937144  0.76807479  1  0.090628  0  0.11401  0.121392  0  1.000528  0
H  H20  1  0.41588972  0.02889154  0.13017392  1  0.152315  0  0.118283  0.134015  0  0.997157  0
H  H21  1  0.58413076  0.97111012  0.63018240  1  0.15213  0  0.118291  0.134012  0  0.997055  0
H  H22  1  0.47055764  0.12935802  0.06532549  1  0.100106  0  0.113895  0.118606  0  0.992907  0
H  H23  1  0.52947221  0.87063727  0.56533978  1  0.100284  0  0.113911  0.118513  0  0.992931  0
H  H24  1  0.02874535  0.86718694  0.40712908  1  0.106103  0  0.112451  0.118621  0  0.98862  0
H  H25  1  0.97121222  0.13282178  0.90711232  1  0.105935  0  0.112474  0.118628  0  0.988464  0
H  H26  1  0.04352627  0.96392430  0.33631047  1  0.105765  0  0.115769  0.124139  0  0.981728  0
H  H27  1  0.95645093  0.03608102  0.83629732  1  0.105713  0  0.115791  0.124182  0  0.98161  0
H  H28  1  0.06815345  0.08960968  0.26858687  1  0.100171  0  0.10105  0.03633  0  0.98059  0
H  H29  1  0.93182941  0.91040836  0.76857885  1  0.100562  0  0.101057  0.036308  0  0.980631  0
H  H30  1  0.18483447  0.20640987  0.10486692  1  0.127734  0  0.117681  0.069027  0  1.01929  0
H  H31  1  0.81520666  0.79358094  0.60486773  1  0.119512  0  0.117649  0.069082  0  1.019332  0
H  H32  1  0.54562975  0.30444060  0.23411675  1  0.059235  0  0.10658  0.074225  0  0.976959  0
H  H33  1  0.57032158  0.31543269  0.15221839  1  0.070561  0  0.101285  0.072559  0  1.018894  0
H  H34  1  0.36889158  0.40450435  0.24161973  1  0.058733  0  0.093919  0.098617  0  0.986097  0
H  H35  1  0.38462060  0.41318098  0.15926589  1  0.008868  0  0.086802  0.078591  0  0.989793  0
H  H36  1  0.18794857  0.30226867  0.14757192  1  0.004642  0  0.082719  0.099714  0  1.070578  0
H  H37  1  0.04928404  0.35342596  0.19203452  1  0.073825  0  0.084816  0.11829  0  1.080806  0
H  H38  1  0.17727392  0.29533004  0.22995894  1  0.032153  0  0.085275  0.120151  0  1.001732  0
H  H39  1  0.45435150  0.69555431  0.73413299  1  0.058593  0  0.106576  0.074248  0  0.97692  0
H  H40  1  0.42962695  0.68457490  0.65223219  1  0.070739  0  0.101301  0.072491  0  1.01892  0
H  H41  1  0.63109496  0.59549544  0.74161741  1  0.058333  0  0.093887  0.098621  0  0.986177  0
H  H42  1  0.61529996  0.58681769  0.65926350  1  0.008615  0  0.086814  0.078613  0  0.989774  0
H  H43  1  0.81196312  0.69773224  0.64756893  1  0.003541  0  0.082681  0.099737  0  1.070493  0
H  H44  1  0.95066915  0.64656748  0.69201005  1  0.074204  0  0.084669  0.118033  0  1.080994  0
H  H45  1  0.82273039  0.70466322  0.72995506  1  0.03192  0  0.085287  0.120147  0  1.001818  0
H  H46  1  0.74836175  0.32422784  0.32037166  1  0.070342  0  0.1005  0.027847  0  0.966219  0
H  H47  1  0.25155320  0.67576614  0.82038620  1  0.070147  0  0.100462  0.027865  0  0.966317  0
H  H48  1  0.16258309  0.65762008  0.42081567  1  0.614468  0  0.353745  0.433596  0  0.851007  0
H  H49  1  0.83740255  0.34238330  0.92082143  1  0.614454  0  0.353737  0.433581  0  0.851124  0
H  H50  1  0.66393158  0.66062897  0.57124280  1  0.626042  0  0.343471  0.417964  0  0.887366  0
H  H51  1  0.33608821  0.33937102  0.07124964  1  0.626189  0  0.343406  0.417894  0  0.88748  0
C  C52  1  0.14315689  0.60769310  0.57648833  1  1.586045  0  0.277347  0.674139  0  4.058484  0
C  C53  1  0.85687592  0.39230755  0.07649292  1  1.586185  0  0.277465  0.674233  0  4.057836  0
C  C54  1  0.21738255  0.78285794  0.56267412  1  1.561091  0  0.273832  0.638434  0  4.082854  0
C  C55  1  0.78265808  0.21714035  0.06267085  1  1.560549  0  0.273761  0.638292  0  4.08336  0
C  C56  1  0.71528294  0.77546824  0.42149269  1  1.572495  0  0.267831  0.633258  0  4.107249  0
C  C57  1  0.28468178  0.22453536  0.92149306  1  1.571881  0  0.268019  0.633398  0  4.106853  0
C  C58  1  0.64047609  0.60007046  0.42490919  1  1.573781  0  0.271968  0.656366  0  4.089854  0
C  C59  1  0.35952422  0.39992832  0.92491369  1  1.574139  0  0.272078  0.656502  0  4.089445  0
C  C60  1  0.95666119  0.55979079  0.13913352  1  -0.051859  0  -0.09566  -0.148516  0  4.028281  0
C  C61  1  0.04341904  0.44020254  0.63911865  1  -0.052013  0  -0.095803  -0.148569  0  4.027641  0
C  C62  1  0.86820109  0.44597745  0.12307195  1  -0.075129  0  -0.019202  -0.142276  0  3.960358  0
C  C63  1  0.13182861  0.55401664  0.62306495  1  -0.074373  0  -0.019219  -0.142477  0  3.960443  0
C  C64  1  0.56468151  0.48316029  0.41013370  1  0.035129  0  -0.079424  -0.087705  0  3.994234  0
C  C65  1  0.43529542  0.51683863  0.91013434  1  0.033042  0  -0.07955  -0.087976  0  3.994407  0
C  C66  1  0.61475509  0.42668207  0.38177342  1  -0.035008  0  -0.081697  -0.110347  0  3.994476  0
C  C67  1  0.38520383  0.57331699  0.88177951  1  -0.031693  0  -0.081604  -0.110144  0  3.994115  0
C  C68  1  0.72782540  0.42904289  0.32701586  1  -9.5e-05  0  -0.009487  -0.01418  0  3.973852  0
C  C69  1  0.27214213  0.57095270  0.82701826  1  2.2e-05  0  -0.009618  -0.014102  0  3.973751  0
C  C70  1  0.76583910  0.48757564  0.29275462  1  0.036872  0  0.012404  0.032444  0  3.883075  0
C  C71  1  0.23416080  0.51242069  0.79275778  1  0.036352  0  0.012428  0.03238  0  3.883341  0
C  C72  1  0.73703195  0.54548354  0.32538838  1  -0.028843  0  0.000848  0.059491  0  3.965819  0
C  C73  1  0.26298049  0.45451211  0.82538367  1  -0.027887  0  0.000948  0.059467  0  3.965911  0
C  C74  1  0.82694915  0.49167846  0.22753386  1  0.004835  0  -0.000559  -0.055949  0  3.894439  0
C  C75  1  0.17306727  0.50831684  0.72753352  1  0.005242  0  -0.000631  -0.055881  0  3.893964  0
C  C76  1  0.89282610  0.55355785  0.20190691  1  0.012916  0  -0.004921  0.094129  0  4.032209  0
C  C77  1  0.10722169  0.44643438  0.70190115  1  0.012557  0  -0.004823  0.094142  0  4.03199  0
C  C78  1  0.88411111  0.60981059  0.23904164  1  -0.026894  0  -0.08924  -0.130864  0  4.025659  0
C  C79  1  0.11592936  0.39018314  0.73903495  1  -0.02675  0  -0.089169  -0.130867  0  4.025692  0
C  C80  1  0.80194987  0.60631902  0.29734629  1  -0.048909  0  -0.091991  -0.127847  0  4.017386  0
C  C81  1  0.19808029  0.39367483  0.79734270  1  -0.050527  0  -0.092205  -0.127973  0  4.0174  0
C  C82  1  0.80702106  0.43824360  0.18554964  1  0.538162  0  0.100066  0.203491  0  3.96977  0
C  C83  1  0.19297765  0.56175611  0.68554848  1  0.538036  0  0.100097  0.203531  0  3.969204  0
C  C84  1  0.94869034  0.50680222  0.10078838  1  -0.033727  0  -0.087514  -0.08808  0  4.03643  0
C  C85  1  0.05138711  0.49319235  0.60077825  1  -0.035596  0  -0.08745  -0.087684  0  4.036649  0
C  C86  1  0.64157236  0.54180613  0.38504679  1  -0.041602  0  -0.007606  -0.077367  0  3.945223  0
C  C87  1  0.35842858  0.45819681  0.88504897  1  -0.042161  0  -0.007539  -0.077203  0  3.945137  0
C  C88  1  0.76963150  0.15643623  0.10020028  1  -0.024421  0  0.000827  -0.061131  0  3.908023  0
C  C89  1  0.23040155  0.84356212  0.60020830  1  -0.025504  0  0.000851  -0.061272  0  3.908241  0
C  C90  1  0.92634362  0.13971763  0.14052543  1  -0.041584  0  -0.00445  -0.021223  0  3.905156  0
C  C91  1  0.07368122  0.86027599  0.64052821  1  -0.041259  0  -0.004616  -0.021366  0  3.905407  0
C  C92  1  0.89178398  0.08530950  0.17933993  1  -0.012111  0  0.013617  -0.029965  0  3.846232  0
C  C93  1  0.10824263  0.91469148  0.67934054  1  -0.011789  0  0.013495  -0.030262  0  3.846402  0
C  C94  1  0.70500753  0.04621879  0.17497925  1  0.364561  0  0.10445  0.142374  0  3.999328  0
C  C95  1  0.29502431  0.95378176  0.67498337  1  0.364648  0  0.104607  0.142776  0  3.99941  0
C  C96  1  0.55748739  0.06028057  0.13200073  1  -0.00923  0  -0.058413  -0.096428  0  3.897904  0
C  C97  1  0.44254352  0.93971932  0.63200867  1  -0.009664  0  -0.058493  -0.096597  0  3.897561  0
C  C98  1  0.58831757  0.11587322  0.09643334  1  0.030108  0  -0.071936  -0.077003  0  3.975852  0
C  C99  1  0.41170798  0.88412119  0.59644486  1  0.030148  0  -0.071904  -0.076648  0  3.975641  0
C  C100  1  0.57137531  0.89255585  0.29894031  1  -0.001643  0  -0.077082  -0.143746  0  3.942233  0
C  C101  1  0.42859225  0.10745303  0.79893694  1  -0.00541  0  -0.07721  -0.143702  0  3.942319  0
C  C102  1  0.56110623  0.84079843  0.33971687  1  -0.053907  0  -0.075817  -0.077913  0  3.964527  0
C  C103  1  0.43884596  0.15921379  0.83971450  1  -0.054935  0  -0.075664  -0.077816  0  3.964676  0
C  C104  1  0.74710873  0.93658261  0.29818014  1  0.295939  0  0.098436  0.174175  0  4.034222  0
C  C105  1  0.25286658  0.06342781  0.79817515  1  0.297431  0  0.098533  0.17419  0  4.034227  0
C  C106  1  0.72680892  0.83143478  0.37828044  1  -0.043245  0  -0.010689  -0.043031  0  3.965841  0
C  C107  1  0.27314264  0.16857423  0.87827419  1  -0.035908  0  -0.010813  -0.043196  0  3.966022  0
C  C108  1  0.90211646  0.87528027  0.37690130  1  -0.017274  0  -0.077293  -0.083195  0  3.972872  0
C  C109  1  0.09783068  0.12473012  0.87688503  1  -0.021836  0  -0.077329  -0.083161  0  3.972737  0
C  C110  1  0.91065412  0.92854258  0.33794941  1  0.002498  0  -0.073129  -0.135948  0  3.937669  0
C  C111  1  0.08931461  0.07146409  0.83793821  1  0.003057  0  -0.073133  -0.135963  0  3.937285  0
C  C112  1  0.05634354  0.06596502  0.22228066  1  0.958508  0  0.089307  0.265736  0  4.066666  0
C  C113  1  0.94368528  0.93404908  0.72226802  1  0.957987  0  0.089363  0.265805  0  4.066732  0
C  C114  1  0.13262356  0.17520990  0.14440034  1  0.91298  0  0.102926  0.264652  0  3.904608  0
C  C115  1  0.86741138  0.82478578  0.64439949  1  0.921342  0  0.10301  0.26453  0  3.904994  0
C  C116  1  0.55792476  0.34062544  0.19673540  1  0.360417  0  -0.066197  0.034293  0  3.86116  0
C  C117  1  0.37518005  0.37773987  0.19756472  1  -0.000975  0  -0.173635  -0.143301  0  3.989291  0
C  C118  1  0.18693396  0.32970652  0.19114439  1  -0.079945  0  -0.259829  -0.364908  0  3.952421  0
C  C119  1  0.44202335  0.65937562  0.69674549  1  0.360423  0  -0.066219  0.034281  0  3.861483  0
C  C120  1  0.62478145  0.62225992  0.69756285  1  0.000609  0  -0.173639  -0.143333  0  3.98946  0
C  C121  1  0.81302748  0.67029085  0.69113484  1  -0.079129  0  -0.259731  -0.364757  0  3.952568  0
C  C122  1  0.83976577  0.37210571  0.31670616  1  0.93569  0  0.100413  0.280173  0  4.045698  0
C  C123  1  0.16016250  0.62788315  0.81670352  1  0.935705  0  0.100215  0.279535  0  4.046705  0
N  N124  1  0.66037426  0.99068608  0.21195863  1  -0.433428  0  -0.126891  -0.099673  0  3.21265  0
N  N125  1  0.33962565  0.00932046  0.71196187  1  -0.433131  0  -0.126981  -0.099965  0  3.212934  0
N  N126  1  0.77229031  0.99126092  0.25962161  1  -0.474972  0  -0.116862  -0.08296  0  3.316062  0
N  N127  1  0.22770460  0.00874335  0.75962070  1  -0.475783  0  -0.116769  -0.082731  0  3.316139  0
O  O128  1  0.38113499  0.76727039  0.53916442  1  -1.244538  0  -0.226646  -0.568837  0  2.333492  0
O  O129  1  0.61889121  0.23272715  0.03915822  1  -1.244146  0  -0.226547  -0.568606  0  2.333506  0
O  O130  1  0.97698619  0.61915144  0.55145092  1  -1.246896  0  -0.233464  -0.588267  0  2.310958  0
O  O131  1  0.02304219  0.38084713  0.05144961  1  -1.246658  0  -0.233427  -0.588257  0  2.310535  0
O  O132  1  0.81370204  0.63145065  0.43410527  1  -1.266766  0  -0.236261  -0.615623  0  2.3713  0
O  O133  1  0.18631279  0.36854595  0.93410863  1  -1.26685  0  -0.23622  -0.615631  0  2.371496  0
O  O134  1  0.04624259  0.74965842  0.55697789  1  -1.258129  0  -0.229224  -0.592163  0  2.418269  0
O  O135  1  0.95377773  0.25034056  0.05697995  1  -1.258537  0  -0.229255  -0.592252  0  2.418671  0
O  O136  1  0.87880173  0.76293813  0.44749753  1  -1.263775  0  -0.232175  -0.579431  0  2.33843  0
O  O137  1  0.12117179  0.23706616  0.94749731  1  -1.263569  0  -0.232303  -0.579509  0  2.338238  0
O  O138  1  0.31737652  0.63598582  0.56325118  1  -1.260803  0  -0.233448  -0.60375  0  2.37077  0
O  O139  1  0.68265353  0.36401186  0.06325510  1  -1.260922  0  -0.233668  -0.603872  0  2.370531  0
O  O140  1  0.17556107  0.68617679  0.45665505  1  -1.417522  0  -0.447755  -0.985173  0  2.177792  0
O  O141  1  0.82443794  0.31382737  0.95665840  1  -1.417573  0  -0.447751  -0.985144  0  2.177967  0
O  O142  1  0.54265686  0.74348655  0.42934273  1  -1.26196  0  -0.235756  -0.594848  0  2.358628  0
O  O143  1  0.45731688  0.25651815  0.92934095  1  -1.26165  0  -0.235825  -0.594847  0  2.358336  0
O  O144  1  0.47367909  0.61339052  0.44804236  1  -1.256986  0  -0.23736  -0.592782  0  2.30578  0
O  O145  1  0.52633774  0.38661190  0.94804653  1  -1.257069  0  -0.23748  -0.592858  0  2.305559  0
O  O146  1  0.67641836  0.68967304  0.53571134  1  -1.434421  0  -0.451143  -0.986957  0  2.191704  0
O  O147  1  0.32359435  0.31032719  0.03571624  1  -1.434871  0  -0.451008  -0.986863  0  2.191925  0
O  O148  1  0.17100799  0.02687653  0.20567340  1  -1.110257  0  -0.292282  -0.403665  0  2.188686  0
O  O149  1  0.82906549  0.97314714  0.70564588  1  -1.110023  0  -0.29229  -0.403638  0  2.188514  0
O  O150  1  0.24372101  0.16847528  0.18935995  1  -1.065032  0  -0.237371  -0.326312  0  2.157251  0
O  O151  1  0.75630699  0.83152480  0.68935356  1  -1.06492  0  -0.23737  -0.326203  0  2.157412  0
O  O152  1  0.74965114  0.37857366  0.21019794  1  -1.074791  0  -0.17529  -0.218044  0  2.638301  0
O  O153  1  0.25032435  0.62142587  0.71020123  1  -1.075128  0  -0.17518  -0.217923  0  2.638561  0
O  O154  1  0.02467637  0.37682083  0.31404053  1  -1.050345  0  -0.268172  -0.365109  0  2.160806  0
O  O155  1  0.97525763  0.62315517  0.81403249  1  -1.050654  0  -0.267861  -0.364536  0  2.161606  0
