# generated using pymatgen
data_ZnAsH6C6NO3
_symmetry_space_group_name_H-M   'P 1'
_cell_length_a   5.31446040
_cell_length_b   11.27975486
_cell_length_c   13.84905037
_cell_angle_alpha   68.63137398
_cell_angle_beta   78.90817680
_cell_angle_gamma   76.37951853
_symmetry_Int_Tables_number   1
_chemical_formula_structural   ZnAsH6C6NO3
_chemical_formula_sum   'Zn4 As4 H24 C24 N4 O12'
_cell_volume   746.15106091
_cell_formula_units_Z   4
loop_
 _symmetry_equiv_pos_site_id
 _symmetry_equiv_pos_as_xyz
  1  'x, y, z'
loop_
 _atom_site_type_symbol
 _atom_site_label
 _atom_site_symmetry_multiplicity
 _atom_site_fract_x
 _atom_site_fract_y
 _atom_site_fract_z
 _atom_site_occupancy
 _atom_site_hle17_bader_spin_density
 _atom_site_hle17_ddec_charge
 _atom_site_hle17_ddec_spin_density
 _atom_site_hle17_ddec_sum_bond_order
 _atom_site_hle17_magmom
 _atom_site_hse06_10hf_bader_spin_density
 _atom_site_hse06_10hf_ddec_charge
 _atom_site_hse06_10hf_ddec_spin_density
 _atom_site_hse06_10hf_ddec_sum_bond_order
 _atom_site_hse06_10hf_magmom
 _atom_site_hse06_bader_spin_density
 _atom_site_hse06_ddec_charge
 _atom_site_hse06_ddec_spin_density
 _atom_site_hse06_ddec_sum_bond_order
 _atom_site_hse06_magmom
 _atom_site_pbe_bader_spin_density
 _atom_site_pbe_cm5_charge
 _atom_site_pbe_ddec_charge
 _atom_site_pbe_ddec_spin_density
 _atom_site_pbe_ddec_sum_bond_order
 _atom_site_pbe_magmom
Zn  Zn0  1  0.10688524  0.47233531  0.62446888  1  0  1.12213  0  1.849103  0  0  0.946757  0  2.343412  0  0  0.992012  0  2.280383  0  0  0.65797  0.914996  0  2.38678  0
Zn  Zn1  1  0.20332531  0.02781476  0.87549169  1  0  1.123097  0  1.84788  0  0  0.947602  0  2.342443  0  0  0.992878  0  2.279292  0  0  0.65811  0.915811  0  2.385905  0
Zn  Zn2  1  0.89310897  0.52766523  0.37552915  1  0  1.122183  0  1.84907  0  0  0.946789  0  2.343365  0  0  0.992053  0  2.28034  0  0  0.65799  0.915031  0  2.386725  0
Zn  Zn3  1  0.79667529  0.97218966  0.12450521  1  0  1.123068  0  1.847789  0  0  0.947623  0  2.342334  0  0  0.992896  0  2.279186  0  0  0.658115  0.915825  0  2.385799  0
As  As4  1  0.56342269  0.64815138  0.54698612  1  0  1.517117  0  4.029646  0  0  1.457969  0  4.475824  0  0  1.505946  0  4.447631  0  0  0.572936  1.424188  0  4.49516  0
As  As5  1  0.75808545  0.85192857  0.95297130  1  0  1.516503  0  4.031187  0  0  1.456898  0  4.477475  0  0  1.504852  0  4.449305  0  0  0.572905  1.423097  0  4.496848  0
As  As6  1  0.43657755  0.35184527  0.45301407  1  0  1.517017  0  4.029725  0  0  1.457887  0  4.475936  0  0  1.505871  0  4.447743  0  0  0.572878  1.424093  0  4.495293  0
As  As7  1  0.24191154  0.14807288  0.04702910  1  0  1.516442  0  4.031159  0  0  1.45686  0  4.477448  0  0  1.504818  0  4.449273  0  0  0.572909  1.423079  0  4.496784  0
H  H8  1  0.35676884  0.17676633  0.67805246  1  0  0.336575  0  0.917538  0  0  0.321772  0  0.974537  0  0  0.329588  0  0.96854  0  0  0.287652  0.31624  0  0.97874  0
H  H9  1  0.21088268  0.32323809  0.82200733  1  0  0.336445  0  0.917282  0  0  0.321669  0  0.974429  0  0  0.329487  0  0.968435  0  0  0.287521  0.316143  0  0.978608  0
H  H10  1  0.64324459  0.82323134  0.32194546  1  0  0.336579  0  0.917543  0  0  0.321802  0  0.974503  0  0  0.329618  0  0.968505  0  0  0.287656  0.316269  0  0.978704  0
H  H11  1  0.78911186  0.67676437  0.17799108  1  0  0.336388  0  0.917375  0  0  0.32161  0  0.974523  0  0  0.329426  0  0.968532  0  0  0.287495  0.316083  0  0.978698  0
H  H12  1  0.59825987  0.08376713  0.75242268  1  0  0.321143  0  0.886656  0  0  0.313227  0  0.933708  0  0  0.319815  0  0.92877  0  0  0.300067  0.308528  0  0.937245  0
H  H13  1  0.43408089  0.41613049  0.74764909  1  0  0.320737  0  0.886261  0  0  0.311786  0  0.93512  0  0  0.318399  0  0.930153  0  0  0.299207  0.307073  0  0.938665  0
H  H14  1  0.40174851  0.91623144  0.24757775  1  0  0.321198  0  0.886618  0  0  0.313291  0  0.933671  0  0  0.319879  0  0.92873  0  0  0.300103  0.30859  0  0.937207  0
H  H15  1  0.56591080  0.58387488  0.25234843  1  0  0.320705  0  0.886223  0  0  0.311755  0  0.935082  0  0  0.31837  0  0.930112  0  0  0.2992  0.307041  0  0.938626  0
H  H16  1  0.84080426  0.89923790  0.72976416  1  0  0.096387  0  1.011943  0  0  0.10238  0  1.08178  0  0  0.104965  0  1.081735  0  0  0.098847  0.100515  0  1.081965  0
H  H17  1  0.46944623  0.60078941  0.77023913  1  0  0.096595  0  1.012846  0  0  0.102482  0  1.082573  0  0  0.105007  0  1.082772  0  0  0.098825  0.100571  0  1.082681  0
H  H18  1  0.15920770  0.10075778  0.27023643  1  0  0.096347  0  1.012082  0  0  0.10239  0  1.081851  0  0  0.104976  0  1.081805  0  0  0.09887  0.100526  0  1.082027  0
H  H19  1  0.53054257  0.39921301  0.22976117  1  0  0.096594  0  1.012791  0  0  0.102465  0  1.082526  0  0  0.104991  0  1.082722  0  0  0.098834  0.100552  0  1.082641  0
H  H20  1  0.90054606  0.72445483  0.65501391  1  0  0.094856  0  0.982483  0  0  0.101658  0  1.052342  0  0  0.104124  0  1.051101  0  0  0.100207  0.099786  0  1.053386  0
H  H21  1  0.27949532  0.77557703  0.84499708  1  0  0.095043  0  0.983245  0  0  0.101894  0  1.053137  0  0  0.104441  0  1.051781  0  0  0.100245  0.100005  0  1.054216  0
H  H22  1  0.09946730  0.27553986  0.34498780  1  0  0.094911  0  0.982479  0  0  0.101693  0  1.052346  0  0  0.104164  0  1.051092  0  0  0.100214  0.099807  0  1.053403  0
H  H23  1  0.72049453  0.22442342  0.15500530  1  0  0.095114  0  0.98314  0  0  0.101955  0  1.053026  0  0  0.104488  0  1.05171  0  0  0.100272  0.100062  0  1.054105  0
H  H24  1  0.15767697  0.88981346  0.53506145  1  0  0.093523  0  0.957609  0  0  0.104659  0  1.020116  0  0  0.106828  0  1.019286  0  0  0.103337  0.10308  0  1.020768  0
H  H25  1  0.58188857  0.61006986  0.96509140  1  0  0.094033  0  0.957975  0  0  0.105175  0  1.020391  0  0  0.107352  0  1.019532  0  0  0.103808  0.103599  0  1.021044  0
H  H26  1  0.84233462  0.11018124  0.46494012  1  0  0.093546  0  0.957695  0  0  0.104696  0  1.020192  0  0  0.106872  0  1.019342  0  0  0.10336  0.103118  0  1.020847  0
H  H27  1  0.41810236  0.38992964  0.03491050  1  0  0.093971  0  0.957992  0  0  0.10512  0  1.020425  0  0  0.107297  0  1.019565  0  0  0.103781  0.10354  0  1.021079  0
H  H28  1  0.10152213  0.06543779  0.61029539  1  0  0.112701  0  0.929116  0  0  0.125648  0  0.983613  0  0  0.128802  0  0.982396  0  0  0.1084  0.123357  0  0.984672  0
H  H29  1  0.77685144  0.43438562  0.88989016  1  0  0.112361  0  0.928584  0  0  0.125974  0  0.982141  0  0  0.129056  0  0.981028  0  0  0.108215  0.123664  0  0.983229  0
H  H30  1  0.89849302  0.93455885  0.38970524  1  0  0.112716  0  0.929196  0  0  0.125641  0  0.983706  0  0  0.128797  0  0.982487  0  0  0.108405  0.123349  0  0.984766  0
H  H31  1  0.22313674  0.56561687  0.11010694  1  0  0.112364  0  0.928535  0  0  0.12599  0  0.982085  0  0  0.129065  0  0.980985  0  0  0.108237  0.123682  0  0.983169  0
C  C32  1  0.46489319  0.99044006  0.67753412  1  0  0.280622  0  3.782996  0  0  0.278138  0  4.028184  0  0  0.286485  0  4.049362  0  0  0.086515  0.272399  0  4.013879  0
C  C33  1  0.13235296  0.50954310  0.82251471  1  0  0.27921  0  3.78307  0  0  0.276017  0  4.029223  0  0  0.284388  0  4.050351  0  0  0.085718  0.270278  0  4.014902  0
C  C34  1  0.53512123  0.00955656  0.32246724  1  0  0.280479  0  3.782941  0  0  0.278125  0  4.027977  0  0  0.286474  0  4.049146  0  0  0.086512  0.272388  0  4.013665  0
C  C35  1  0.86763730  0.49045935  0.17748413  1  0  0.279186  0  3.782973  0  0  0.275927  0  4.029197  0  0  0.284294  0  4.050326  0  0  0.085722  0.270188  0  4.014877  0
C  C36  1  0.69059159  0.89582906  0.68801451  1  0  -0.177923  0  3.727438  0  0  -0.193381  0  3.973285  0  0  -0.200306  0  3.995291  0  0  -0.100485  -0.188831  0  3.95856  0
C  C37  1  0.27400231  0.60420722  0.81198312  1  0  -0.177032  0  3.729033  0  0  -0.191877  0  3.974664  0  0  -0.198878  0  3.996712  0  0  -0.099936  -0.187205  0  3.959953  0
C  C38  1  0.30941997  0.10416851  0.31198719  1  0  -0.17802  0  3.727614  0  0  -0.193553  0  3.973433  0  0  -0.200477  0  3.995436  0  0  -0.100588  -0.188993  0  3.958685  0
C  C39  1  0.72598541  0.39579615  0.18801764  1  0  -0.176955  0  3.728873  0  0  -0.191734  0  3.974475  0  0  -0.198731  0  3.99652  0  0  -0.099893  -0.187062  0  3.959769  0
C  C40  1  0.72420015  0.79803899  0.64555975  1  0  -0.029443  0  3.786009  0  0  -0.049411  0  4.033824  0  0  -0.046942  0  4.055955  0  0  -0.085521  -0.050806  0  4.018834  0
C  C41  1  0.16722791  0.70197697  0.85444359  1  0  -0.030258  0  3.792542  0  0  -0.050799  0  4.040061  0  0  -0.048349  0  4.062179  0  0  -0.085982  -0.052197  0  4.02503  0
C  C42  1  0.27581213  0.20195665  0.35444244  1  0  -0.029375  0  3.785995  0  0  -0.049295  0  4.03382  0  0  -0.046826  0  4.055954  0  0  -0.085473  -0.050687  0  4.018834  0
C  C43  1  0.83276589  0.29802352  0.14555676  1  0  -0.030348  0  3.792479  0  0  -0.050906  0  4.040031  0  0  -0.048461  0  4.062144  0  0  -0.086057  -0.0523  0  4.024993  0
C  C44  1  0.53130643  0.79573139  0.59102001  1  0  -0.251352  0  3.750373  0  0  -0.23135  0  4.015695  0  0  -0.243685  0  4.042627  0  0  -0.056015  -0.223212  0  3.997645  0
C  C45  1  0.91747262  0.70425313  0.90902474  1  0  -0.250677  0  3.753771  0  0  -0.22954  0  4.017636  0  0  -0.241904  0  4.044646  0  0  -0.055028  -0.221371  0  3.99954  0
C  C46  1  0.46870444  0.20426523  0.40898106  1  0  -0.25138  0  3.750311  0  0  -0.231463  0  4.015757  0  0  -0.243801  0  4.042692  0  0  -0.056037  -0.223314  0  3.997701  0
C  C47  1  0.08251759  0.29574830  0.09097667  1  0  -0.250677  0  3.753629  0  0  -0.229547  0  4.017505  0  0  -0.241906  0  4.044508  0  0  -0.05499  -0.221383  0  3.999404  0
C  C48  1  0.30771954  0.89208144  0.57758856  1  0  -0.030251  0  3.79502  0  0  -0.053606  0  4.048299  0  0  -0.051299  0  4.071453  0  0  -0.08239  -0.054918  0  4.03254  0
C  C49  1  0.77675112  0.60785683  0.92250845  1  0  -0.029689  0  3.795728  0  0  -0.053647  0  4.049374  0  0  -0.051307  0  4.072431  0  0  -0.082938  -0.05497  0  4.033646  0
C  C50  1  0.69229133  0.10791519  0.42241251  1  0  -0.030217  0  3.795  0  0  -0.053567  0  4.048282  0  0  -0.051258  0  4.07144  0  0  -0.082356  -0.054886  0  4.032531  0
C  C51  1  0.22324341  0.39214368  0.07749117  1  0  -0.02957  0  3.79564  0  0  -0.053522  0  4.04926  0  0  -0.05118  0  4.07231  0  0  -0.082859  -0.054847  0  4.033537  0
C  C52  1  0.27438772  0.98956061  0.62058663  1  0  -0.156752  0  3.69735  0  0  -0.172692  0  3.948518  0  0  -0.178713  0  3.969077  0  0  -0.091767  -0.168743  0  3.934759  0
C  C53  1  0.88403738  0.51037439  0.87952728  1  0  -0.157732  0  3.698938  0  0  -0.17362  0  3.950097  0  0  -0.179597  0  3.970692  0  0  -0.091832  -0.169658  0  3.9363  0
C  C54  1  0.72562848  0.01043600  0.37941488  1  0  -0.156688  0  3.697375  0  0  -0.17263  0  3.948464  0  0  -0.178648  0  3.969014  0  0  -0.091784  -0.168684  0  3.934707  0
C  C55  1  0.11595147  0.48962710  0.12047166  1  0  -0.157759  0  3.698933  0  0  -0.173665  0  3.950144  0  0  -0.17964  0  3.970747  0  0  -0.091919  -0.169708  0  3.936344  0
N  N56  1  0.42644393  0.08448432  0.72800406  1  0  -0.684989  0  3.122331  0  0  -0.621693  0  3.36149  0  0  -0.643123  0  3.355172  0  0  -0.598425  -0.606625  0  3.365525  0
N  N57  1  0.23846579  0.41552104  0.77202726  1  0  -0.68296  0  3.120977  0  0  -0.618929  0  3.36152  0  0  -0.64044  0  3.355317  0  0  -0.59714  -0.603828  0  3.365521  0
N  N58  1  0.57356877  0.91551332  0.27199459  1  0  -0.68496  0  3.122244  0  0  -0.621757  0  3.361398  0  0  -0.643203  0  3.355109  0  0  -0.59842  -0.606686  0  3.36543  0
N  N59  1  0.76152484  0.58448240  0.22797060  1  0  -0.682917  0  3.120945  0  0  -0.618852  0  3.361481  0  0  -0.640363  0  3.355281  0  0  -0.597142  -0.603754  0  3.365483  0
O  O60  1  0.72618412  0.51436787  0.63656788  1  0  -0.885401  0  1.748159  0  0  -0.808646  0  2.03537  0  0  -0.836676  0  2.009516  0  0  -0.434361  -0.78871  0  2.05279  0
O  O61  1  0.87703159  0.98561505  0.86327346  1  0  -0.885691  0  1.749621  0  0  -0.808783  0  2.036785  0  0  -0.836826  0  2.011033  0  0  -0.434526  -0.788828  0  2.054154  0
O  O62  1  0.27381012  0.48562784  0.36343124  1  0  -0.885414  0  1.748135  0  0  -0.808654  0  2.035354  0  0  -0.836694  0  2.00951  0  0  -0.434364  -0.788708  0  2.052768  0
O  O63  1  0.12296611  0.01438447  0.13672744  1  0  -0.885646  0  1.749566  0  0  -0.808798  0  2.036804  0  0  -0.83684  0  2.011052  0  0  -0.434522  -0.788851  0  2.054166  0
O  O64  1  0.73353463  0.67537410  0.42328156  1  0  -0.876612  0  1.785968  0  0  -0.799608  0  2.070486  0  0  -0.82794  0  2.045416  0  0  -0.428789  -0.779489  0  2.087323  0
O  O65  1  0.83182493  0.82467743  0.07662230  1  0  -0.876765  0  1.786853  0  0  -0.800097  0  2.072115  0  0  -0.828415  0  2.04697  0  0  -0.429252  -0.779938  0  2.08893  0
O  O66  1  0.26646699  0.32462639  0.57671866  1  0  -0.876552  0  1.785958  0  0  -0.799568  0  2.070501  0  0  -0.827908  0  2.045443  0  0  -0.428794  -0.779445  0  2.087345  0
O  O67  1  0.16816888  0.17532502  0.92337684  1  0  -0.876765  0  1.786906  0  0  -0.800076  0  2.07215  0  0  -0.828417  0  2.047036  0  0  -0.429229  -0.779932  0  2.088969  0
O  O68  1  0.25247890  0.63028664  0.54774784  1  0  -0.883048  0  1.778384  0  0  -0.822306  0  2.086426  0  0  -0.850283  0  2.060755  0  0  -0.438387  -0.802289  0  2.103563  0
O  O69  1  0.42999875  0.86991553  0.95225880  1  0  -0.882548  0  1.777167  0  0  -0.821756  0  2.085219  0  0  -0.84976  0  2.059553  0  0  -0.437723  -0.801735  0  2.102394  0
O  O70  1  0.74751699  0.36971576  0.45225304  1  0  -0.883054  0  1.778419  0  0  -0.822297  0  2.086456  0  0  -0.850277  0  2.060784  0  0  -0.438371  -0.802272  0  2.103592  0
O  O71  1  0.56999892  0.13008882  0.04774100  1  0  -0.882462  0  1.777112  0  0  -0.821701  0  2.08518  0  0  -0.849697  0  2.059512  0  0  -0.437742  -0.801687  0  2.102349  0
