# generated using pymatgen
data_NaH3CN4O
_symmetry_space_group_name_H-M   'P 1'
_cell_length_a   5.62486511
_cell_length_b   5.80222883
_cell_length_c   6.37096890
_cell_angle_alpha   89.99925429
_cell_angle_beta   89.99693512
_cell_angle_gamma   90.00173874
_symmetry_Int_Tables_number   1
_chemical_formula_structural   NaH3CN4O
_chemical_formula_sum   'Na2 H6 C2 N8 O2'
_cell_volume   207.92774756
_cell_formula_units_Z   2
loop_
 _symmetry_equiv_pos_site_id
 _symmetry_equiv_pos_as_xyz
  1  'x, y, z'
loop_
 _atom_site_type_symbol
 _atom_site_label
 _atom_site_symmetry_multiplicity
 _atom_site_fract_x
 _atom_site_fract_y
 _atom_site_fract_z
 _atom_site_occupancy
 _atom_site_hle17_bader_spin_density
 _atom_site_hle17_ddec_charge
 _atom_site_hle17_ddec_spin_density
 _atom_site_hle17_ddec_sum_bond_order
 _atom_site_hle17_magmom
 _atom_site_hse06_10hf_bader_spin_density
 _atom_site_hse06_10hf_ddec_charge
 _atom_site_hse06_10hf_ddec_spin_density
 _atom_site_hse06_10hf_ddec_sum_bond_order
 _atom_site_hse06_10hf_magmom
 _atom_site_hse06_bader_spin_density
 _atom_site_hse06_ddec_charge
 _atom_site_hse06_ddec_spin_density
 _atom_site_hse06_ddec_sum_bond_order
 _atom_site_hse06_magmom
 _atom_site_pbe_bader_spin_density
 _atom_site_pbe_cm5_charge
 _atom_site_pbe_ddec_charge
 _atom_site_pbe_ddec_spin_density
 _atom_site_pbe_ddec_sum_bond_order
 _atom_site_pbe_magmom
Na  Na0  1  0.99997295  0.99995612  0.49995257  1  0  0.851893  0  0.460167  0  0  0.776366  0  0.650571  0  0  0.787886  0  0.629722  0  0  0.703558  0.767747  0  0.665964  0
Na  Na1  1  0.99996858  0.99998383  0.00003175  1  0  0.851895  0  0.460171  0  0  0.776457  0  0.650418  0  0  0.787948  0  0.62962  0  0  0.703586  0.767835  0  0.665812  0
H  H2  1  0.17562936  0.50001554  0.24999883  1  0  0.101684  0  0.937215  0  0  0.110798  0  1.000138  0  0  0.112897  0  0.998534  0  0  0.147233  0.10931  0  1.001176  0
H  H3  1  0.82440662  0.50000078  0.74999856  1  0  0.101092  0  0.938354  0  0  0.110332  0  1.001155  0  0  0.11244  0  0.999511  0  0  0.146999  0.10885  0  1.002196  0
H  H4  1  0.57786952  0.86250959  0.74999594  1  0  0.392785  0  0.924093  0  0  0.351443  0  1.006733  0  0  0.362348  0  0.990618  0  0  0.287572  0.343666  0  1.018223  0
H  H5  1  0.57781546  0.13756920  0.74999866  1  0  0.392865  0  0.92401  0  0  0.351489  0  1.006722  0  0  0.362396  0  0.990604  0  0  0.287604  0.343709  0  1.018215  0
H  H6  1  0.42218780  0.13743951  0.24999674  1  0  0.392967  0  0.923881  0  0  0.3516  0  1.00656  0  0  0.362504  0  0.990443  0  0  0.287683  0.343822  0  1.018052  0
H  H7  1  0.42224719  0.86237645  0.24999559  1  0  0.392903  0  0.924031  0  0  0.351487  0  1.00681  0  0  0.362393  0  0.990693  0  0  0.287592  0.343711  0  1.018295  0
C  C8  1  0.98253227  0.50012732  0.24998611  1  0  0.167893  0  3.797138  0  0  0.121459  0  4.073205  0  0  0.129431  0  4.08969  0  0  0.136467  0.116396  0  4.06161  0
C  C9  1  0.01740949  0.49997862  0.75000343  1  0  0.168531  0  3.797136  0  0  0.121988  0  4.073137  0  0  0.129946  0  4.089682  0  0  0.136693  0.116948  0  4.06148  0
N  N10  1  0.62189607  0.61321651  0.24995626  1  0  -0.091766  0  3.069355  0  0  -0.066501  0  3.356586  0  0  -0.069212  0  3.36913  0  0  -0.085364  -0.064291  0  3.347935  0
N  N11  1  0.62198140  0.38674836  0.25004864  1  0  -0.091835  0  3.069871  0  0  -0.066728  0  3.357185  0  0  -0.069412  0  3.369706  0  0  -0.085508  -0.064526  0  3.348543  0
N  N12  1  0.37804036  0.38677051  0.74995166  1  0  -0.091868  0  3.069449  0  0  -0.066654  0  3.356722  0  0  -0.069361  0  3.369266  0  0  -0.085494  -0.064447  0  3.34807  0
N  N13  1  0.37803680  0.61323176  0.75006176  1  0  -0.091926  0  3.06954  0  0  -0.066807  0  3.356855  0  0  -0.069505  0  3.369394  0  0  -0.085492  -0.064598  0  3.348202  0
N  N14  1  0.84841117  0.69125880  0.25002895  1  0  -0.402679  0  3.081821  0  0  -0.357756  0  3.369247  0  0  -0.36925  0  3.381779  0  0  -0.34458  -0.349921  0  3.361091  0
N  N15  1  0.84855805  0.30889539  0.24996999  1  0  -0.402591  0  3.082643  0  0  -0.357719  0  3.370192  0  0  -0.369206  0  3.382702  0  0  -0.344569  -0.349889  0  3.362047  0
N  N16  1  0.15149325  0.30879198  0.75004379  1  0  -0.402771  0  3.081538  0  0  -0.35787  0  3.369023  0  0  -0.369364  0  3.381539  0  0  -0.344516  -0.350032  0  3.360875  0
N  N17  1  0.15149393  0.69117091  0.74997874  1  0  -0.402468  0  3.081911  0  0  -0.357564  0  3.369459  0  0  -0.369058  0  3.381976  0  0  -0.344395  -0.34973  0  3.361314  0
O  O18  1  0.68361850  0.00004946  0.75000169  1  0  -0.918092  0  1.84847  0  0  -0.862728  0  2.053259  0  0  -0.877729  0  2.017737  0  0  -0.702468  -0.8521  0  2.078392  0
O  O19  1  0.31644237  0.99989964  0.25000198  1  0  -0.918513  0  1.848032  0  0  -0.863091  0  2.052869  0  0  -0.878095  0  2.017347  0  0  -0.702601  -0.852459  0  2.078001  0
