# generated using pymatgen
data_CoH3C8N2OF6
_symmetry_space_group_name_H-M   'P 1'
_cell_length_a   12.12669783
_cell_length_b   15.61428002
_cell_length_c   15.61425328
_cell_angle_alpha   81.28242521
_cell_angle_beta   67.11118854
_cell_angle_gamma   67.11118425
_symmetry_Int_Tables_number   1
_chemical_formula_structural   CoH3C8N2OF6
_chemical_formula_sum   'Co8 H24 C64 N16 O8 F48'
_cell_volume   2509.29330110
_cell_formula_units_Z   8
loop_
 _symmetry_equiv_pos_site_id
 _symmetry_equiv_pos_as_xyz
  1  'x, y, z'
loop_
 _atom_site_type_symbol
 _atom_site_label
 _atom_site_symmetry_multiplicity
 _atom_site_fract_x
 _atom_site_fract_y
 _atom_site_fract_z
 _atom_site_occupancy
 _atom_site_pbe_bader_charge
 _atom_site_pbe_bader_spin_density
 _atom_site_pbe_cm5_charge
 _atom_site_pbe_ddec_charge
 _atom_site_pbe_ddec_spin_density
 _atom_site_pbe_ddec_sum_bond_order
 _atom_site_pbe_magmom
Co  Co0  1  0.97262434  0.77751900  0.27766085  1  1.21056  -2.508149  0.670325  0.857602  -2.625451  2.705052  -2.451
Co  Co1  1  0.52737860  0.72234213  0.22248140  1  1.210543  -2.508155  0.670349  0.857703  -2.62546  2.704973  -2.451
Co  Co2  1  0.24999994  0.77759554  0.22241084  1  1.209303  2.50631  0.670926  0.856589  2.62223  2.713589  2.449
Co  Co3  1  0.75000179  0.72229854  0.27770044  1  1.208588  2.510512  0.669532  0.85951  2.626435  2.694889  2.454
Co  Co4  1  0.02765974  0.22227229  0.72240510  1  1.210959  2.507978  0.670217  0.857804  2.625122  2.704893  2.451
Co  Co5  1  0.47234228  0.27759455  0.77772660  1  1.210945  2.507977  0.670245  0.857846  2.625123  2.704857  2.451
Co  Co6  1  0.75000038  0.22233206  0.77766666  1  1.210122  -2.507403  0.670279  0.857831  -2.623323  2.706483  -2.451
Co  Co7  1  0.24999963  0.27774171  0.72225819  1  1.207631  -2.509175  0.67037  0.858852  -2.624817  2.700887  -2.452
H  H8  1  0.59374312  0.89982263  0.66346451  1  0.06846  6e-06  0.099522  0.103055  9e-06  0.995113  0.0
H  H9  1  0.65674187  0.60062823  0.83690122  1  0.058052  2e-06  0.09982  0.103463  7e-06  0.993484  0.0
H  H10  1  0.99405872  0.16308909  0.10020087  1  0.057318  -4e-06  0.099535  0.103424  -8e-06  0.994116  0.0
H  H11  1  0.75734656  0.33649012  0.39927271  1  0.092851  -5e-06  0.099633  0.103201  -9e-06  0.994094  0.0
H  H12  1  0.84325461  0.16309590  0.39937103  1  0.058112  2e-06  0.0998  0.103458  7e-06  0.993449  0.0
H  H13  1  0.90625597  0.33654361  0.10017815  1  0.069062  6e-06  0.099543  0.103056  9e-06  0.995156  0.0
H  H14  1  0.74264837  0.60073143  0.66350714  1  0.092919  -5e-06  0.099588  0.103163  -9e-06  0.994094  0.0
H  H15  1  0.50593969  0.89979642  0.83691839  1  0.057327  -4e-06  0.099549  0.103374  -8e-06  0.994147  0.0
H  H16  1  0.40620411  0.10029331  0.33677192  1  0.071317  -7e-06  0.099757  0.10351  -9e-06  0.994485  0.0
H  H17  1  0.34301656  0.39945653  0.16318050  1  0.07554  -2e-06  0.099967  0.103726  -7e-06  0.993392  0.0
H  H18  1  0.00615757  0.83677597  0.89963477  1  0.056388  3e-06  0.099478  0.103017  7e-06  0.994343  0.0
H  H19  1  0.24278106  0.66329713  0.60054972  1  0.091446  6e-06  0.099838  0.10341  9e-06  0.993272  0.0
H  H20  1  0.15698462  0.83681917  0.60054053  1  0.075703  -2e-06  0.099949  0.103667  -7e-06  0.993418  0.0
H  H21  1  0.09380187  0.66322904  0.89970444  1  0.070991  -7e-06  0.09975  0.103502  -9e-06  0.994573  0.0
H  H22  1  0.25721897  0.39944918  0.33670260  1  0.091651  6e-06  0.099866  0.103449  9e-06  0.993235  0.0
H  H23  1  0.49384924  0.10036060  0.16322257  1  0.056256  3e-06  0.099472  0.103016  7e-06  0.994252  0.0
H  H24  1  0.93222019  0.75110104  0.13510451  1  0.613833  0.00018  0.317315  0.415109  1.9e-05  0.868092  0.0
H  H25  1  0.31636548  0.75094935  0.36528449  1  0.607312  -0.000181  0.317232  0.415091  -2.5e-05  0.868023  0.0
H  H26  1  0.18364958  0.63472141  0.24899715  1  0.607115  -0.000187  0.317178  0.415058  -2.5e-05  0.868019  0.0
H  H27  1  0.56775821  0.86489783  0.24893053  1  0.613825  0.00018  0.31737  0.41521  1.9e-05  0.867936  0.0
H  H28  1  0.06742132  0.25001248  0.86493540  1  0.597809  -0.000207  0.317146  0.414999  -5e-06  0.868164  0.0
H  H29  1  0.68258149  0.24999190  0.63503876  1  0.597445  0.000207  0.317145  0.415228  -0.0  0.867895  0.0
H  H30  1  0.81741921  0.36496086  0.75000777  1  0.597401  0.000209  0.317158  0.415253  0.0  0.867859  0.0
H  H31  1  0.43257634  0.13506549  0.74999100  1  0.597833  -0.000207  0.31714  0.415  -6e-06  0.86817  0.0
C  C32  1  0.83026211  0.77312103  0.48988393  1  0.41936  0.002287  0.070936  -0.060289  0.000798  4.005422  0.001
C  C33  1  0.59272805  0.72686896  0.01028193  1  0.428942  0.002404  0.071269  -0.058841  0.000825  4.006226  0.001
C  C34  1  0.10345665  0.98971968  0.22674434  1  0.439664  -0.002315  0.070978  -0.058883  -0.000817  4.002021  -0.001
C  C35  1  0.81970631  0.50996692  0.27300349  1  0.456109  -0.002369  0.070867  -0.060185  -0.000814  4.007446  -0.001
C  C36  1  0.90727110  0.98972228  0.27312588  1  0.429035  0.002405  0.071256  -0.05883  0.000825  4.006254  0.001
C  C37  1  0.66973600  0.51011637  0.22688391  1  0.419095  0.002287  0.070967  -0.060214  0.000798  4.005255  0.001
C  C38  1  0.68028646  0.72700562  0.49003340  1  0.455955  -0.002369  0.070889  -0.060063  -0.000814  4.007505  -0.001
C  C39  1  0.39654232  0.77324405  0.01028297  1  0.438715  -0.002317  0.071011  -0.058816  -0.000818  4.001823  -0.001
C  C40  1  0.17003375  0.22683013  0.51015522  1  0.448274  -0.002302  0.071045  -0.0587  -0.000818  4.005896  -0.001
C  C41  1  0.40688824  0.27321370  0.98997495  1  0.41465  -0.002368  0.071656  -0.058781  -0.00081  4.003955  -0.001
C  C42  1  0.89684624  0.01007022  0.77332411  1  0.446325  0.002321  0.070928  -0.059393  0.000819  4.001964  0.001
C  C43  1  0.18011311  0.49002335  0.72688906  1  0.447638  0.00237  0.070582  -0.0599  0.00081  4.008015  0.001
C  C44  1  0.09311034  0.01002524  0.72678480  1  0.414705  -0.002369  0.071675  -0.058796  -0.000811  4.003993  -0.001
C  C45  1  0.32996713  0.48984469  0.77317167  1  0.448295  -0.002302  0.071023  -0.058863  -0.000818  4.005851  -0.001
C  C46  1  0.31988993  0.27310963  0.50997522  1  0.447936  0.00237  0.07059  -0.059835  0.00081  4.008041  0.001
C  C47  1  0.60315322  0.22667527  0.98993026  1  0.446366  0.002321  0.070906  -0.059516  0.000819  4.002131  0.001
C  C48  1  0.67353288  0.75029063  0.65286923  1  0.091989  4e-06  -0.012901  0.075869  6e-06  4.043828  0.0
C  C49  1  0.57610895  0.75020844  0.84748233  1  0.049482  7e-06  -0.012848  0.077143  -5e-06  4.04309  0.0
C  C50  1  0.92388634  0.15252166  0.24978790  1  0.048947  7e-06  -0.012804  0.07725  -5e-06  4.043077  0.0
C  C51  1  0.82646437  0.34713083  0.24971272  1  0.092086  4e-06  -0.012878  0.075853  6e-06  4.043815  0.0
C  C52  1  0.32643880  0.24986565  0.34723616  1  0.088473  3e-06  -0.012333  0.076731  -4e-06  4.044196  0.0
C  C53  1  0.42363385  0.24990339  0.15273452  1  0.138079  -4e-06  -0.013174  0.076203  2e-06  4.044838  0.0
C  C54  1  0.07636693  0.84726692  0.75009161  1  0.136273  -5e-06  -0.013249  0.076064  2e-06  4.044788  0.0
C  C55  1  0.17356377  0.65276347  0.75013465  1  0.088442  3e-06  -0.012342  0.076787  -4e-06  4.044077  0.0
C  C56  1  0.72485439  0.75021613  0.55054087  1  -0.003243  -7e-05  -0.011369  -0.01959  -3.5e-05  3.998354  0.0
C  C57  1  0.52494149  0.75015156  0.94973057  1  0.006211  5.4e-05  -0.011536  -0.021372  3.4e-05  3.997968  0.0
C  C58  1  0.97505963  0.05027089  0.24983936  1  0.005975  5.6e-05  -0.011531  -0.021334  3.4e-05  3.997977  0.0
C  C59  1  0.77514163  0.44945945  0.24979168  1  -0.003321  -6.8e-05  -0.011359  -0.019467  -3.5e-05  3.998249  0.0
C  C60  1  0.27526166  0.24989842  0.44954721  1  -0.003418  -1.2e-05  -0.011404  -0.020764  -4e-06  4.001747  0.0
C  C61  1  0.47474787  0.24990400  0.05046576  1  0.004331  1e-06  -0.011676  -0.021089  -2e-06  3.998767  0.0
C  C62  1  0.02525242  0.94953364  0.75009572  1  0.006089  2e-06  -0.011645  -0.021057  -2e-06  3.998759  0.0
C  C63  1  0.22473919  0.55045573  0.75010129  1  -0.003192  -1.2e-05  -0.011422  -0.020718  -4e-06  4.001576  0.0
C  C64  1  0.60720400  0.83443132  0.70185965  1  -0.104509  -6.3e-05  -0.08953  -0.116083  -2.4e-05  3.984539  0.0
C  C65  1  0.64309225  0.66605781  0.79853343  1  0.080361  -3.6e-05  -0.090003  -0.117101  -1.1e-05  3.982896  0.0
C  C66  1  0.94190460  0.20147203  0.16558117  1  0.062347  6.5e-05  -0.089975  -0.117391  2.6e-05  3.982123  0.0
C  C67  1  0.80921093  0.29812811  0.33389417  1  -0.119751  3.4e-05  -0.089723  -0.116396  1e-05  3.983125  0.0
C  C68  1  0.85690508  0.20146329  0.33394130  1  0.080385  -3.6e-05  -0.089972  -0.117093  -1.1e-05  3.982749  0.0
C  C69  1  0.89279317  0.29814699  0.16557002  1  -0.10521  -6.3e-05  -0.089569  -0.11609  -2.4e-05  3.984546  0.0
C  C70  1  0.69078272  0.66611047  0.70187317  1  -0.119621  3.4e-05  -0.089679  -0.116351  1e-05  3.983301  0.0
C  C71  1  0.55809044  0.83441800  0.79853389  1  0.061783  6.5e-05  -0.089997  -0.11729  2.6e-05  3.982266  0.0
C  C72  1  0.39271320  0.16567143  0.29834199  1  -0.110821  5.2e-05  -0.089977  -0.116849  1.8e-05  3.984193  0.0
C  C73  1  0.35663747  0.33408601  0.20162640  1  -0.165702  4.4e-05  -0.08998  -0.117164  1.6e-05  3.982559  0.0
C  C74  1  0.05827519  0.79833881  0.83430580  1  0.07135  -5.3e-05  -0.089419  -0.115982  -2e-05  3.982172  0.0
C  C75  1  0.19096616  0.70170221  0.66592373  1  0.033651  -4.8e-05  -0.090063  -0.116491  -1.6e-05  3.981125  0.0
C  C76  1  0.14336447  0.79837325  0.66591260  1  -0.165895  4.4e-05  -0.089941  -0.117027  1.6e-05  3.982726  0.0
C  C77  1  0.10729215  0.70165762  0.83432818  1  -0.110489  5.2e-05  -0.089992  -0.11696  1.8e-05  3.984339  0.0
C  C78  1  0.30903536  0.33407294  0.29829956  1  0.033478  -4.8e-05  -0.09008  -0.116465  -1.6e-05  3.981176  0.0
C  C79  1  0.44172698  0.16569521  0.20166090  1  0.071466  -5.3e-05  -0.089431  -0.116089  -2e-05  3.982432  0.0
C  C80  1  0.91460426  0.80568892  0.51478900  1  1.697403  0.000514  0.306836  0.68428  0.000327  4.022027  0.0
C  C81  1  0.73470096  0.69421659  0.98509803  1  1.711738  0.000513  0.306363  0.680958  0.000326  4.022871  0.0
C  C82  1  0.22031213  0.01483866  0.19407826  1  1.692869  -0.000516  0.30722  0.682149  -0.000324  4.021135  0.0
C  C83  1  0.92900963  0.48498123  0.30556466  1  1.680708  -0.000524  0.307232  0.683969  -0.00033  4.021937  0.0
C  C84  1  0.76529795  0.01490541  0.30577916  1  1.711568  0.000513  0.306323  0.68078  0.000327  4.02303  0.0
C  C85  1  0.58539574  0.48521272  0.19431125  1  1.697439  0.000514  0.306791  0.684313  0.000328  4.021766  0.0
C  C86  1  0.57098560  0.69444460  0.51501968  1  1.680546  -0.000524  0.307321  0.684177  -0.00033  4.021673  0.0
C  C87  1  0.27968778  0.80591334  0.98516178  1  1.693325  -0.000516  0.307253  0.682138  -0.000325  4.021015  0.0
C  C88  1  0.08584204  0.19426643  0.48505600  1  1.671921  -0.00053  0.306459  0.682421  -0.00033  4.022397  0.0
C  C89  1  0.26486772  0.30588554  0.01520957  1  1.711799  -0.000516  0.306363  0.682699  -0.000328  4.020349  0.0
C  C90  1  0.78000055  0.98495820  0.80594426  1  1.69081  0.000524  0.307587  0.682394  0.00033  4.022411  0.0
C  C91  1  0.07073175  0.51521133  0.69435111  1  1.693496  0.00052  0.308046  0.684671  0.00033  4.021507  0.0
C  C92  1  0.23513494  0.98478928  0.69411303  1  1.71179  -0.000516  0.306377  0.682767  -0.000328  4.020304  0.0
C  C93  1  0.41415943  0.51494441  0.80573324  1  1.671562  -0.00053  0.306507  0.682731  -0.00033  4.02215  0.0
C  C94  1  0.42927249  0.30564844  0.48478615  1  1.693555  0.00052  0.308109  0.684775  0.000329  4.021324  0.0
C  C95  1  0.71999916  0.19405394  0.01503977  1  1.690794  0.000524  0.307504  0.682231  0.00033  4.022727  0.0
N  N96  1  0.84626713  0.76392716  0.40041843  1  -0.693225  -0.060034  -0.264515  -0.211509  -0.031845  3.661028  -0.042
N  N97  1  0.51013759  0.73578620  0.09976984  1  -0.727  -0.059827  -0.265272  -0.212812  -0.031738  3.659314  -0.042
N  N98  1  0.11030310  0.90026909  0.23586416  1  -0.693871  0.060154  -0.265655  -0.212369  0.031912  3.658901  0.042
N  N99  1  0.74595802  0.59952662  0.26426212  1  -0.723464  0.059615  -0.264239  -0.212808  0.031658  3.658481  0.042
N  N100  1  0.98985958  0.90023437  0.26420952  1  -0.726846  -0.059826  -0.265232  -0.212754  -0.031738  3.659135  -0.042
N  N101  1  0.65373198  0.59958194  0.23607566  1  -0.693264  -0.060032  -0.264494  -0.211612  -0.031844  3.661001  -0.042
N  N102  1  0.75403934  0.73574172  0.40047343  1  -0.723627  0.059617  -0.264183  -0.212841  0.031658  3.658517  0.042
N  N103  1  0.38969473  0.76412906  0.09973374  1  -0.694066  0.060158  -0.265643  -0.212311  0.031911  3.658961  0.042
N  N104  1  0.15408248  0.23589887  0.59964456  1  -0.713758  0.059884  -0.265005  -0.212879  0.031792  3.660445  0.042
N  N105  1  0.48954893  0.26418594  0.90044835  1  -0.724763  0.059925  -0.264842  -0.212829  0.031801  3.658083  0.042
N  N106  1  0.88997442  0.09957503  0.76420876  1  -0.698382  -0.059957  -0.265049  -0.212111  -0.031818  3.656084  -0.042
N  N107  1  0.25373956  0.40046015  0.73582170  1  -0.704826  -0.059842  -0.26449  -0.212617  -0.031753  3.659187  -0.042
N  N108  1  0.01045210  0.09955067  0.73581363  1  -0.724793  0.059924  -0.264832  -0.21277  0.0318  3.658086  0.042
N  N109  1  0.34591725  0.40035547  0.76410251  1  -0.713563  0.059885  -0.264973  -0.212828  0.031792  3.660421  0.042
N  N110  1  0.24626327  0.26417747  0.59953848  1  -0.70502  -0.059848  -0.264568  -0.212729  -0.031755  3.659221  -0.042
N  N111  1  0.61002689  0.23579027  0.90042445  1  -0.698386  -0.059956  -0.265005  -0.211939  -0.031817  3.655988  -0.042
O  O112  1  0.89875731  0.75018804  0.20262561  1  -1.156943  -0.000858  -0.57659  -0.823075  -0.000274  2.295385  0.0
O  O113  1  0.35082431  0.75015775  0.29774028  1  -1.150839  0.000717  -0.576388  -0.822442  0.00032  2.296781  0.0
O  O114  1  0.14917784  0.70226609  0.24985402  1  -1.150594  0.000733  -0.576293  -0.822328  0.00033  2.296797  0.0
O  O115  1  0.60125408  0.79737583  0.24980710  1  -1.157053  -0.000847  -0.576629  -0.823198  -0.000269  2.2953  0.0
O  O116  1  0.10134297  0.24990985  0.79740734  1  -1.140826  0.000423  -0.576178  -0.822401  2.8e-05  2.295631  0.0
O  O117  1  0.64878142  0.24994297  0.70256867  1  -1.140348  -0.000134  -0.576267  -0.822874  8e-06  2.297332  0.0
O  O118  1  0.85122115  0.29742999  0.75005767  1  -1.140287  -0.000131  -0.576271  -0.822892  1e-05  2.297276  0.0
O  O119  1  0.39865821  0.20259287  0.75008954  1  -1.140841  0.000428  -0.576186  -0.822425  3.2e-05  2.295632  0.0
F  F120  1  0.03141356  0.79119504  0.44397347  1  -0.625748  -0.003958  -0.10379  -0.227337  -0.001878  1.31644  -0.002
F  F121  1  0.76649788  0.70867975  0.05570049  1  -0.622181  -0.003895  -0.103927  -0.226707  -0.00186  1.315542  -0.002
F  F122  1  0.32280311  0.94428049  0.20863477  1  -0.628447  0.003865  -0.103865  -0.226565  0.001838  1.314342  0.002
F  F123  1  0.97522025  0.55570115  0.29066636  1  -0.621164  0.003958  -0.104368  -0.22769  0.0019  1.314442  0.002
F  F124  1  0.73350888  0.94430252  0.29130905  1  -0.622134  -0.003894  -0.103897  -0.226649  -0.00186  1.315588  -0.002
F  F125  1  0.46858803  0.55602804  0.20880313  1  -0.625745  -0.003956  -0.103772  -0.227357  -0.001878  1.31642  -0.002
F  F126  1  0.52476129  0.70935223  0.44430435  1  -0.621105  0.003955  -0.104387  -0.227719  0.001899  1.314207  0.002
F  F127  1  0.17719288  0.79135818  0.05571235  1  -0.628505  0.00386  -0.103893  -0.226599  0.001836  1.31431  0.002
F  F128  1  0.96893509  0.20879998  0.55580733  1  -0.627366  0.003917  -0.103774  -0.226895  0.001861  1.314332  0.002
F  F129  1  0.23322406  0.29141193  0.94452297  1  -0.622473  0.003914  -0.103942  -0.227262  0.001873  1.314588  0.002
F  F130  1  0.67777770  0.05565746  0.79115693  1  -0.628555  -0.00391  -0.104092  -0.226786  -0.001856  1.314948  -0.002
F  F131  1  0.02429757  0.44460822  0.70933797  1  -0.619866  -0.003913  -0.104862  -0.228154  -0.001879  1.31351  -0.002
F  F132  1  0.26677501  0.05547910  0.70858622  1  -0.622471  0.003914  -0.103956  -0.227292  0.001873  1.314581  0.002
F  F133  1  0.53106454  0.44419370  0.79120368  1  -0.627373  0.003916  -0.103769  -0.226935  0.00186  1.314252  0.002
F  F134  1  0.47570623  0.29066363  0.55538953  1  -0.619844  -0.003912  -0.104836  -0.228183  -0.001879  1.313472  -0.002
F  F135  1  0.82222452  0.20883443  0.94433803  1  -0.628624  -0.00391  -0.104068  -0.226739  -0.001856  1.314998  -0.002
F  F136  1  0.93828085  0.76136708  0.59109456  1  -0.607527  0.000409  -0.093968  -0.197908  0.000229  1.332253  0.0
F  F137  1  0.79014662  0.73855147  0.90868095  1  -0.616146  0.000409  -0.093466  -0.196539  0.00023  1.332461  0.0
F  F138  1  0.19919176  0.09128426  0.23833925  1  -0.612504  -0.000417  -0.09381  -0.19687  -0.000233  1.33201  0.0
F  F139  1  0.02893504  0.40848177  0.26154942  1  -0.610655  -0.000405  -0.093859  -0.197308  -0.000227  1.333906  0.0
F  F140  1  0.70984308  0.09132572  0.26145180  1  -0.616159  0.000409  -0.093421  -0.196453  0.00023  1.332461  0.0
F  F141  1  0.56172011  0.40890452  0.23862898  1  -0.607507  0.000409  -0.093958  -0.197912  0.000229  1.332185  0.0
F  F142  1  0.47106493  0.73845491  0.59152439  1  -0.610793  -0.000405  -0.093852  -0.197355  -0.000227  1.333789  0.0
F  F143  1  0.30080983  0.76165916  0.90871028  1  -0.612169  -0.000417  -0.093854  -0.196876  -0.000233  1.331995  0.0
F  F144  1  0.06231994  0.23861327  0.40870434  1  -0.607576  -0.000414  -0.093871  -0.197276  -0.000231  1.332819  0.0
F  F145  1  0.20923832  0.26158686  0.09160395  1  -0.617101  -0.000405  -0.094045  -0.197557  -0.000228  1.331619  0.0
F  F146  1  0.80090104  0.90849177  0.76181231  1  -0.61302  0.000413  -0.09413  -0.196915  0.000231  1.332157  0.0
F  F147  1  0.97097140  0.59179484  0.73838618  1  -0.613343  0.000407  -0.094307  -0.197852  0.000228  1.332929  0.0
F  F148  1  0.29076283  0.90839603  0.73841224  1  -0.617077  -0.000405  -0.094039  -0.197564  -0.000228  1.331627  0.0
F  F149  1  0.43768240  0.59129506  0.76138209  1  -0.60745  -0.000414  -0.093872  -0.197364  -0.000232  1.332777  0.0
F  F150  1  0.52903135  0.26161249  0.40820290  1  -0.613432  0.000407  -0.094311  -0.197856  0.000229  1.332911  0.0
F  F151  1  0.69910378  0.23818920  0.09150358  1  -0.612961  0.000413  -0.094111  -0.196864  0.000231  1.332193  0.0
F  F152  1  0.86136992  0.89921114  0.53366432  1  -0.605397  0.000392  -0.118328  -0.226497  0.000234  1.25416  0.0
F  F153  1  0.79384188  0.60065857  0.96626590  1  -0.60308  0.000385  -0.118508  -0.226016  0.000231  1.253967  0.0
F  F154  1  0.26072356  0.03360667  0.10051166  1  -0.605426  -0.000391  -0.118529  -0.226361  -0.000234  1.254353  0.0
F  F155  1  0.89446194  0.46649299  0.39918849  1  -0.602465  -0.000382  -0.118559  -0.226697  -0.000229  1.253948  0.0
F  F156  1  0.70616307  0.03372697  0.39933829  1  -0.60298  0.000385  -0.11857  -0.226036  0.000231  1.254023  0.0
F  F157  1  0.63863334  0.46634491  0.10078555  1  -0.605419  0.000392  -0.118333  -0.226526  0.000234  1.254039  0.0
F  F158  1  0.60553404  0.60082155  0.53349738  1  -0.602211  -0.000382  -0.118674  -0.226847  -0.000229  1.254127  0.0
F  F159  1  0.23927676  0.89948468  0.96639852  1  -0.605307  -0.000392  -0.118543  -0.226399  -0.000234  1.25429  0.0
F  F160  1  0.13905117  0.10074423  0.46616300  1  -0.606034  -0.000391  -0.118332  -0.226413  -0.000233  1.25423  0.0
F  F161  1  0.20559465  0.39941646  0.03413152  1  -0.602388  -0.000384  -0.118144  -0.226077  -0.000231  1.253682  0.0
F  F162  1  0.73936391  0.96625836  0.89952309  1  -0.605517  0.00039  -0.118684  -0.226575  0.000232  1.254413  0.0
F  F163  1  0.10511124  0.53375313  0.60075605  1  -0.604637  0.000384  -0.118358  -0.226522  0.00023  1.254242  0.0
F  F164  1  0.29440854  0.96586550  0.60058451  1  -0.602413  -0.000384  -0.118149  -0.226104  -0.000231  1.253692  0.0
F  F165  1  0.36094522  0.53384209  0.89925654  1  -0.606082  -0.000391  -0.118389  -0.226527  -0.000233  1.254122  0.0
F  F166  1  0.39489470  0.39924158  0.46624160  1  -0.604595  0.000384  -0.118432  -0.226598  0.00023  1.254161  0.0
F  F167  1  0.76062959  0.10047630  0.03374643  1  -0.605474  0.00039  -0.118653  -0.226518  0.000232  1.254526  0.0
