# generated using pymatgen
data_ZnSiH8C24(N2F7)2
_symmetry_space_group_name_H-M   'P 1'
_cell_length_a   7.71565336
_cell_length_b   14.02166880
_cell_length_c   14.02154946
_cell_angle_alpha   90.00084555
_cell_angle_beta   89.99779246
_cell_angle_gamma   89.99876495
_symmetry_Int_Tables_number   1
_chemical_formula_structural   ZnSiH8C24(N2F7)2
_chemical_formula_sum   'Zn1 Si1 H8 C24 N4 F14'
_cell_volume   1516.94006053
_cell_formula_units_Z   1
loop_
 _symmetry_equiv_pos_site_id
 _symmetry_equiv_pos_as_xyz
  1  'x, y, z'
loop_
 _atom_site_type_symbol
 _atom_site_label
 _atom_site_symmetry_multiplicity
 _atom_site_fract_x
 _atom_site_fract_y
 _atom_site_fract_z
 _atom_site_occupancy
 _atom_site_pbe_bader_charge
 _atom_site_pbe_bader_spin_density
 _atom_site_pbe_cm5_charge
 _atom_site_pbe_ddec_charge
 _atom_site_pbe_ddec_spin_density
 _atom_site_pbe_ddec_sum_bond_order
 _atom_site_pbe_magmom
Zn  Zn0  1  0.50001853  0.49999614  0.49999732  1  1.366045  0  0.710073  0.75758  0  2.31702  0
Si  Si1  1  0.00001421  0.50000765  0.49998909  1  3.162862  0  0.260664  1.715366  0  3.952931  0
H  H2  1  0.22800207  0.66292058  0.49996861  1  0.180699  0  0.12371  0.134372  0  1.033691  0
H  H3  1  0.77200655  0.66292235  0.49996996  1  0.180698  0  0.123776  0.134474  0  1.033634  0
H  H4  1  0.22802272  0.33709845  0.49997405  1  0.180712  0  0.1237  0.134391  0  1.033551  0
H  H5  1  0.77203627  0.33707740  0.50019150  1  0.180273  0  0.12373  0.134628  0  1.03325  0
H  H6  1  0.22800347  0.50002890  0.66290946  1  0.180704  0  0.123778  0.134478  0  1.033664  0
H  H7  1  0.77201184  0.50002925  0.66290938  1  0.180545  0  0.12379  0.134423  0  1.033672  0
H  H8  1  0.22802003  0.50002008  0.33709097  1  0.180779  0  0.12373  0.134384  0  1.033545  0
H  H9  1  0.77203488  0.49980362  0.33706879  1  0.179974  0  0.12372  0.134591  0  1.033345  0
C  C10  1  0.34877654  0.70314903  0.49996691  1  0.613055  0  0.036883  -0.05312  0  3.924714  0
C  C11  1  0.34638854  0.80207022  0.49998050  1  0.43253  0  0.122929  0.238871  0  4.020812  0
C  C12  1  0.49999210  0.85634744  0.49998926  1  0.162046  0  0.001425  -0.056588  0  4.134628  0
C  C13  1  0.65360426  0.80207411  0.49998437  1  0.432449  0  0.123029  0.239041  0  4.020658  0
C  C14  1  0.65122662  0.70315223  0.49996869  1  0.613065  0  0.036794  -0.053399  0  3.924828  0
C  C15  1  0.49998365  0.95658729  0.50000426  1  -0.191243  0  -0.018738  -0.038295  0  4.09281  0
C  C16  1  0.49999249  0.04342780  0.50002676  1  0.043763  0  -0.018222  -0.037536  0  4.093006  0
C  C17  1  0.50001126  0.14365909  0.50006815  1  0.162329  0  0.001067  -0.057401  0  4.135912  0
C  C18  1  0.34641335  0.19793885  0.50001884  1  0.432427  0  0.123058  0.239157  0  4.020859  0
C  C19  1  0.34880006  0.29686073  0.50002953  1  0.612621  0  0.036988  -0.052931  0  3.923904  0
C  C20  1  0.65124884  0.29684752  0.50015326  1  0.614249  0  0.036945  -0.053592  0  3.924472  0
C  C21  1  0.65361870  0.19792348  0.50014537  1  0.431183  0  0.123198  0.239067  0  4.021184  0
C  C22  1  0.34877861  0.50003276  0.70314267  1  0.613382  0  0.036918  -0.053319  0  3.924666  0
C  C23  1  0.34639299  0.50002210  0.80206543  1  0.432749  0  0.122996  0.239188  0  4.020811  0
C  C24  1  0.49999571  0.50001588  0.85633954  1  0.161888  0  0.001411  -0.056922  0  4.135113  0
C  C25  1  0.65360482  0.50002028  0.80206645  1  0.432757  0  0.123038  0.239163  0  4.020827  0
C  C26  1  0.65123129  0.50003240  0.70314374  1  0.613335  0  0.036847  -0.053307  0  3.924726  0
C  C27  1  0.49999221  0.49999380  0.95657525  1  0.043904  0  -0.018559  -0.037923  0  4.092557  0
C  C28  1  0.50000466  0.49996709  0.04341583  1  -0.191347  0  -0.018464  -0.037894  0  4.092633  0
C  C29  1  0.50002060  0.49992861  0.14365226  1  0.16303  0  0.001179  -0.057228  0  4.135312  0
C  C30  1  0.34641797  0.49997627  0.19793534  1  0.432204  0  0.123088  0.239266  0  4.020493  0
C  C31  1  0.34880058  0.49996487  0.29685733  1  0.612661  0  0.036891  -0.052977  0  3.923837  0
C  C32  1  0.65125066  0.49984326  0.29684413  1  0.614654  0  0.036939  -0.053509  0  3.924549  0
C  C33  1  0.65362592  0.49985535  0.19792066  1  0.430747  0  0.123235  0.239128  0  4.021027  0
N  N34  1  0.50000252  0.65511604  0.49995639  1  -1.224692  0  -0.306967  -0.168874  0  3.54818  0
N  N35  1  0.50003064  0.34489334  0.50009603  1  -1.225526  0  -0.306851  -0.168842  0  3.547846  0
N  N36  1  0.50000792  0.50004150  0.65510786  1  -1.225492  0  -0.307008  -0.168782  0  3.548134  0
N  N37  1  0.50002913  0.49989800  0.34488822  1  -1.225445  0  -0.306764  -0.168857  0  3.547795  0
F  F38  1  0.22877902  0.50000131  0.49999949  1  -0.811064  0  -0.192965  -0.492732  0  1.354086  0
F  F39  1  0.77125414  0.50000523  0.49999016  1  -0.811139  0  -0.19286  -0.492598  0  1.354248  0
F  F40  1  0.00003107  0.58555461  0.41442999  1  -0.821846  0  -0.233703  -0.530213  0  1.095271  0
F  F41  1  0.00000642  0.41445570  0.58554819  1  -0.821781  0  -0.233667  -0.530199  0  1.095331  0
F  F42  1  0.00000177  0.58556800  0.58554018  1  -0.821977  0  -0.233667  -0.530314  0  1.09537  0
F  F43  1  0.00002535  0.41444873  0.41443728  1  -0.821998  0  -0.233668  -0.530228  0  1.095355  0
F  F44  1  0.80684897  0.84794720  0.49999948  1  -0.608342  0  -0.077763  -0.109141  0  1.362271  0
F  F45  1  0.19313814  0.84794298  0.49998960  1  -0.612328  0  -0.077804  -0.109201  0  1.362289  0
F  F46  1  0.80686909  0.15205428  0.50016837  1  -0.611604  0  -0.078008  -0.109092  0  1.362393  0
F  F47  1  0.19315568  0.15207931  0.49992955  1  -0.608012  0  -0.077981  -0.10932  0  1.362435  0
F  F48  1  0.80684883  0.50000402  0.84793920  1  -0.60847  0  -0.077919  -0.109312  0  1.36222  0
F  F49  1  0.19314059  0.50000836  0.84793646  1  -0.612379  0  -0.077941  -0.109383  0  1.362209  0
F  F50  1  0.80687572  0.49983271  0.15204750  1  -0.61157  0  -0.078019  -0.109139  0  1.362419  0
F  F51  1  0.19316100  0.50005743  0.15207328  1  -0.608066  0  -0.07799  -0.109398  0  1.362324  0
