# generated using pymatgen
data_CdH8(C2O3)2
_symmetry_space_group_name_H-M   'P 1'
_cell_length_a   7.03446977
_cell_length_b   6.94847384
_cell_length_c   15.44910374
_cell_angle_alpha   89.99989299
_cell_angle_beta   89.99973274
_cell_angle_gamma   111.53782313
_symmetry_Int_Tables_number   1
_chemical_formula_structural   CdH8(C2O3)2
_chemical_formula_sum   'Cd4 H32 C16 O24'
_cell_volume   702.40718352
_cell_formula_units_Z   4
loop_
 _symmetry_equiv_pos_site_id
 _symmetry_equiv_pos_as_xyz
  1  'x, y, z'
loop_
 _atom_site_type_symbol
 _atom_site_label
 _atom_site_symmetry_multiplicity
 _atom_site_fract_x
 _atom_site_fract_y
 _atom_site_fract_z
 _atom_site_occupancy
 _atom_site_hle17_bader_spin_density
 _atom_site_hle17_ddec_charge
 _atom_site_hle17_ddec_spin_density
 _atom_site_hle17_ddec_sum_bond_order
 _atom_site_hle17_magmom
 _atom_site_hse06_10hf_bader_spin_density
 _atom_site_hse06_10hf_ddec_charge
 _atom_site_hse06_10hf_ddec_spin_density
 _atom_site_hse06_10hf_ddec_sum_bond_order
 _atom_site_hse06_10hf_magmom
 _atom_site_hse06_bader_spin_density
 _atom_site_hse06_ddec_charge
 _atom_site_hse06_ddec_spin_density
 _atom_site_hse06_ddec_sum_bond_order
 _atom_site_hse06_magmom
 _atom_site_pbe_bader_spin_density
 _atom_site_pbe_cm5_charge
 _atom_site_pbe_ddec_charge
 _atom_site_pbe_ddec_spin_density
 _atom_site_pbe_ddec_sum_bond_order
 _atom_site_pbe_magmom
Cd  Cd0  1  0.51172810  0.91542826  0.79982015  1  0  1.279248  0  1.528944  0  0  1.101232  0  1.964734  0  0  1.161535  0  1.904094  0  0  0.779271  1.057664  0  2.006747  0
Cd  Cd1  1  0.01173789  0.41543545  0.70017761  1  0  1.279117  0  1.529045  0  0  1.10113  0  1.964812  0  0  1.161423  0  1.9042  0  0  0.779213  1.057562  0  2.006817  0
Cd  Cd2  1  0.48826677  0.08456954  0.20017935  1  0  1.279139  0  1.528994  0  0  1.101144  0  1.964796  0  0  1.161454  0  1.904149  0  0  0.779254  1.057578  0  2.006807  0
Cd  Cd3  1  0.98826890  0.58456386  0.29982318  1  0  1.27922  0  1.528992  0  0  1.101173  0  1.964803  0  0  1.161493  0  1.904142  0  0  0.77925  1.057603  0  2.006813  0
H  H4  1  0.73763252  0.70307516  0.69886660  1  0  0.427204  0  0.866356  0  0  0.398997  0  0.92553  0  0  0.409181  0  0.910576  0  0  0.289581  0.391732  0  0.936191  0
H  H5  1  0.23763160  0.20307535  0.80113544  1  0  0.427251  0  0.866314  0  0  0.399051  0  0.925475  0  0  0.409234  0  0.910523  0  0  0.289585  0.391787  0  0.936135  0
H  H6  1  0.26236802  0.29692262  0.30113484  1  0  0.42718  0  0.8664  0  0  0.398977  0  0.925566  0  0  0.40916  0  0.910613  0  0  0.289559  0.391711  0  0.936228  0
H  H7  1  0.76236752  0.79692243  0.19886664  1  0  0.427252  0  0.866307  0  0  0.399057  0  0.925459  0  0  0.409238  0  0.910508  0  0  0.289599  0.39179  0  0.936121  0
H  H8  1  0.50005890  0.57149625  0.68464732  1  0  0.42784  0  0.877245  0  0  0.394712  0  0.94495  0  0  0.405794  0  0.928757  0  0  0.288034  0.386837  0  0.95644  0
H  H9  1  0.00005749  0.07149942  0.81535082  1  0  0.4278  0  0.877313  0  0  0.394653  0  0.945043  0  0  0.405722  0  0.928861  0  0  0.287996  0.386776  0  0.956537  0
H  H10  1  0.49994165  0.42850153  0.31535218  1  0  0.427824  0  0.877272  0  0  0.39468  0  0.945003  0  0  0.405763  0  0.928809  0  0  0.288017  0.386806  0  0.956491  0
H  H11  1  0.99993863  0.92850117  0.18464971  1  0  0.427817  0  0.877289  0  0  0.394687  0  0.944994  0  0  0.405755  0  0.928813  0  0  0.28802  0.38681  0  0.956487  0
H  H12  1  0.46732701  0.22206777  0.92435594  1  0  0.42632  0  0.88049  0  0  0.391751  0  0.95044  0  0  0.40329  0  0.933972  0  0  0.286811  0.383578  0  0.962079  0
H  H13  1  0.96733268  0.72208096  0.57564626  1  0  0.426382  0  0.880386  0  0  0.391785  0  0.950385  0  0  0.403326  0  0.933913  0  0  0.28682  0.383617  0  0.962016  0
H  H14  1  0.53266729  0.77792848  0.07564486  1  0  0.426376  0  0.88041  0  0  0.391752  0  0.950446  0  0  0.403291  0  0.933976  0  0  0.286815  0.383577  0  0.962088  0
H  H15  1  0.03266872  0.27791527  0.42435324  1  0  0.426373  0  0.880399  0  0  0.391766  0  0.950418  0  0  0.403304  0  0.933951  0  0  0.286818  0.383597  0  0.962051  0
H  H16  1  0.60529665  0.33058217  0.84456340  1  0  0.446102  0  0.842076  0  0  0.413904  0  0.907048  0  0  0.42474  0  0.891238  0  0  0.300913  0.406193  0  0.918269  0
H  H17  1  0.10530366  0.83059287  0.65543813  1  0  0.445991  0  0.842221  0  0  0.413762  0  0.907242  0  0  0.424599  0  0.891432  0  0  0.300823  0.406047  0  0.918469  0
H  H18  1  0.39469396  0.66941563  0.15543609  1  0  0.446033  0  0.842172  0  0  0.413806  0  0.907188  0  0  0.424642  0  0.891379  0  0  0.300868  0.406092  0  0.918412  0
H  H19  1  0.89469405  0.16940491  0.34456266  1  0  0.445957  0  0.842279  0  0  0.413753  0  0.907262  0  0  0.424587  0  0.891456  0  0  0.300817  0.406039  0  0.918489  0
H  H20  1  0.40266035  0.29637887  0.44730240  1  0  0.103352  0  0.95909  0  0  0.118823  0  1.021476  0  0  0.121127  0  1.020737  0  0  0.103095  0.117162  0  1.022149  0
H  H21  1  0.90265102  0.79638145  0.05269491  1  0  0.103362  0  0.959073  0  0  0.118847  0  1.021466  0  0  0.121135  0  1.020718  0  0  0.103116  0.117183  0  1.022144  0
H  H22  1  0.59734757  0.70362353  0.55269645  1  0  0.103385  0  0.959084  0  0  0.118845  0  1.021486  0  0  0.121136  0  1.020741  0  0  0.103117  0.117183  0  1.022158  0
H  H23  1  0.09734978  0.20362872  0.94730394  1  0  0.103365  0  0.959083  0  0  0.118847  0  1.021456  0  0  0.121147  0  1.020717  0  0  0.103129  0.117182  0  1.022132  0
H  H24  1  0.27687609  0.06153482  0.50013420  1  0  0.11573  0  0.940483  0  0  0.130537  0  1.000431  0  0  0.133159  0  0.999211  0  0  0.105481  0.128669  0  1.001401  0
H  H25  1  0.77686187  0.56153685  0.99986597  1  0  0.115729  0  0.94036  0  0  0.130562  0  1.000316  0  0  0.133159  0  0.9991  0  0  0.105468  0.128694  0  1.001283  0
H  H26  1  0.72313496  0.93846447  0.49986336  1  0  0.115736  0  0.940359  0  0  0.130566  0  1.000291  0  0  0.133165  0  0.999077  0  0  0.105469  0.1287  0  1.001256  0
H  H27  1  0.22313638  0.43847023  0.00013482  1  0  0.115737  0  0.940376  0  0  0.130559  0  1.000342  0  0  0.133161  0  0.999141  0  0  0.105462  0.128691  0  1.00131  0
H  H28  1  0.64885704  0.41656164  0.57584546  1  0  0.095486  0  0.963985  0  0  0.1112  0  1.028237  0  0  0.112474  0  1.028395  0  0  0.102129  0.110266  0  1.028268  0
H  H29  1  0.14885024  0.91655779  0.92415201  1  0  0.095469  0  0.963867  0  0  0.111145  0  1.028131  0  0  0.112417  0  1.028302  0  0  0.102109  0.110212  0  1.028161  0
H  H30  1  0.35114833  0.58343767  0.42415403  1  0  0.095461  0  0.96393  0  0  0.111146  0  1.02818  0  0  0.112418  0  1.028347  0  0  0.10213  0.110215  0  1.028212  0
H  H31  1  0.85114688  0.08344619  0.07584555  1  0  0.095508  0  0.963912  0  0  0.111186  0  1.028161  0  0  0.112456  0  1.028328  0  0  0.102123  0.110256  0  1.028192  0
H  H32  1  0.67134525  0.21378547  0.51637802  1  0  0.124827  0  0.929323  0  0  0.14204  0  0.984775  0  0  0.144527  0  0.983859  0  0  0.109839  0.140181  0  0.985688  0
H  H33  1  0.17133226  0.71377805  0.98361962  1  0  0.124825  0  0.929388  0  0  0.142065  0  0.984742  0  0  0.144549  0  0.983843  0  0  0.109883  0.140206  0  0.985662  0
H  H34  1  0.32866267  0.78621693  0.48362148  1  0  0.124819  0  0.929363  0  0  0.142055  0  0.984739  0  0  0.144536  0  0.983844  0  0  0.109876  0.140198  0  0.985654  0
H  H35  1  0.82866599  0.28622903  0.01637923  1  0  0.124809  0  0.929396  0  0  0.142089  0  0.984705  0  0  0.14457  0  0.983805  0  0  0.109883  0.140233  0  0.985619  0
C  C36  1  0.22781812  0.31294650  0.55844753  1  0  0.709257  0  3.826053  0  0  0.65753  0  4.126341  0  0  0.691306  0  4.120432  0  0  0.211408  0.634575  0  4.129479  0
C  C37  1  0.72781490  0.81295362  0.94155053  1  0  0.709192  0  3.82594  0  0  0.657406  0  4.12635  0  0  0.691169  0  4.120433  0  0  0.211392  0.634466  0  4.129472  0
C  C38  1  0.77218244  0.68704353  0.44155132  1  0  0.709248  0  3.825934  0  0  0.6575  0  4.12627  0  0  0.69127  0  4.120353  0  0  0.21142  0.634558  0  4.129395  0
C  C39  1  0.27218477  0.18705345  0.05844961  1  0  0.709278  0  3.826028  0  0  0.657515  0  4.12641  0  0  0.691292  0  4.120493  0  0  0.211419  0.63456  0  4.129548  0
C  C40  1  0.54084743  0.12921217  0.64094982  1  0  0.724462  0  3.804092  0  0  0.672435  0  4.100203  0  0  0.707253  0  4.094036  0  0  0.213282  0.648611  0  4.103608  0
C  C41  1  0.04083753  0.62920575  0.85904882  1  0  0.724419  0  3.804135  0  0  0.672397  0  4.10024  0  0  0.707219  0  4.094077  0  0  0.213234  0.648579  0  4.103639  0
C  C42  1  0.45915709  0.87078870  0.35905032  1  0  0.724434  0  3.803982  0  0  0.672394  0  4.100102  0  0  0.707214  0  4.093939  0  0  0.213218  0.648576  0  4.103506  0
C  C43  1  0.95915846  0.37079513  0.14095068  1  0  0.724451  0  3.804038  0  0  0.672341  0  4.100221  0  0  0.707153  0  4.094063  0  0  0.213213  0.648534  0  4.10361  0
C  C44  1  0.36807446  0.22561772  0.51182855  1  0  -0.249535  0  3.681048  0  0  -0.289515  0  3.929772  0  0  -0.295355  0  3.938122  0  0  -0.168767  -0.285478  0  3.924069  0
C  C45  1  0.86806607  0.72561982  0.98816996  1  0  -0.249433  0  3.681008  0  0  -0.289439  0  3.929696  0  0  -0.295247  0  3.938074  0  0  -0.168702  -0.285393  0  3.923975  0
C  C46  1  0.63193319  0.77438004  0.48817030  1  0  -0.249491  0  3.681031  0  0  -0.289456  0  3.929662  0  0  -0.295276  0  3.938051  0  0  -0.168729  -0.285412  0  3.923942  0
C  C47  1  0.13193303  0.27438570  0.01183018  1  0  -0.249454  0  3.680899  0  0  -0.289473  0  3.929663  0  0  -0.295327  0  3.938082  0  0  -0.168726  -0.28542  0  3.923945  0
C  C48  1  0.56608108  0.25394306  0.55886018  1  0  -0.249202  0  3.693221  0  0  -0.291311  0  3.944359  0  0  -0.296611  0  3.952521  0  0  -0.167943  -0.287659  0  3.938984  0
C  C49  1  0.06607064  0.75393753  0.94113763  1  0  -0.249289  0  3.693342  0  0  -0.291259  0  3.944377  0  0  -0.296589  0  3.952534  0  0  -0.16801  -0.28761  0  3.939014  0
C  C50  1  0.43392628  0.74605779  0.44113932  1  0  -0.249236  0  3.693244  0  0  -0.291263  0  3.944321  0  0  -0.296586  0  3.952477  0  0  -0.167999  -0.287624  0  3.938964  0
C  C51  1  0.93392648  0.24606645  0.05886122  1  0  -0.249346  0  3.693412  0  0  -0.291357  0  3.94444  0  0  -0.296651  0  3.952582  0  0  -0.168042  -0.287723  0  3.939083  0
O  O52  1  0.69442638  0.17331427  0.69327501  1  0  -0.71188  0  2.07302  0  0  -0.625832  0  2.344718  0  0  -0.661242  0  2.330918  0  0  -0.338457  -0.6008  0  2.353326  0
O  O53  1  0.19441861  0.67330828  0.80672456  1  0  -0.711907  0  2.073165  0  0  -0.625862  0  2.344902  0  0  -0.661269  0  2.3311  0  0  -0.338432  -0.600834  0  2.353516  0
O  O54  1  0.30557473  0.82668505  0.30672643  1  0  -0.711918  0  2.073057  0  0  -0.625847  0  2.344777  0  0  -0.66126  0  2.330978  0  0  -0.338428  -0.600817  0  2.353387  0
O  O55  1  0.80557569  0.32668796  0.19327558  1  0  -0.711839  0  2.072948  0  0  -0.625789  0  2.344705  0  0  -0.661199  0  2.330908  0  0  -0.33843  -0.600764  0  2.353313  0
O  O56  1  0.60091835  0.66471350  0.72539386  1  0  -0.848846  0  1.849671  0  0  -0.791067  0  2.043737  0  0  -0.813186  0  2.009816  0  0  -0.597408  -0.775325  0  2.067434  0
O  O57  1  0.10092175  0.16471700  0.77460526  1  0  -0.84884  0  1.849708  0  0  -0.791053  0  2.043799  0  0  -0.813153  0  2.009917  0  0  -0.597366  -0.775304  0  2.067484  0
O  O58  1  0.39907879  0.33528273  0.27460628  1  0  -0.84879  0  1.849715  0  0  -0.790996  0  2.043802  0  0  -0.813117  0  2.009882  0  0  -0.597364  -0.775252  0  2.067491  0
O  O59  1  0.89907737  0.83528078  0.22539488  1  0  -0.848866  0  1.849661  0  0  -0.791085  0  2.043734  0  0  -0.813186  0  2.009853  0  0  -0.59741  -0.775338  0  2.067424  0
O  O60  1  0.29272328  0.41880528  0.62782619  1  0  -0.672481  0  2.060318  0  0  -0.583589  0  2.297657  0  0  -0.616446  0  2.287619  0  0  -0.320335  -0.560482  0  2.303739  0
O  O61  1  0.79271846  0.91880213  0.87217033  1  0  -0.672593  0  2.060352  0  0  -0.583674  0  2.29772  0  0  -0.616513  0  2.287652  0  0  -0.320452  -0.560575  0  2.303801  0
O  O62  1  0.70727869  0.58119249  0.37217331  1  0  -0.672518  0  2.06033  0  0  -0.58363  0  2.297706  0  0  -0.616497  0  2.287669  0  0  -0.320389  -0.560531  0  2.303787  0
O  O63  1  0.20727724  0.08120185  0.12782852  1  0  -0.67249  0  2.060279  0  0  -0.583617  0  2.297666  0  0  -0.616469  0  2.287622  0  0  -0.320374  -0.560513  0  2.303751  0
O  O64  1  0.04993296  0.27748196  0.52929264  1  0  -0.648561  0  1.953379  0  0  -0.593906  0  2.185763  0  0  -0.620094  0  2.175438  0  0  -0.32095  -0.575499  0  2.192304  0
O  O65  1  0.54992509  0.77748885  0.97070582  1  0  -0.648521  0  1.953306  0  0  -0.59381  0  2.185674  0  0  -0.619991  0  2.175347  0  0  -0.320884  -0.575411  0  2.192217  0
O  O66  1  0.95007130  0.72250652  0.47070815  1  0  -0.648611  0  1.953293  0  0  -0.593919  0  2.185639  0  0  -0.620101  0  2.175305  0  0  -0.320955  -0.575519  0  2.192182  0
O  O67  1  0.45007005  0.22251359  0.02929367  1  0  -0.648559  0  1.953434  0  0  -0.593899  0  2.185808  0  0  -0.620077  0  2.17547  0  0  -0.320943  -0.575494  0  2.192359  0
O  O68  1  0.47536170  0.21635249  0.85887381  1  0  -0.859037  0  1.870339  0  0  -0.787483  0  2.06162  0  0  -0.811952  0  2.025612  0  0  -0.568415  -0.770126  0  2.086794  0
O  O69  1  0.97536933  0.71636514  0.64112837  1  0  -0.858962  0  1.870373  0  0  -0.787347  0  2.061645  0  0  -0.811816  0  2.025642  0  0  -0.568336  -0.76999  0  2.086813  0
O  O70  1  0.52463118  0.78364376  0.14112633  1  0  -0.858969  0  1.870323  0  0  -0.787373  0  2.061676  0  0  -0.811844  0  2.025673  0  0  -0.568368  -0.770014  0  2.086849  0
O  O71  1  0.02463065  0.28363109  0.35887178  1  0  -0.858939  0  1.870451  0  0  -0.787305  0  2.061674  0  0  -0.811775  0  2.025685  0  0  -0.568314  -0.769948  0  2.086843  0
O  O72  1  0.37590939  0.98272981  0.65882826  1  0  -0.640239  0  1.982753  0  0  -0.570419  0  2.21562  0  0  -0.599436  0  2.206124  0  0  -0.307525  -0.550065  0  2.22157  0
O  O73  1  0.87589531  0.48272690  0.84117062  1  0  -0.640079  0  1.982466  0  0  -0.570433  0  2.215477  0  0  -0.59945  0  2.205983  0  0  -0.307521  -0.55008  0  2.221424  0
O  O74  1  0.62409796  0.01727104  0.34116995  1  0  -0.640104  0  1.982562  0  0  -0.570413  0  2.215549  0  0  -0.59943  0  2.206052  0  0  -0.307513  -0.55006  0  2.221499  0
O  O75  1  0.12409926  0.51727399  0.15883082  1  0  -0.640232  0  1.982699  0  0  -0.570382  0  2.215593  0  0  -0.599398  0  2.206101  0  0  -0.307472  -0.55003  0  2.221533  0
