# generated using pymatgen
data_CoP4H26C16(NO3)4
_symmetry_space_group_name_H-M   'P 1'
_cell_length_a   8.81416353
_cell_length_b   8.70283620
_cell_length_c   9.07446352
_cell_angle_alpha   78.89005034
_cell_angle_beta   65.64266107
_cell_angle_gamma   68.86592479
_symmetry_Int_Tables_number   1
_chemical_formula_structural   CoP4H26C16(NO3)4
_chemical_formula_sum   'Co1 P4 H26 C16 N4 O12'
_cell_volume   590.68291925
_cell_formula_units_Z   1
loop_
 _symmetry_equiv_pos_site_id
 _symmetry_equiv_pos_as_xyz
  1  'x, y, z'
loop_
 _atom_site_type_symbol
 _atom_site_label
 _atom_site_symmetry_multiplicity
 _atom_site_fract_x
 _atom_site_fract_y
 _atom_site_fract_z
 _atom_site_occupancy
 _atom_site_hle17_ddec_charge
 _atom_site_hle17_ddec_spin_density
 _atom_site_hle17_ddec_sum_bond_order
 _atom_site_hle17_magmom
 _atom_site_hse06_10hf_ddec_charge
 _atom_site_hse06_10hf_ddec_spin_density
 _atom_site_hse06_10hf_ddec_sum_bond_order
 _atom_site_hse06_10hf_magmom
 _atom_site_hse06_ddec_charge
 _atom_site_hse06_ddec_spin_density
 _atom_site_hse06_ddec_sum_bond_order
 _atom_site_hse06_magmom
 _atom_site_pbe_cm5_charge
 _atom_site_pbe_ddec_charge
 _atom_site_pbe_ddec_spin_density
 _atom_site_pbe_ddec_sum_bond_order
 _atom_site_pbe_magmom
Co  Co0  1  0.49999860  0.00000015  0.99999998  1  0.844521  1.138456  2.268062  1.046  0.826184  1.045477  2.69211  0.985  0.893246  1.033873  2.618056  0.982  0.65511  0.790869  1.0517  2.736425  0.985
P  P1  1  0.65513104  0.29094162  0.79630130  1  1.453871  0.000367  4.793058  0.001  1.303705  -0.000178  5.307186  0.0  1.355651  -9.5e-05  5.26968  0.0  0.35024  1.267339  -0.000241  5.331707  0.0
P  P2  1  0.34486816  0.70905877  0.20369781  1  1.453807  0.000369  4.79313  0.001  1.303657  -0.000176  5.307244  0.0  1.355604  -9.5e-05  5.269735  0.0  0.350236  1.267289  -0.000241  5.331764  0.0
P  P3  1  0.93504115  0.71406617  0.78161577  1  1.490054  0.001139  4.825118  0.002  1.33399  0.001767  5.338648  0.003  1.383826  0.001242  5.298353  0.002  0.357084  1.300806  0.002273  5.363624  0.003
P  P4  1  0.06495196  0.28593658  0.21838830  1  1.489978  0.00114  4.825214  0.002  1.333922  0.001767  5.338766  0.003  1.383759  0.001242  5.29847  0.002  0.357085  1.30074  0.002273  5.363735  0.003
H  H5  1  0.95704262  0.37763670  0.93900803  1  0.295823  -1.6e-05  0.902009  0.0  0.275356  -1e-06  0.967251  0.0  0.283593  4e-06  0.96153  0.0  0.308067  0.271197  -5e-06  0.969573  0.0
H  H6  1  0.04296027  0.62236376  0.06098982  1  0.29591  -1.6e-05  0.901907  0.0  0.27543  -1e-06  0.96718  0.0  0.283665  4e-06  0.961459  0.0  0.308106  0.271266  -5e-06  0.969514  0.0
H  H7  1  0.53050059  0.76258964  0.78871801  1  0.093485  1.3e-05  0.96896  0.001  0.099503  -0.000168  1.036148  0.0  0.101885  -0.000124  1.03329  0.0  0.122672  0.097326  -0.000223  1.039241  0.0
H  H8  1  0.46949605  0.23741692  0.21128537  1  0.09351  1.3e-05  0.968892  0.001  0.09954  -0.000168  1.036061  0.0  0.101924  -0.000124  1.0332  0.0  0.12268  0.097362  -0.000223  1.039152  0.0
H  H9  1  0.38703554  0.76573861  0.60454007  1  0.129253  -0.00051  0.920742  -0.001  0.140494  -9e-05  0.972177  0.0  0.144158  -7.2e-05  0.970909  0.0  0.1192  0.137764  -6.5e-05  0.973396  0.0
H  H10  1  0.61295825  0.23425422  0.39546981  1  0.129254  -0.00051  0.92073  -0.001  0.140489  -9e-05  0.972178  0.0  0.144152  -7.2e-05  0.970914  0.0  0.119215  0.13776  -6.5e-05  0.973395  0.0
H  H11  1  0.16226780  0.03148971  0.55957339  1  0.106476  8.3e-05  0.948429  0.001  0.116777  -0.000104  1.009856  0.0  0.119901  -5.1e-05  1.006688  0.0  0.108268  0.11392  -0.000228  1.013418  0.0
H  H12  1  0.83772645  0.96850685  0.44042910  1  0.106598  8.3e-05  0.948474  0.001  0.116894  -0.000104  1.009889  0.0  0.120025  -5.1e-05  1.006697  0.0  0.108334  0.114035  -0.000227  1.013453  0.0
H  H13  1  0.27227435  0.25924058  0.86939951  1  0.100569  8e-06  0.950999  0.001  0.108211  -0.000194  1.014315  0.0  0.111321  -0.000141  1.010246  0.0  0.12746  0.10538  -0.000222  1.018343  0.0
H  H14  1  0.72772678  0.74076109  0.13059984  1  0.100571  7e-06  0.951004  0.001  0.108208  -0.000193  1.014339  0.0  0.111318  -0.000141  1.010271  0.0  0.127463  0.105376  -0.000222  1.018366  0.0
H  H15  1  0.02538243  0.32613064  0.59578712  1  0.106873  -3.1e-05  0.957155  0.0  0.119033  -1.9e-05  1.017484  0.0  0.120959  -1.5e-05  1.016572  0.0  0.117564  0.118922  -3.6e-05  1.016288  0.0
H  H16  1  0.97462029  0.67386733  0.40420898  1  0.106916  -3.3e-05  0.957089  0.0  0.118992  -1.9e-05  1.017499  0.0  0.120913  -1.5e-05  1.016586  0.0  0.117512  0.118877  -3.6e-05  1.016305  0.0
H  H17  1  0.14081919  0.42218496  0.64887662  1  0.114184  0.000112  0.929992  0.0  0.130207  3e-05  0.982089  0.0  0.132007  2.5e-05  0.980848  0.0  0.126676  0.128463  2.7e-05  0.983588  0.0
H  H18  1  0.85918177  0.57781422  0.35112098  1  0.114253  0.000112  0.929982  0.0  0.130227  3e-05  0.982093  0.0  0.132026  2.5e-05  0.980856  0.0  0.126685  0.128482  2.7e-05  0.983585  0.0
H  H19  1  0.70325826  0.33409192  0.02506704  1  0.146428  -9.7e-05  0.931562  0.0  0.157202  -6.6e-05  0.992029  0.0  0.160102  -3.7e-05  0.990656  0.0  0.127903  0.155235  -8.9e-05  0.992994  0.0
H  H20  1  0.29674445  0.66590854  0.97493308  1  0.146423  -9.7e-05  0.931547  0.0  0.157222  -6.6e-05  0.991992  0.0  0.160116  -3.7e-05  0.990625  0.0  0.127915  0.155257  -8.9e-05  0.992957  0.0
H  H21  1  0.87078938  0.16015544  0.92316707  1  0.137532  -2.5e-05  0.919566  0.0  0.148671  -3.8e-05  0.976576  0.0  0.150536  -2.9e-05  0.977007  0.0  0.121901  0.147533  -3.9e-05  0.976203  0.0
H  H22  1  0.12921289  0.83984626  0.07683300  1  0.13754  -2.6e-05  0.91951  0.0  0.148685  -3.8e-05  0.976523  0.0  0.150552  -2.9e-05  0.976954  0.0  0.121896  0.147548  -3.9e-05  0.976155  0.0
H  H23  1  0.70289071  0.60173024  0.93243133  1  0.156798  -0.000137  0.954766  0.0  0.167438  -0.000115  1.011238  0.0  0.171239  -0.000106  1.009461  0.0  0.128871  0.164627  -0.000111  1.012751  0.0
H  H24  1  0.29710408  0.39826881  0.06756836  1  0.156781  -0.000136  0.95482  0.0  0.167422  -0.000116  1.011304  0.0  0.171223  -0.000106  1.009528  0.0  0.12886  0.16461  -0.000111  1.012819  0.0
H  H25  1  0.76872014  0.57844769  0.72330945  1  0.150102  5e-06  0.946915  0.0  0.162252  -4e-06  1.00105  0.0  0.165374  1e-06  0.999996  0.0  0.125924  0.159937  -2.5e-05  1.002007  0.0
H  H26  1  0.23127940  0.42155147  0.27669084  1  0.150117  4e-06  0.946813  0.0  0.162273  -4e-06  1.000958  0.0  0.165396  1e-06  0.999903  0.0  0.125925  0.159959  -2.5e-05  1.001915  0.0
H  H27  1  0.79341382  0.03672269  0.71140877  1  0.437778  -0.000289  0.873373  0.0  0.400283  -0.000218  0.947731  0.0  0.412178  -0.000202  0.930751  0.0  0.302797  0.392036  -0.000236  0.959501  0.0
H  H28  1  0.20659153  0.96327659  0.28859397  1  0.437833  -0.000289  0.873291  0.0  0.400313  -0.000218  0.947685  0.0  0.412208  -0.000202  0.930705  0.0  0.302806  0.392066  -0.000236  0.959455  0.0
H  H29  1  0.11824022  0.76611550  0.51947086  1  0.44659  -3.2e-05  0.847281  0.0  0.413717  -1.2e-05  0.91264  0.0  0.424936  -1.4e-05  0.896259  0.0  0.317957  0.405984  -6e-06  0.923767  0.0
H  H30  1  0.88175916  0.23389111  0.48052828  1  0.446527  -3.2e-05  0.847341  0.0  0.413655  -1.2e-05  0.912705  0.0  0.424875  -1.4e-05  0.896321  0.0  0.317943  0.405921  -6e-06  0.923832  0.0
C  C31  1  0.43781439  0.87558629  0.76364460  1  0.119738  -0.018585  3.648464  -0.013  0.089953  -0.00642  3.902945  -0.004  0.100083  -0.004153  3.919696  -0.003  0.048646  0.081698  -0.008089  3.895915  -0.005
C  C32  1  0.56218778  0.12441168  0.23635831  1  0.119722  -0.01858  3.648523  -0.013  0.089925  -0.00642  3.903012  -0.004  0.100055  -0.004152  3.919764  -0.003  0.048613  0.081671  -0.008089  3.895981  -0.005
C  C33  1  0.35510368  0.87865813  0.66128452  1  -0.095741  0.005471  3.715293  0.008  -0.11067  0.000751  3.971463  0.001  -0.118265  0.000565  3.990817  0.001  -0.075086  -0.106624  0.000413  3.961943  0.001
C  C34  1  0.64489199  0.12134095  0.33871930  1  -0.09575  0.005469  3.715343  0.008  -0.110679  0.000751  3.97152  0.001  -0.118274  0.000565  3.990875  0.001  -0.075116  -0.106638  0.000413  3.962002  0.001
C  C35  1  0.23083998  0.02460062  0.63791192  1  -0.054159  -0.020006  3.686914  -0.013  -0.08425  -0.00704  3.940351  -0.004  -0.077482  -0.003952  3.95561  -0.002  -0.069789  -0.090394  -0.00964  3.933789  -0.006
C  C36  1  0.76915683  0.97539848  0.36209261  1  -0.054245  -0.020005  3.686997  -0.013  -0.084359  -0.007041  3.94041  -0.004  -0.077588  -0.00395  3.955668  -0.002  -0.069817  -0.090506  -0.009642  3.933853  -0.006
C  C37  1  0.19720267  0.16456575  0.71477539  1  0.021523  0.004876  3.757509  0.007  0.045046  0.000672  3.998486  0.001  0.038505  0.0005  4.022208  0.001  -0.008783  0.049081  0.000301  3.983912  0.001
C  C38  1  0.80279628  0.83543960  0.28521967  1  0.021586  0.004875  3.757522  0.007  0.045167  0.000673  3.998361  0.001  0.038629  0.0005  4.022084  0.001  -0.008764  0.049198  0.000301  3.983786  0.001
C  C39  1  0.28912652  0.15217407  0.81238092  1  0.085341  -0.018269  3.633255  -0.012  0.047566  -0.006525  3.8845  -0.004  0.058804  -0.004167  3.898103  -0.003  0.051919  0.038637  -0.0081  3.878692  -0.005
C  C40  1  0.71087294  0.84782508  0.18762051  1  0.085315  -0.018265  3.633317  -0.012  0.047511  -0.006526  3.884542  -0.004  0.058747  -0.004165  3.898144  -0.003  0.051889  0.038579  -0.0081  3.878734  -0.005
C  C41  1  0.07339649  0.32888075  0.68864495  1  -0.064138  -0.000666  3.550445  -0.001  -0.123691  -0.000109  3.787293  0.0  -0.120889  -8e-05  3.797988  0.0  -0.058786  -0.125668  -8.9e-05  3.779275  0.0
C  C42  1  0.92660359  0.67111717  0.31135426  1  -0.064353  -0.000665  3.55057  -0.001  -0.12377  -0.00011  3.787285  0.0  -0.120962  -8.1e-05  3.797969  0.0  -0.058765  -0.125739  -8.9e-05  3.779264  0.0
C  C43  1  0.79340681  0.28801839  0.90486694  1  -0.346288  -0.000137  3.494827  0.0  -0.384989  -0.000222  3.743658  0.0  -0.389488  -0.000147  3.748904  0.0  -0.07574  -0.381936  -0.000301  3.740164  0.0
C  C44  1  0.20659538  0.71198331  0.09513427  1  -0.346205  -0.000137  3.494746  0.0  -0.384953  -0.000222  3.743624  0.0  -0.38945  -0.000147  3.748874  0.0  -0.075693  -0.3819  -0.000301  3.740133  0.0
C  C45  1  0.81748722  0.56740422  0.81943653  1  -0.369859  -0.000419  3.524031  0.0  -0.405586  -0.00034  3.765219  0.0  -0.412059  -0.000307  3.770819  0.0  -0.079191  -0.401701  -0.000377  3.762413  0.0
C  C46  1  0.18251295  0.43259743  0.18055983  1  -0.369846  -0.000419  3.523922  0.0  -0.405609  -0.000339  3.765164  0.0  -0.412082  -0.000307  3.770761  0.0  -0.079162  -0.401725  -0.000377  3.762356  0.0
N  N47  1  0.40404854  0.00971614  0.84080561  1  -0.25193  -0.013306  3.363022  -0.007  -0.206145  -0.01045  3.652719  -0.008  -0.232437  -0.009655  3.669587  -0.007  -0.338515  -0.191755  -0.011615  3.643639  -0.009
N  N48  1  0.59595489  0.99028309  0.15919116  1  -0.251935  -0.013306  3.363027  -0.007  -0.206135  -0.01045  3.652705  -0.008  -0.232428  -0.009656  3.669575  -0.007  -0.338474  -0.191743  -0.011615  3.643621  -0.009
N  N49  1  0.91604639  0.38981772  0.83997497  1  -0.011731  0.000213  3.373155  0.0  0.069571  6e-06  3.580503  0.0  0.058685  -3e-06  3.600196  0.0  -0.33383  0.075934  -2.3e-05  3.566883  0.0
N  N50  1  0.08395097  0.61018512  0.16002103  1  -0.011783  0.000212  3.373142  0.0  0.069518  6e-06  3.580495  0.0  0.058635  -2e-06  3.600183  0.0  -0.333903  0.075878  -2.3e-05  3.566872  0.0
O  O51  1  0.59057920  0.45740726  0.72279146  1  -0.78796  -0.004585  1.793292  -0.004  -0.731226  -0.001416  2.023988  -0.001  -0.758145  -0.000901  2.007749  -0.001  -0.380147  -0.710799  -0.001708  2.033795  -0.001
O  O52  1  0.40942087  0.54259067  0.27720775  1  -0.787975  -0.004586  1.793275  -0.004  -0.731233  -0.001415  2.023956  -0.001  -0.758151  -0.000901  2.007712  -0.001  -0.380167  -0.710804  -0.001708  2.033761  -0.001
O  O53  1  0.51704273  0.21898999  0.92746403  1  -0.805586  -0.018597  2.180462  -0.016  -0.750249  -0.008253  2.481632  -0.008  -0.788881  -0.008013  2.463183  -0.008  -0.358346  -0.722666  -0.006967  2.492406  -0.007
O  O54  1  0.48295612  0.78101164  0.07253388  1  -0.805569  -0.018597  2.180502  -0.016  -0.750264  -0.008253  2.481742  -0.008  -0.788897  -0.008013  2.46329  -0.008  -0.358342  -0.72268  -0.006966  2.492513  -0.007
O  O55  1  0.77662669  0.15746739  0.65914918  1  -0.779544  -7.6e-05  2.049551  0.0  -0.702928  -1.3e-05  2.280456  0.0  -0.72625  -8e-06  2.255256  0.0  -0.385723  -0.686436  -1.4e-05  2.297564  0.0
O  O56  1  0.22338060  0.84253068  0.34084980  1  -0.779588  -7.6e-05  2.049491  0.0  -0.702954  -1.3e-05  2.280421  0.0  -0.726278  -8e-06  2.255228  0.0  -0.385769  -0.686467  -1.4e-05  2.297539  0.0
O  O57  1  0.04813293  0.66222231  0.88064190  1  -0.824714  0.000198  1.919708  0.001  -0.761207  0.00027  2.172783  0.001  -0.785659  0.000176  2.155585  0.001  -0.377945  -0.744369  0.0004  2.18309  0.001
O  O58  1  0.95186337  0.33777926  0.11935798  1  -0.82463  0.000198  1.919813  0.001  -0.761109  0.000269  2.172854  0.001  -0.78556  0.000176  2.155657  0.001  -0.37792  -0.744275  0.0004  2.183157  0.001
O  O59  1  0.79375622  0.88311767  0.80850668  1  -0.850884  0.01276  2.039733  0.019  -0.780442  0.014259  2.307381  0.02  -0.808948  0.011749  2.285258  0.017  -0.358099  -0.759784  0.017171  2.321094  0.025
O  O60  1  0.20624403  0.11688275  0.19149427  1  -0.850916  0.01276  2.03967  0.019  -0.780474  0.014258  2.307342  0.02  -0.808987  0.011748  2.285241  0.017  -0.358122  -0.759817  0.017171  2.32106  0.025
O  O61  1  0.04873187  0.69339771  0.59325850  1  -0.77217  0.001306  2.100961  0.002  -0.70069  0.0015  2.333389  0.003  -0.721871  0.001074  2.307752  0.002  -0.390719  -0.685115  0.002016  2.348025  0.003
O  O62  1  0.95126574  0.30660638  0.40674385  1  -0.772084  0.001306  2.101025  0.002  -0.700596  0.0015  2.333407  0.003  -0.72178  0.001074  2.307777  0.002  -0.390706  -0.685022  0.002016  2.348038  0.003
