# generated using pymatgen
data_Zr6H36C55O42
_symmetry_space_group_name_H-M   'P 1'
_cell_length_a   14.77595854
_cell_length_b   14.77848866
_cell_length_c   14.78985411
_cell_angle_alpha   59.28010102
_cell_angle_beta   59.80298622
_cell_angle_gamma   59.91581121
_symmetry_Int_Tables_number   1
_chemical_formula_structural   Zr6H36C55O42
_chemical_formula_sum   'Zr6 H36 C55 O42'
_cell_volume   2266.20277855
_cell_formula_units_Z   1
loop_
 _symmetry_equiv_pos_site_id
 _symmetry_equiv_pos_as_xyz
  1  'x, y, z'
loop_
 _atom_site_type_symbol
 _atom_site_label
 _atom_site_symmetry_multiplicity
 _atom_site_fract_x
 _atom_site_fract_y
 _atom_site_fract_z
 _atom_site_occupancy
 _atom_site_pbe_bader_charge
 _atom_site_pbe_bader_spin_density
 _atom_site_pbe_cm5_charge
 _atom_site_pbe_ddec_charge
 _atom_site_pbe_ddec_spin_density
 _atom_site_pbe_ddec_sum_bond_order
 _atom_site_pbe_magmom
Zr  Zr0  1  0.88273892  0.87884203  0.61689699  1  2.639212  0  1.629914  2.373872  0  2.757583  0
Zr  Zr1  1  0.12423077  0.11950195  0.37343301  1  2.634981  0  1.627397  2.379782  0  2.726538  0
Zr  Zr2  1  0.12254820  0.87708655  0.61702564  1  2.633077  0  1.625494  2.376981  0  2.735693  0
Zr  Zr3  1  0.88401950  0.11985893  0.37441316  1  2.633437  0  1.63  2.37456  0  2.756742  0
Zr  Zr4  1  0.12267199  0.87958914  0.37634802  1  2.638481  0  1.633334  2.378903  0  2.755846  0
Zr  Zr5  1  0.88405308  0.11887090  0.61395805  1  2.634802  0  1.63244  2.377814  0  2.753035  0
H  H6  1  0.09584542  0.71488002  0.59395812  1  0.609649  0  0.329088  0.41823  0  0.867086  0
H  H7  1  0.09854482  0.09465634  0.21116923  1  0.602581  0  0.330749  0.421726  0  0.861915  0
H  H8  1  0.09809089  0.09271378  0.58860561  1  0.606394  0  0.324384  0.411426  0  0.876413  0
H  H9  1  0.72101801  0.09399259  0.58944305  1  0.603895  0  0.332569  0.424716  0  0.855202  0
H  H10  1  0.84534280  0.59082870  0.63113820  1  0.11953  0  0.116279  0.125706  0  0.979008  0
H  H11  1  0.14270752  0.59460377  0.34552520  1  0.179816  0  0.114987  0.131621  0  1.002279  0
H  H12  1  0.84961664  0.42161922  0.62552827  1  0.130367  0  0.114261  0.128239  0  0.994121  0
H  H13  1  0.58994124  0.84946079  0.91648720  1  0.092616  0  0.113739  0.121753  0  0.984076  0
H  H14  1  0.61181526  0.12301657  0.92769779  1  0.143526  0  0.114055  0.135479  0  1.019377  0
H  H15  1  0.42137022  0.84958685  0.08827847  1  0.137794  0  0.112817  0.128302  0  1.002598  0
H  H16  1  0.13544008  0.84034564  0.09471600  1  0.114003  0  0.119187  0.130026  0  0.97402  0
H  H17  1  0.85297665  0.13979385  0.08551572  1  0.14626  0  0.118051  0.130536  0  0.979787  0
H  H18  1  0.13270712  0.84067654  0.92608667  1  0.159525  0  0.1159  0.127795  0  0.989356  0
H  H19  1  0.60657510  0.43077422  0.62218719  1  0.109205  0  0.118271  0.12796  0  0.973977  0
H  H20  1  0.59482404  0.41995222  0.34344041  1  0.119944  0  0.115754  0.127802  0  0.986245  0
H  H21  1  0.43672129  0.60040021  0.62112566  1  0.136933  0  0.114392  0.131299  0  1.008461  0
H  H22  1  0.10818603  0.31912895  0.98157835  1  0.005861  0  0.085228  0.074809  0  0.991343  0
H  H23  1  0.17187130  0.37123861  0.01112785  1  0.020936  0  0.093432  0.090346  0  0.995049  0
H  H24  1  0.16869834  0.51624293  0.84010374  1  0.078171  0  0.094716  0.095674  0  0.984196  0
H  H25  1  0.08014228  0.47868703  0.82695475  1  0.005864  0  0.085216  0.076324  0  0.987112  0
H  H26  1  0.08647093  0.62072787  0.97059961  1  0.028621  0  0.097875  0.102999  0  0.97201  0
H  H27  1  0.94211778  0.68844870  0.01795472  1  0.01676  0  0.093173  0.088693  0  0.975993  0
H  H28  1  0.06106437  0.47768779  0.14372248  1  0.073006  0  0.095024  0.108841  0  1.019911  0
H  H29  1  0.91529587  0.53327805  0.17768163  1  0.014178  0  0.091641  0.088791  0  0.972653  0
H  H30  1  0.89447060  0.39584488  0.03960377  1  0.01769  0  0.087276  0.083911  0  0.985406  0
H  H31  1  0.81667171  0.46695453  0.13483399  1  0.04537  0  0.094537  0.096997  0  0.979433  0
H  H32  1  0.81480895  0.63965553  0.99160834  1  0.031366  0  0.094558  0.095569  0  0.971712  0
H  H33  1  0.87000951  0.57046447  0.89840968  1  0.031527  0  0.090663  0.090154  0  0.991593  0
H  H34  1  0.58809341  0.14382513  0.34744727  1  0.124607  0  0.116874  0.125979  0  0.974426  0
H  H35  1  0.59969279  0.84241051  0.63332996  1  0.120738  0  0.115355  0.12702  0  0.98557  0
H  H36  1  0.42110566  0.13890517  0.34820443  1  0.180306  0  0.113438  0.130341  0  1.023804  0
H  H37  1  0.24973266  0.29737773  0.41222891  1  0.60029  0  0.331447  0.357934  0  0.888979  0
H  H38  1  0.34145221  0.25292734  0.03562632  1  0.586832  0  0.331025  0.358552  0  0.896901  0
H  H39  1  0.92365287  0.25133629  0.80499983  1  0.602403  0  0.332971  0.360859  0  0.885959  0
H  H40  1  0.30551871  0.52956899  0.41887808  1  0.617784  0  0.333282  0.362605  0  0.884784  0
H  H41  1  0.30145919  0.89757984  0.74477638  1  0.608279  0  0.332432  0.364684  0  0.887295  0
C  C42  1  0.99704436  0.69911544  0.49375239  1  1.562941  0  0.235322  0.634429  0  4.107943  0
C  C43  1  0.31438215  0.99239431  0.19750635  1  1.544858  0  0.237213  0.638398  0  4.105665  0
C  C44  1  0.00085338  0.30867084  0.48776623  1  1.541821  0  0.231525  0.62736  0  4.129526  0
C  C45  1  0.70467421  0.99321836  0.80492878  1  1.547607  0  0.23847  0.640816  0  4.093812  0
C  C46  1  0.99652408  0.69786550  0.80805728  1  1.520132  0  0.245195  0.640675  0  4.02285  0
C  C47  1  0.70205343  0.99618472  0.49262106  1  1.546361  0  0.238291  0.639877  0  4.099699  0
C  C48  1  0.99917550  0.30986658  0.19252176  1  1.54676  0  0.244837  0.640425  0  4.020527  0
C  C49  1  0.31107210  0.99414577  0.49342056  1  1.556395  0  0.232787  0.629702  0  4.115627  0
C  C50  1  0.31257057  0.69901015  0.49135133  1  1.559579  0  0.235512  0.634083  0  4.113586  0
C  C51  1  0.99886177  0.99373990  0.80505020  1  1.577282  0  0.231213  0.626148  0  4.127876  0
C  C52  1  0.70630209  0.30989579  0.48761689  1  1.545566  0  0.237878  0.638425  0  4.104383  0
C  C53  1  0.99840144  0.99469028  0.19615864  1  1.563037  0  0.238561  0.638231  0  4.105592  0
C  C54  1  0.00010324  0.41146111  0.48519374  1  -0.036821  0  -0.01481  -0.069349  0  3.957922  0
C  C55  1  0.99541392  0.60068639  0.49003486  1  -0.034229  0  -0.012196  -0.028145  0  3.967212  0
C  C56  1  0.08335189  0.46031435  0.40460662  1  -0.025755  0  -0.007425  -0.0654  0  3.97764  0
C  C57  1  0.91151571  0.55340948  0.56865056  1  -0.055997  0  -0.075341  -0.085972  0  3.953289  0
C  C58  1  0.07957298  0.55522226  0.40759027  1  -0.020555  0  -0.077702  -0.122012  0  3.932631  0
C  C59  1  0.91402662  0.45975393  0.56553136  1  -0.040171  0  -0.078056  -0.085301  0  3.955804  0
C  C60  1  0.41932726  0.98948346  0.10059948  1  -0.044397  0  -0.011053  -0.06315  0  3.948635  0
C  C61  1  0.60739308  0.98941068  0.90979590  1  -0.082594  0  -0.011761  -0.030559  0  3.968702  0
C  C62  1  0.47414126  0.06571263  0.05733969  1  -0.042977  0  -0.006691  -0.06618  0  3.974588  0
C  C63  1  0.55601626  0.91018319  0.95593855  1  0.059708  0  -0.075664  -0.087069  0  3.954196  0
C  C64  1  0.56772440  0.06561069  0.96140418  1  -0.008827  0  -0.074056  -0.114932  0  3.916843  0
C  C65  1  0.46231255  0.91066864  0.05068580  1  -0.034255  0  -0.074591  -0.07792  0  3.945753  0
C  C66  1  0.99447685  0.99268910  0.90876329  1  -0.043907  0  -0.013045  -0.067027  0  3.957682  0
C  C67  1  0.99565670  0.99160714  0.09799045  1  0.051158  0  -0.008715  -0.024215  0  3.959213  0
C  C68  1  0.91376545  0.07729380  0.95406237  1  -0.033576  0  -0.00744  -0.068725  0  3.983597  0
C  C69  1  0.07419946  0.90613987  0.05449492  1  -0.086317  0  -0.071842  -0.081927  0  3.942685  0
C  C70  1  0.91493202  0.07560904  0.04880645  1  -0.057335  0  -0.072539  -0.112306  0  3.93053  0
C  C71  1  0.07292031  0.90676328  0.96080956  1  -0.048573  0  -0.075906  -0.084689  0  3.955118  0
C  C72  1  0.41741578  0.60202317  0.48533645  1  -0.051306  0  -0.011029  -0.064417  0  3.94524  0
C  C73  1  0.60834604  0.41416279  0.48463946  1  -0.008264  0  -0.010908  -0.029655  0  3.9694  0
C  C74  1  0.46297306  0.55307803  0.40438930  1  -0.036061  0  -0.009344  -0.071197  0  3.986814  0
C  C75  1  0.56531568  0.46529736  0.56227884  1  -0.02289  0  -0.070192  -0.077176  0  3.930681  0
C  C76  1  0.55844688  0.45932610  0.40486314  1  -0.019788  0  -0.076395  -0.119238  0  3.947301  0
C  C77  1  0.47050389  0.55882020  0.56223309  1  -0.002342  0  -0.070494  -0.072615  0  3.92982  0
C  C78  1  0.09945089  0.39220391  0.99177795  1  -0.013503  0  -0.15587  -0.168249  0  3.867217  0
C  C79  1  0.09204667  0.49520174  0.88426467  1  -0.061573  0  -0.156397  -0.169694  0  3.861239  0
C  C80  1  0.99280207  0.59625663  0.91420958  1  0.045471  0  -0.016065  0.013902  0  3.808461  0
C  C81  1  0.00549186  0.61114089  0.00290520  1  0.000525  0  -0.154857  -0.165785  0  3.842647  0
C  C82  1  0.99362702  0.50937436  0.11240486  1  -0.020443  0  -0.158407  -0.178169  0  3.834455  0
C  C83  1  0.99417476  0.41668061  0.09159765  1  0.033706  0  -0.015969  0.015709  0  3.808184  0
C  C84  1  0.89105630  0.45870367  0.06125501  1  -0.032204  0  -0.163923  -0.176766  0  3.887755  0
C  C85  1  0.88466490  0.57126791  0.96369232  1  -0.015582  0  -0.163364  -0.17751  0  3.882227  0
C  C86  1  0.41246473  0.99188196  0.49498815  1  -0.003472  0  -0.013435  -0.068539  0  3.949105  0
C  C87  1  0.60184923  0.99469795  0.49221251  1  -0.035548  0  -0.010341  -0.028596  0  3.962499  0
C  C88  1  0.46351148  0.90608606  0.57553150  1  -0.048923  0  -0.008815  -0.068784  0  3.9781  0
C  C89  1  0.55196084  0.07859658  0.41151436  1  -0.040173  0  -0.071055  -0.075064  0  3.928812  0
C  C90  1  0.55820426  0.90842191  0.57289133  1  -0.009545  0  -0.075296  -0.11421  0  3.935425  0
C  C91  1  0.45814028  0.07672058  0.41299219  1  -0.045107  0  -0.074938  -0.076988  0  3.938791  0
C  C92  1  0.17622277  0.42243357  0.30893691  1  1.557395  0  0.237547  0.586782  0  4.11624  0
C  C93  1  0.44470714  0.14225870  0.11394400  1  1.574368  0  0.238671  0.595598  0  4.111852  0
C  C94  1  0.82132545  0.16961518  0.90950233  1  1.546513  0  0.236949  0.588724  0  4.120263  0
C  C95  1  0.41893430  0.59677943  0.31201340  1  1.558402  0  0.236195  0.593024  0  4.116065  0
C  C96  1  0.42871421  0.80533616  0.66246867  1  1.559398  0  0.236299  0.593096  0  4.112906  0
O  O97  1  0.92137012  0.73582916  0.57245937  1  -1.173268  0  -0.349149  -0.612232  0  2.274024  0
O  O98  1  0.27292718  0.07127798  0.23477310  1  -1.177819  0  -0.350649  -0.621653  0  2.330972  0
O  O99  1  0.07855016  0.26871389  0.41174320  1  -1.17878  0  -0.344964  -0.612113  0  2.325258  0
O  O100  1  0.74125089  0.91846818  0.76399591  1  -1.172462  0  -0.35554  -0.620056  0  2.287082  0
O  O101  1  0.07579994  0.73549861  0.76656725  1  -1.182165  0  -0.359382  -0.62668  0  2.277072  0
O  O102  1  0.74048735  0.07498039  0.41570851  1  -1.178477  0  -0.352806  -0.617668  0  2.276834  0
O  O103  1  0.92472676  0.26647770  0.23268807  1  -1.183245  0  -0.359681  -0.622564  0  2.315364  0
O  O104  1  0.27074641  0.91653444  0.57090657  1  -1.186584  0  -0.352429  -0.622461  0  2.336838  0
O  O105  1  0.26977209  0.73706783  0.41700609  1  -1.180283  0  -0.350799  -0.619794  0  2.342615  0
O  O106  1  0.92425544  0.07275673  0.76252045  1  -1.184175  0  -0.344344  -0.609538  0  2.334724  0
O  O107  1  0.74462972  0.26827662  0.56618183  1  -1.175718  0  -0.354438  -0.615404  0  2.284806  0
O  O108  1  0.07699227  0.91916195  0.23431454  1  -1.176983  0  -0.351127  -0.612321  0  2.279762  0
O  O109  1  0.07775764  0.91828303  0.76522203  1  -1.189086  0  -0.347858  -0.611242  0  2.289075  0
O  O110  1  0.74276819  0.26868438  0.41326109  1  -1.171671  0  -0.352234  -0.614325  0  2.285011  0
O  O111  1  0.92350825  0.07374778  0.23274405  1  -1.182751  0  -0.351775  -0.615404  0  2.279907  0
O  O112  1  0.27174735  0.73496109  0.57057153  1  -1.172396  0  -0.345075  -0.598827  0  2.27323  0
O  O113  1  0.92258256  0.73730464  0.76460912  1  -1.185954  0  -0.356777  -0.619143  0  2.310814  0
O  O114  1  0.27029900  0.07389363  0.41774822  1  -1.176836  0  -0.344405  -0.598454  0  2.293807  0
O  O115  1  0.07899371  0.26812131  0.22912640  1  -1.186955  0  -0.355233  -0.619747  0  2.27142  0
O  O116  1  0.74082858  0.91937434  0.57104043  1  -1.177114  0  -0.354293  -0.616714  0  2.284807  0
O  O117  1  0.74321820  0.07211946  0.76218442  1  -1.173355  0  -0.353954  -0.609679  0  2.281907  0
O  O118  1  0.07616057  0.73719730  0.41867453  1  -1.188056  0  -0.354932  -0.616477  0  2.302751  0
O  O119  1  0.27122775  0.91877850  0.23447750  1  -1.170153  0  -0.350099  -0.603541  0  2.287755  0
O  O120  1  0.92571034  0.26703520  0.56711675  1  -1.181206  0  -0.350412  -0.609191  0  2.302533  0
O  O121  1  0.80138484  0.06715161  0.56228987  1  -1.232923  0  -0.696235  -1.072585  0  2.365773  0
O  O122  1  0.07106640  0.06601048  0.56231182  1  -1.238121  0  -0.694144  -1.069588  0  2.377181  0
O  O123  1  0.07175228  0.06671573  0.29197695  1  -1.232436  0  -0.695898  -1.073486  0  2.372981  0
O  O124  1  0.07024568  0.79562811  0.56485673  1  -1.238881  0  -0.695305  -1.070746  0  2.375427  0
O  O125  1  0.15241490  0.94897276  0.44633630  1  -1.196644  0  -0.788229  -1.14636  0  2.1155  0
O  O126  1  0.95340070  0.94945500  0.44625784  1  -1.202966  0  -0.792001  -1.150935  0  2.123916  0
O  O127  1  0.95493400  0.14863157  0.44394263  1  -1.196964  0  -0.790438  -1.148901  0  2.124954  0
O  O128  1  0.95365246  0.94863248  0.64539559  1  -1.194702  0  -0.790994  -1.148544  0  2.12683  0
O  O129  1  0.26720561  0.33546336  0.33171640  1  -1.090203  0  -0.32701  -0.460924  0  2.255313  0
O  O130  1  0.17614948  0.47402407  0.21357234  1  -1.107586  0  -0.261593  -0.424329  0  2.069907  0
O  O131  1  0.37481517  0.24771463  0.08148419  1  -1.084333  0  -0.328919  -0.461919  0  2.232216  0
O  O132  1  0.48881806  0.11479628  0.17874833  1  -1.100131  0  -0.262489  -0.431726  0  2.09536  0
O  O133  1  0.84443458  0.26493095  0.82969151  1  -1.097374  0  -0.335251  -0.477541  0  2.238706  0
O  O134  1  0.72813653  0.16659724  0.94826915  1  -1.10013  0  -0.257113  -0.422882  0  2.099847  0
O  O135  1  0.33524051  0.56312396  0.33801437  1  -1.113976  0  -0.334627  -0.477037  0  2.252655  0
O  O136  1  0.46182086  0.64892031  0.21623999  1  -1.11937  0  -0.26999  -0.439082  0  2.063309  0
O  O137  1  0.34233433  0.81831526  0.75713743  1  -1.101783  0  -0.336358  -0.479535  0  2.237423  0
O  O138  1  0.48188943  0.71304698  0.65539799  1  -1.118575  0  -0.270814  -0.442136  0  2.067438  0
