# generated using pymatgen
data_Cd3H58C66(NO4)4
_symmetry_space_group_name_H-M   'P 1'
_cell_length_a   14.20348072
_cell_length_b   17.21634888
_cell_length_c   17.21642137
_cell_angle_alpha   60.13251991
_cell_angle_beta   83.57873017
_cell_angle_gamma   83.57853955
_symmetry_Int_Tables_number   1
_chemical_formula_structural   Cd3H58C66(NO4)4
_chemical_formula_sum   'Cd6 H116 C132 N8 O32'
_cell_volume   3620.18548946
_cell_formula_units_Z   2
loop_
 _symmetry_equiv_pos_site_id
 _symmetry_equiv_pos_as_xyz
  1  'x, y, z'
loop_
 _atom_site_type_symbol
 _atom_site_label
 _atom_site_symmetry_multiplicity
 _atom_site_fract_x
 _atom_site_fract_y
 _atom_site_fract_z
 _atom_site_occupancy
 _atom_site_pbe_bader_charge
 _atom_site_pbe_bader_spin_density
 _atom_site_pbe_cm5_charge
 _atom_site_pbe_ddec_charge
 _atom_site_pbe_ddec_spin_density
 _atom_site_pbe_ddec_sum_bond_order
 _atom_site_pbe_magmom
Cd  Cd0  1  0.68862157  0.83056445  0.51928368  1  1.298334  0  0.769714  0.997378  0  2.03777  0
Cd  Cd1  1  0.81137434  0.48071569  0.16943784  1  1.298219  0  0.76971  0.997416  0  2.037667  0
Cd  Cd2  1  0.31138544  0.16943630  0.48071674  1  1.298307  0  0.769756  0.997421  0  2.037587  0
Cd  Cd3  1  0.18861785  0.51928506  0.83056816  1  1.298303  0  0.769741  0.997444  0  2.037571  0
Cd  Cd4  1  0.49998888  0.00000029  0.49999531  1  1.372555  0  0.788029  1.072742  0  2.215014  0
Cd  Cd5  1  0.99998811  0.50000153  0.00000141  1  1.372586  0  0.78802  1.072872  0  2.214771  0
H  H6  1  0.61236247  0.08789814  0.56094135  1  0.078672  0  0.100988  0.106487  0  1.060641  0
H  H7  1  0.88762032  0.43904912  0.91212295  1  0.078784  0  0.100974  0.106518  0  1.060584  0
H  H8  1  0.38761999  0.91210799  0.43905191  1  0.078805  0  0.10094  0.106524  0  1.060585  0
H  H9  1  0.11236623  0.56094425  0.08790414  1  0.078635  0  0.100965  0.106469  0  1.060729  0
H  H10  1  0.57984631  0.17055762  0.64417515  1  0.092538  0  0.101709  0.102574  0  1.00393  0
H  H11  1  0.92015091  0.35582367  0.82945782  1  0.092496  0  0.101731  0.102566  0  1.003891  0
H  H12  1  0.42014665  0.82944179  0.35582968  1  0.09228  0  0.101722  0.102592  0  1.003971  0
H  H13  1  0.07984812  0.64417372  0.17056658  1  0.092583  0  0.10164  0.102516  0  1.00395  0
H  H14  1  0.71382452  0.95053063  0.87162207  1  0.074849  0  0.094489  0.091032  0  1.043263  0
H  H15  1  0.78620338  0.12835256  0.04947372  1  0.074662  0  0.094479  0.091154  0  1.043202  0
H  H16  1  0.28620767  0.04947213  0.12836086  1  0.074769  0  0.0945  0.091177  0  1.043167  0
H  H17  1  0.21381504  0.87162603  0.95053426  1  0.074777  0  0.094483  0.091028  0  1.043229  0
H  H18  1  0.74236037  0.86539069  0.78844168  1  0.090651  0  0.103675  0.109843  0  1.002946  0
H  H19  1  0.75765049  0.21152205  0.13462695  1  0.091422  0  0.103622  0.109781  0  1.002902  0
H  H20  1  0.25765892  0.13462349  0.21153164  1  0.09132  0  0.103619  0.109785  0  1.002945  0
H  H21  1  0.24235457  0.78844581  0.86539296  1  0.090685  0  0.103704  0.109857  0  1.00292  0
H  H22  1  0.65368508  0.24328026  0.69044976  1  0.043377  0  0.099998  0.096488  0  1.048832  0
H  H23  1  0.84632233  0.30955757  0.75672233  1  0.043185  0  0.100004  0.096527  0  1.048733  0
H  H24  1  0.34630724  0.75671714  0.30955034  1  0.04337  0  0.099965  0.096492  0  1.048803  0
H  H25  1  0.15370008  0.69044787  0.24328407  1  0.043291  0  0.099895  0.096404  0  1.04884  0
H  H26  1  0.61599349  0.25985281  0.93286424  1  0.038065  0  0.100901  0.099384  0  1.043071  0
H  H27  1  0.88402123  0.06714868  0.74012945  1  0.038133  0  0.100881  0.099424  0  1.042936  0
H  H28  1  0.38402315  0.74013115  0.06714124  1  0.038338  0  0.100872  0.099354  0  1.043  0
H  H29  1  0.11597617  0.93285879  0.25987325  1  0.038214  0  0.10089  0.099396  0  1.042939  0
H  H30  1  0.60730077  0.00577688  0.94349259  1  0.088994  0  0.099236  0.102238  0  1.02573  0
H  H31  1  0.89270952  0.05650607  0.99421117  1  0.089175  0  0.099202  0.102205  0  1.025793  0
H  H32  1  0.39271555  0.99421112  0.05650859  1  0.089169  0  0.099252  0.10231  0  1.025698  0
H  H33  1  0.10729864  0.94348864  0.00579389  1  0.089282  0  0.099228  0.10222  0  1.025664  0
H  H34  1  0.62525264  0.37512843  0.62267797  1  0.058568  0  0.101056  0.103932  0  1.008195  0
H  H35  1  0.87475166  0.37734633  0.62485918  1  0.058204  0  0.101157  0.103999  0  1.008299  0
H  H36  1  0.37472006  0.62485622  0.37733454  1  0.05903  0  0.101031  0.103797  0  1.008462  0
H  H37  1  0.12526060  0.62266246  0.37514658  1  0.058753  0  0.101014  0.103798  0  1.008319  0
H  H38  1  0.65803842  0.53523535  0.53442871  1  0.066154  0  0.105592  0.111641  0  0.992392  0
H  H39  1  0.84195496  0.46559139  0.46475215  1  0.066043  0  0.105546  0.111539  0  0.992415  0
H  H40  1  0.34193794  0.46474594  0.46557696  1  0.066396  0  0.105516  0.111519  0  0.992498  0
H  H41  1  0.15804372  0.53442009  0.53525829  1  0.066261  0  0.105634  0.111689  0  0.992437  0
H  H42  1  0.69311134  0.53920711  0.77700638  1  0.083186  0  0.10958  0.117097  0  0.983058  0
H  H43  1  0.80689143  0.22300381  0.46079943  1  0.082996  0  0.109569  0.117069  0  0.983242  0
H  H44  1  0.30690211  0.46079095  0.22298601  1  0.082981  0  0.109559  0.117124  0  0.983173  0
H  H45  1  0.19311801  0.77700499  0.53920719  1  0.083061  0  0.109602  0.117108  0  0.983099  0
H  H46  1  0.67236524  0.37690536  0.86552878  1  0.084466  0  0.10069  0.103753  0  1.022332  0
H  H47  1  0.82764583  0.13449101  0.62309389  1  0.084905  0  0.10079  0.103792  0  1.022289  0
H  H48  1  0.32764426  0.62309002  0.13447349  1  0.084528  0  0.100721  0.103791  0  1.022282  0
H  H49  1  0.17236910  0.86552047  0.37691142  1  0.084568  0  0.100725  0.103748  0  1.022369  0
H  H50  1  0.54188450  0.20500151  0.05190181  1  0.073618  0  0.103528  0.102258  0  1.016212  0
H  H51  1  0.95812068  0.94809456  0.79499566  1  0.073487  0  0.103493  0.102149  0  1.016268  0
H  H52  1  0.45812845  0.79499387  0.94809314  1  0.073438  0  0.103471  0.102171  0  1.01626  0
H  H53  1  0.04187567  0.05190686  0.20500667  1  0.073423  0  0.103473  0.102182  0  1.016244  0
H  H54  1  0.53294952  0.13496056  0.21692639  1  0.082697  0  0.104648  0.106027  0  1.013272  0
H  H55  1  0.96705484  0.78307123  0.86504345  1  0.082772  0  0.104626  0.10599  0  1.013278  0
H  H56  1  0.46706127  0.86503550  0.78306960  1  0.082707  0  0.104628  0.106037  0  1.013142  0
H  H57  1  0.03294151  0.21693153  0.13496518  1  0.082599  0  0.104654  0.106047  0  1.013161  0
H  H58  1  0.64864775  0.88473371  0.23915815  1  0.099625  0  0.103825  0.107374  0  1.006021  0
H  H59  1  0.85135295  0.76085079  0.11526031  1  0.099135  0  0.103843  0.107408  0  1.005988  0
H  H60  1  0.35135370  0.11525563  0.76085084  1  0.099203  0  0.103855  0.107456  0  1.006003  0
H  H61  1  0.14864455  0.23915533  0.88474305  1  0.099193  0  0.103866  0.107438  0  1.006025  0
H  H62  1  0.65845559  0.95381686  0.07235852  1  0.028938  0  0.093046  0.086176  0  1.053499  0
H  H63  1  0.84154430  0.92765166  0.04617031  1  0.028552  0  0.093046  0.086213  0  1.053409  0
H  H64  1  0.34155040  0.04616778  0.92765003  1  0.029018  0  0.093057  0.086219  0  1.053481  0
H  H65  1  0.15845108  0.07235379  0.95383127  1  0.028947  0  0.093086  0.086285  0  1.053461  0
H  H66  1  0.85316586  0.76445320  0.40990106  1  0.082299  0  0.124243  0.059668  0  0.987762  0
H  H67  1  0.64682969  0.59009116  0.23553883  1  0.082548  0  0.124296  0.059715  0  0.987763  0
H  H68  1  0.14682607  0.23556031  0.59009163  1  0.082457  0  0.124243  0.059704  0  0.987493  0
H  H69  1  0.35316900  0.40990422  0.76445175  1  0.082593  0  0.124282  0.059713  0  0.987673  0
H  H70  1  0.94360018  0.86256027  0.19461009  1  0.102953  0  0.099138  0.112667  0  1.043111  0
H  H71  1  0.55640731  0.80538544  0.13743846  1  0.10306  0  0.0991  0.112668  0  1.043202  0
H  H72  1  0.05640837  0.13743779  0.80538687  1  0.103094  0  0.099094  0.112623  0  1.043266  0
H  H73  1  0.44359656  0.19461733  0.86254907  1  0.103165  0  0.099088  0.112618  0  1.043228  0
H  H74  1  0.81819476  0.85594745  0.19871717  1  0.026035  0  0.098112  0.104982  0  1.018599  0
H  H75  1  0.68181015  0.80127453  0.14405073  1  0.025828  0  0.098155  0.105005  0  1.018664  0
H  H76  1  0.18181001  0.14404323  0.80128152  1  0.025896  0  0.098114  0.104967  0  1.018691  0
H  H77  1  0.31818835  0.19872355  0.85593737  1  0.02604  0  0.098108  0.104982  0  1.018688  0
H  H78  1  0.88732283  0.76756060  0.28386416  1  0.048489  0  0.115665  0.131867  0  0.975713  0
H  H79  1  0.61268173  0.71612785  0.23243813  1  0.048954  0  0.115629  0.131884  0  0.975762  0
H  H80  1  0.11268629  0.23244082  0.71613745  1  0.048482  0  0.115647  0.131903  0  0.975669  0
H  H81  1  0.38731572  0.28387626  0.76755287  1  0.048749  0  0.115602  0.131881  0  0.975797  0
H  H82  1  0.91053086  0.01030139  0.19397202  1  0.070511  0  0.099643  0.10983  0  1.038253  0
H  H83  1  0.58946973  0.80602975  0.98969591  1  0.070495  0  0.099597  0.109808  0  1.038188  0
H  H84  1  0.08947059  0.98970540  0.80601259  1  0.070309  0  0.099601  0.109814  0  1.038283  0
H  H85  1  0.41053260  0.19397637  0.01029766  1  0.070185  0  0.099584  0.109771  0  1.038219  0
H  H86  1  0.85092372  0.00656621  0.29346465  1  0.109419  0  0.117593  0.14351  0  0.974142  0
H  H87  1  0.64907641  0.70653694  0.99342597  1  0.109143  0  0.117554  0.143484  0  0.974146  0
H  H88  1  0.14907549  0.99344260  0.70652035  1  0.109485  0  0.117588  0.143537  0  0.974042  0
H  H89  1  0.35092415  0.29347322  0.00655996  1  0.109306  0  0.117616  0.143553  0  0.974143  0
H  H90  1  0.78478863  0.00490473  0.21195077  1  0.073963  0  0.099634  0.113162  0  1.028935  0
H  H91  1  0.71520885  0.78804808  0.99509541  1  0.073983  0  0.099627  0.113162  0  1.028978  0
H  H92  1  0.21520946  0.99509938  0.78803552  1  0.07387  0  0.09964  0.113229  0  1.028947  0
H  H93  1  0.28478793  0.21195670  0.00490172  1  0.074054  0  0.099638  0.113178  0  1.028934  0
H  H94  1  0.47169330  0.79926865  0.68922285  1  0.094453  0  0.126037  0.053176  0  0.986862  0
H  H95  1  0.02830189  0.31078031  0.20073143  1  0.094382  0  0.126049  0.053206  0  0.986856  0
H  H96  1  0.52830066  0.20074353  0.31075694  1  0.094176  0  0.126021  0.053149  0  0.986821  0
H  H97  1  0.97168994  0.68924461  0.79925384  1  0.094515  0  0.126019  0.053173  0  0.986819  0
H  H98  1  0.37948865  0.59692190  0.77295693  1  0.070115  0  0.10166  0.119928  0  1.036369  0
H  H99  1  0.12050500  0.22704562  0.40307818  1  0.070164  0  0.101673  0.119918  0  1.036299  0
H  H100  1  0.62051377  0.40308422  0.22704303  1  0.07004  0  0.101609  0.119921  0  1.036238  0
H  H101  1  0.87949515  0.77295917  0.59690582  1  0.070367  0  0.101597  0.11993  0  1.036294  0
H  H102  1  0.44647910  0.66380726  0.79502490  1  0.074977  0  0.111471  0.12653  0  0.979989  0
H  H103  1  0.05351818  0.20497935  0.33618895  1  0.074744  0  0.111462  0.12654  0  0.979956  0
H  H104  1  0.55352215  0.33620423  0.20496611  1  0.075136  0  0.111526  0.126648  0  0.979947  0
H  H105  1  0.94647935  0.79503282  0.66379281  1  0.075192  0  0.11151  0.126635  0  0.979871  0
H  H106  1  0.50666199  0.58686041  0.76148152  1  0.064298  0  0.100258  0.11461  0  1.010066  0
H  H107  1  0.99332944  0.23851875  0.41313916  1  0.064281  0  0.100255  0.114609  0  1.010008  0
H  H108  1  0.49333758  0.41314571  0.23851757  1  0.064109  0  0.100305  0.114745  0  1.010046  0
H  H109  1  0.00667201  0.76147865  0.58685420  1  0.064192  0  0.100299  0.11474  0  1.010105  0
H  H110  1  0.37173439  0.63407598  0.61512205  1  0.053848  0  0.106201  0.124003  0  1.008505  0
H  H111  1  0.12825839  0.38487993  0.36592299  1  0.05397  0  0.106274  0.12418  0  1.008405  0
H  H112  1  0.62826502  0.36591135  0.38488409  1  0.054123  0  0.106234  0.124147  0  1.008426  0
H  H113  1  0.87173617  0.61511679  0.63408303  1  0.054008  0  0.106215  0.124118  0  1.00838  0
H  H114  1  0.49658711  0.63708624  0.58697069  1  0.061185  0  0.103384  0.117295  0  1.006436  0
H  H115  1  0.00340534  0.41303787  0.36290894  1  0.061526  0  0.103395  0.117345  0  1.006382  0
H  H116  1  0.50340797  0.36290176  0.41303381  1  0.061737  0  0.103306  0.117236  0  1.006368  0
H  H117  1  0.99659224  0.58696691  0.63709392  1  0.061693  0  0.103305  0.117218  0  1.006375  0
H  H118  1  0.42088432  0.73602318  0.52808161  1  0.102874  0  0.111145  0.130663  0  1.003171  0
H  H119  1  0.07911270  0.47192179  0.26397591  1  0.102855  0  0.11115  0.130698  0  1.003181  0
H  H120  1  0.57911004  0.26396349  0.47191608  1  0.102578  0  0.111119  0.130618  0  1.00321  0
H  H121  1  0.92088855  0.52808232  0.73603388  1  0.102607  0  0.11112  0.130599  0  1.003183  0
C  C122  1  0.67886921  0.97043706  0.66969230  1  0.072707  0  -0.020312  -0.032911  0  3.974313  0
C  C123  1  0.82111925  0.33028719  0.02958062  1  0.07265  0  -0.020339  -0.033227  0  3.974462  0
C  C124  1  0.32112270  0.02956504  0.33029911  1  0.072404  0  -0.020256  -0.032841  0  3.974182  0
C  C125  1  0.17887013  0.66969410  0.97044291  1  0.072694  0  -0.020328  -0.032953  0  3.974362  0
C  C126  1  0.63434202  0.05709318  0.62920214  1  -0.042291  0  -0.087363  -0.091964  0  3.975793  0
C  C127  1  0.86564788  0.37078788  0.94292548  1  -0.04284  0  -0.087343  -0.09199  0  3.975268  0
C  C128  1  0.36564912  0.94291027  0.37079100  1  -0.042492  0  -0.087286  -0.091912  0  3.975674  0
C  C129  1  0.13434431  0.62920548  0.05709871  1  -0.041958  0  -0.08732  -0.09186  0  3.975831  0
C  C130  1  0.61698229  0.10420603  0.67602277  1  -0.167879  0  -0.089135  -0.128185  0  3.97508  0
C  C131  1  0.88301930  0.32397042  0.89580718  1  -0.167902  0  -0.089148  -0.128127  0  3.974794  0
C  C132  1  0.38301975  0.89579405  0.32397442  1  -0.167406  0  -0.08909  -0.128183  0  3.975191  0
C  C133  1  0.11698400  0.67602629  0.10421480  1  -0.167884  0  -0.089028  -0.128203  0  3.975118  0
C  C134  1  0.64429223  0.06678677  0.76427860  1  0.011603  0  -0.004702  0.071314  0  3.988428  0
C  C135  1  0.85571791  0.23571118  0.93322112  1  0.011349  0  -0.004865  0.071262  0  3.988817  0
C  C136  1  0.35571773  0.93321130  0.23571705  1  0.011237  0  -0.004749  0.071339  0  3.988698  0
C  C137  1  0.14429325  0.76428285  0.06679327  1  0.011435  0  -0.004773  0.071387  0  3.988662  0
C  C138  1  0.68926865  0.97986564  0.80430689  1  -0.05409  0  -0.093425  -0.134464  0  3.98562  0
C  C139  1  0.81074913  0.19567489  0.02014025  1  -0.053631  0  -0.09336  -0.13469  0  3.985607  0
C  C140  1  0.31074875  0.02013646  0.19568135  1  -0.054139  0  -0.09354  -0.134864  0  3.985688  0
C  C141  1  0.18926481  0.80430840  0.97987281  1  -0.053931  0  -0.093493  -0.134558  0  3.985736  0
C  C142  1  0.70654516  0.93234669  0.75775979  1  -0.038919  0  -0.086139  -0.095251  0  3.982725  0
C  C143  1  0.79346147  0.24221433  0.06766393  1  -0.039688  0  -0.085975  -0.094908  0  3.982777  0
C  C144  1  0.29346273  0.06765877  0.24222251  1  -0.039098  0  -0.086082  -0.095121  0  3.982519  0
C  C145  1  0.20654137  0.75776561  0.93235251  1  -0.038917  0  -0.086062  -0.095221  0  3.982681  0
C  C146  1  0.63051471  0.11928101  0.81166851  1  0.053783  0  -0.00641  0.078873  0  4.017288  0
C  C147  1  0.86949735  0.18833611  0.88071672  1  0.053529  0  -0.006221  0.079001  0  4.017226  0
C  C148  1  0.36949263  0.88071437  0.18833165  1  0.05345  0  -0.006284  0.078991  0  4.017275  0
C  C149  1  0.13051597  0.81166732  0.11929044  1  0.053302  0  -0.006392  0.078808  0  4.017302  0
C  C150  1  0.63718997  0.21253160  0.76255881  1  -0.027322  0  -0.085923  -0.175025  0  3.928596  0
C  C151  1  0.86281792  0.23745151  0.78746864  1  -0.026867  0  -0.086014  -0.174956  0  3.928205  0
C  C152  1  0.36280959  0.78746378  0.23744330  1  -0.026874  0  -0.085908  -0.175071  0  3.928608  0
C  C153  1  0.13719454  0.76255460  0.21253960  1  -0.027029  0  -0.085799  -0.174858  0  3.92854  0
C  C154  1  0.63117627  0.26503520  0.80457624  1  0.060805  0  -0.008669  0.074474  0  4.017071  0
C  C155  1  0.86883073  0.19544473  0.73495565  1  0.061067  0  -0.008765  0.074363  0  4.016859  0
C  C156  1  0.36882372  0.73495481  0.19543257  1  0.060743  0  -0.00872  0.074636  0  4.016848  0
C  C157  1  0.13117561  0.80456743  0.26504787  1  0.060828  0  -0.008738  0.07452  0  4.016929  0
C  C158  1  0.61782717  0.22118015  0.89841578  1  -0.082703  0  -0.088682  -0.177776  0  3.936659  0
C  C159  1  0.88218466  0.10159979  0.77880898  1  -0.082907  0  -0.088604  -0.177833  0  3.936326  0
C  C160  1  0.38218636  0.77880852  0.10159174  1  -0.083014  0  -0.088598  -0.177823  0  3.936474  0
C  C161  1  0.11781906  0.89840901  0.22119474  1  -0.083189  0  -0.088594  -0.177764  0  3.936335  0
C  C162  1  0.61041743  0.12797977  0.94986421  1  -0.0002  0  -0.013586  0.061517  0  4.034509  0
C  C163  1  0.88959110  0.05013944  0.87201270  1  -0.000371  0  -0.013659  0.061388  0  4.034493  0
C  C164  1  0.38959734  0.87201024  0.05013613  1  -0.000142  0  -0.013578  0.061479  0  4.034177  0
C  C165  1  0.11041357  0.94986534  0.12799002  1  -0.00022  0  -0.013626  0.061305  0  4.034445  0
C  C166  1  0.61582768  0.07778190  0.90538760  1  -0.123639  0  -0.089326  -0.175403  0  3.924983  0
C  C167  1  0.88418320  0.09461794  0.92220915  1  -0.123413  0  -0.089341  -0.175404  0  3.925118  0
C  C168  1  0.38418488  0.92220946  0.09461288  1  -0.123432  0  -0.089459  -0.175594  0  3.924905  0
C  C169  1  0.11582790  0.90538616  0.07779383  1  -0.123387  0  -0.089308  -0.175287  0  3.924837  0
C  C170  1  0.64496408  0.36257274  0.75176829  1  -0.011898  0  -0.008439  0.063989  0  3.986167  0
C  C171  1  0.85503997  0.24825305  0.63741836  1  -0.012753  0  -0.008415  0.063935  0  3.986391  0
C  C172  1  0.35502730  0.63741794  0.24823641  1  -0.012257  0  -0.008552  0.06365  0  3.986294  0
C  C173  1  0.14497122  0.75176112  0.36258541  1  -0.012186  0  -0.008464  0.063821  0  3.986176  0
C  C174  1  0.64128835  0.40966295  0.65770102  1  -0.138903  0  -0.091981  -0.132467  0  3.989442  0
C  C175  1  0.85871264  0.34232105  0.59032963  1  -0.138371  0  -0.092098  -0.132638  0  3.989844  0
C  C176  1  0.35869036  0.59032640  0.34230563  1  -0.139065  0  -0.091941  -0.132268  0  3.989468  0
C  C177  1  0.14130154  0.65769110  0.40967600  1  -0.138024  0  -0.091925  -0.132309  0  3.989466  0
C  C178  1  0.65864551  0.50022717  0.60742260  1  0.015234  0  -0.087646  -0.102073  0  3.999137  0
C  C179  1  0.84135173  0.39259547  0.49977110  1  0.014588  0  -0.087558  -0.101756  0  3.999116  0
C  C180  1  0.34133603  0.49976151  0.39258004  1  0.015162  0  -0.087522  -0.101809  0  3.998876  0
C  C181  1  0.15865905  0.60741534  0.50023903  1  0.014791  0  -0.087707  -0.102109  0  3.999199  0
C  C182  1  0.67626434  0.54798221  0.64997696  1  0.003469  0  -0.018508  -0.029577  0  3.992405  0
C  C183  1  0.82373273  0.35003278  0.45202068  1  0.003558  0  -0.018509  -0.029785  0  3.992378  0
C  C184  1  0.32372946  0.45201184  0.35001246  1  -0.006423  0  -0.018529  -0.029694  0  3.992391  0
C  C185  1  0.17627487  0.64998274  0.54798627  1  -0.006004  0  -0.018469  -0.029717  0  3.992555  0
C  C186  1  0.67897131  0.50234399  0.74369025  1  -0.00223  0  -0.085588  -0.100165  0  3.995802  0
C  C187  1  0.82103064  0.25631943  0.49765853  1  -0.001898  0  -0.085659  -0.100085  0  3.996131  0
C  C188  1  0.32102931  0.49765475  0.25630079  1  -0.003315  0  -0.085635  -0.100273  0  3.996069  0
C  C189  1  0.17897988  0.74369407  0.50234505  1  -0.002825  0  -0.085669  -0.100163  0  3.996115  0
C  C190  1  0.66539604  0.41096352  0.79337835  1  -0.124737  0  -0.091552  -0.13128  0  3.975239  0
C  C191  1  0.83461039  0.20663636  0.58903614  1  -0.124475  0  -0.091585  -0.131241  0  3.975447  0
C  C192  1  0.33460132  0.58903253  0.20662132  1  -0.123951  0  -0.091446  -0.131031  0  3.975274  0
C  C193  1  0.16540170  0.79337513  0.41096946  1  -0.124759  0  -0.091479  -0.131056  0  3.975436  0
C  C194  1  0.60044449  0.08470247  0.04888802  1  -0.087275  0  -0.008181  0.068134  0  3.999991  0
C  C195  1  0.89955889  0.95111322  0.91528643  1  -0.087237  0  -0.008135  0.068029  0  4.000142  0
C  C196  1  0.39956655  0.91529022  0.95111078  1  -0.087215  0  -0.008089  0.068186  0  3.999805  0
C  C197  1  0.10044160  0.04888954  0.08471365  1  -0.087294  0  -0.008144  0.068096  0  4.000207  0
C  C198  1  0.56522786  0.13450006  0.09169853  1  -0.058808  0  -0.090779  -0.137781  0  3.993989  0
C  C199  1  0.93477608  0.90830187  0.86549308  1  -0.059008  0  -0.090644  -0.137426  0  3.994233  0
C  C200  1  0.43478246  0.86549263  0.90829976  1  -0.058946  0  -0.090715  -0.137617  0  3.99385  0
C  C201  1  0.06522086  0.09170156  0.13450876  1  -0.058952  0  -0.090653  -0.1375  0  3.993888  0
C  C202  1  0.56033123  0.09586391  0.18443666  1  -0.051043  0  -0.079984  -0.075628  0  3.974997  0
C  C203  1  0.93967377  0.81556969  0.90412910  1  -0.051117  0  -0.080081  -0.075774  0  3.975131  0
C  C204  1  0.43967623  0.90412946  0.81556333  1  -0.051263  0  -0.080032  -0.075734  0  3.974772  0
C  C205  1  0.06032437  0.18443711  0.09587270  1  -0.051408  0  -0.080072  -0.075782  0  3.974792  0
C  C206  1  0.59149517  0.00600492  0.23816336  1  0.009805  0  -0.017628  -0.035482  0  3.963689  0
C  C207  1  0.90850668  0.76184751  0.99398682  1  0.009818  0  -0.017514  -0.035308  0  3.963087  0
C  C208  1  0.40850805  0.99398912  0.76184079  1  0.010001  0  -0.017577  -0.035381  0  3.963396  0
C  C209  1  0.09149271  0.23816196  0.00601409  1  0.010109  0  -0.017439  -0.035196  0  3.96337  0
C  C210  1  0.62480245  0.95484250  0.19677856  1  -0.062178  0  -0.086552  -0.095947  0  3.997532  0
C  C211  1  0.87519391  0.80323151  0.04515103  1  -0.061616  0  -0.086625  -0.096074  0  3.997408  0
C  C212  1  0.37520100  0.04514885  0.80322981  1  -0.062039  0  -0.086691  -0.096188  0  3.997738  0
C  C213  1  0.12479999  0.19677528  0.95485178  1  -0.062167  0  -0.086695  -0.096175  0  3.997638  0
C  C214  1  0.62932532  0.99368293  0.10367682  1  -0.027836  0  -0.097938  -0.15049  0  3.998362  0
C  C215  1  0.87067115  0.89633545  0.00630393  1  -0.027108  0  -0.097989  -0.150454  0  3.998396  0
C  C216  1  0.37068104  0.00630708  0.89633076  1  -0.027479  0  -0.097915  -0.150406  0  3.99854  0
C  C217  1  0.12932200  0.10367134  0.99369605  1  -0.027314  0  -0.09804  -0.150579  0  3.998489  0
C  C218  1  0.69578522  0.91744019  0.62163210  1  1.502354  0  0.19768  0.572472  0  4.198509  0
C  C219  1  0.80419007  0.37834280  0.08258356  1  1.504227  0  0.197842  0.573073  0  4.19839  0
C  C220  1  0.30419345  0.08256863  0.37835556  1  1.503682  0  0.197627  0.572509  0  4.198819  0
C  C221  1  0.19579189  0.62163379  0.91744712  1  1.502582  0  0.197776  0.572807  0  4.198457  0
C  C222  1  0.68904205  0.64672781  0.59605958  1  1.542592  0  0.182681  0.540183  0  4.286694  0
C  C223  1  0.81095229  0.40394590  0.35326518  1  1.541645  0  0.182606  0.540106  0  4.286584  0
C  C224  1  0.31096714  0.35325617  0.40392051  1  1.551652  0  0.182379  0.539802  0  4.286749  0
C  C225  1  0.18904035  0.59607028  0.64674005  1  1.551267  0  0.182493  0.540052  0  4.28641  0
C  C226  1  0.59304320  0.96862505  0.33763384  1  1.594439  0  0.209706  0.590775  0  4.210387  0
C  C227  1  0.90695383  0.66236462  0.03137726  1  1.594613  0  0.209734  0.590752  0  4.210401  0
C  C228  1  0.40695548  0.03137235  0.66236446  1  1.594416  0  0.209664  0.590557  0  4.210463  0
C  C229  1  0.09303899  0.33763815  0.96863173  1  1.594246  0  0.209505  0.590481  0  4.210794  0
C  C230  1  0.84924528  0.83790767  0.38226952  1  1.411  0  0.176833  0.308011  0  4.090939  0
C  C231  1  0.65075223  0.61772236  0.16208329  1  1.410463  0  0.176715  0.307868  0  4.091247  0
C  C232  1  0.15075345  0.16209779  0.61771720  1  1.410732  0  0.176814  0.308045  0  4.091041  0
C  C233  1  0.34924622  0.38227571  0.83790133  1  1.410501  0  0.176766  0.308045  0  4.09105  0
C  C234  1  0.87920515  0.84032565  0.23946003  1  0.297775  0  -0.129332  -0.276049  0  3.917661  0
C  C235  1  0.62079960  0.76053241  0.15967234  1  0.297559  0  -0.129289  -0.276112  0  3.91801  0
C  C236  1  0.12080196  0.15967309  0.76053790  1  0.29788  0  -0.129283  -0.276064  0  3.917888  0
C  C237  1  0.37920081  0.23946969  0.84031820  1  0.297373  0  -0.129222  -0.276054  0  3.917921  0
C  C238  1  0.85203146  0.98263677  0.24517305  1  0.211855  0  -0.134999  -0.269908  0  3.874117  0
C  C239  1  0.64797032  0.75482628  0.01735909  1  0.212488  0  -0.134888  -0.269861  0  3.873982  0
C  C240  1  0.14796949  0.01736734  0.75481412  1  0.212511  0  -0.134953  -0.270005  0  3.874091  0
C  C241  1  0.35203049  0.24518051  0.98263024  1  0.212489  0  -0.134928  -0.269875  0  3.874  0
C  C242  1  0.46534967  0.78625150  0.63351469  1  1.375607  0  0.18264  0.320654  0  4.078308  0
C  C243  1  0.03464052  0.36648833  0.21375084  1  1.375625  0  0.182429  0.320477  0  4.07845  0
C  C244  1  0.53464041  0.21374591  0.36647750  1  1.375304  0  0.182629  0.320861  0  4.078522  0
C  C245  1  0.96534897  0.63352182  0.78625539  1  1.375018  0  0.182538  0.320695  0  4.078918  0
C  C246  1  0.44400915  0.63348353  0.75254785  1  0.289037  0  -0.129628  -0.263105  0  3.890005  0
C  C247  1  0.05598551  0.24745616  0.36651406  1  0.289335  0  -0.12958  -0.263005  0  3.889752  0
C  C248  1  0.55599053  0.36652057  0.24745048  1  0.288962  0  -0.129749  -0.263427  0  3.890198  0
C  C249  1  0.94401556  0.75254661  0.63347608  1  0.288461  0  -0.129736  -0.263419  0  3.890399  0
C  C250  1  0.43232054  0.67618391  0.59316915  1  0.261066  0  -0.129366  -0.261507  0  3.866263  0
C  C251  1  0.06767373  0.40683448  0.32381516  1  0.260555  0  -0.129437  -0.261776  0  3.866489  0
C  C252  1  0.56767734  0.32380410  0.40683216  1  0.260554  0  -0.129353  -0.261615  0  3.866381  0
C  C253  1  0.93232331  0.59316828  0.67619166  1  0.260583  0  -0.129364  -0.261521  0  3.866374  0
N  N254  1  0.86358044  0.88505618  0.29285657  1  -1.218598  0  -0.280743  0.03145  0  3.717999  0
N  N255  1  0.63641930  0.70713857  0.11493879  1  -1.218797  0  -0.280811  0.031508  0  3.718169  0
N  N256  1  0.13642130  0.11494793  0.70713632  1  -1.218774  0  -0.280774  0.031448  0  3.717943  0
N  N257  1  0.36357745  0.29286488  0.88504972  1  -1.218924  0  -0.28074  0.031463  0  3.718036  0
N  N258  1  0.44281533  0.70359005  0.65899303  1  -1.196376  0  -0.27553  0.042654  0  3.715477  0
N  N259  1  0.05717588  0.34101273  0.29640995  1  -1.196328  0  -0.275458  0.042684  0  3.715695  0
N  N260  1  0.55718374  0.29641137  0.34100031  1  -1.195816  0  -0.275519  0.042509  0  3.71575  0
N  N261  1  0.94281688  0.65899943  0.70358565  1  -1.195882  0  -0.275493  0.042419  0  3.715941  0
O  O262  1  0.74930662  0.84730917  0.65112404  1  -1.147648  0  -0.313197  -0.529157  0  2.129092  0
O  O263  1  0.75065938  0.34885375  0.15270214  1  -1.1487  0  -0.313288  -0.529516  0  2.129239  0
O  O264  1  0.25067049  0.15269025  0.34886207  1  -1.148138  0  -0.313098  -0.529188  0  2.129296  0
O  O265  1  0.24931530  0.65112486  0.84732422  1  -1.147461  0  -0.313317  -0.529376  0  2.129248  0
O  O266  1  0.65230373  0.94685687  0.54783788  1  -1.155788  0  -0.34793  -0.607633  0  2.372664  0
O  O267  1  0.84767700  0.45213465  0.05317127  1  -1.156107  0  -0.348045  -0.607848  0  2.372731  0
O  O268  1  0.34767431  0.05315128  0.45215309  1  -1.156323  0  -0.347975  -0.607663  0  2.372828  0
O  O269  1  0.15231321  0.54783589  0.94686450  1  -1.156208  0  -0.347978  -0.60784  0  2.372417  0
O  O270  1  0.72327580  0.68092938  0.51565914  1  -1.176391  0  -0.344367  -0.580375  0  2.121548  0
O  O271  1  0.77672497  0.48435335  0.31905649  1  -1.175733  0  -0.344379  -0.580394  0  2.121681  0
O  O272  1  0.27674349  0.31904185  0.48432744  1  -1.176021  0  -0.344301  -0.580333  0  2.121767  0
O  O273  1  0.22326416  0.51566351  0.68095399  1  -1.176414  0  -0.344415  -0.580459  0  2.121659  0
O  O274  1  0.66214369  0.69304742  0.63563743  1  -1.139737  0  -0.334968  -0.55887  0  2.213476  0
O  O275  1  0.83784187  0.36434936  0.30695799  1  -1.139363  0  -0.334839  -0.558717  0  2.21305  0
O  O276  1  0.33786209  0.30695335  0.36432477  1  -1.139491  0  -0.334692  -0.558518  0  2.213184  0
O  O277  1  0.16214734  0.63566481  0.69304685  1  -1.138908  0  -0.334746  -0.558629  0  2.212862  0
O  O278  1  0.56161829  0.02255922  0.36631749  1  -1.172083  0  -0.331853  -0.57943  0  2.324774  0
O  O279  1  0.93837953  0.63368320  0.97743689  1  -1.172106  0  -0.331885  -0.579468  0  2.324694  0
O  O280  1  0.43837783  0.97743349  0.63368049  1  -1.171733  0  -0.331837  -0.579403  0  2.324757  0
O  O281  1  0.06161327  0.36631957  0.02257094  1  -1.171554  0  -0.331728  -0.579356  0  2.325008  0
O  O282  1  0.62723856  0.88834001  0.38370496  1  -1.166308  0  -0.328608  -0.560079  0  2.263821  0
O  O283  1  0.87275560  0.61629844  0.11166138  1  -1.166327  0  -0.328584  -0.560077  0  2.26398  0
O  O284  1  0.37276039  0.11165470  0.61630104  1  -1.166351  0  -0.328567  -0.559926  0  2.26394  0
O  O285  1  0.12723217  0.38370567  0.88834804  1  -1.166266  0  -0.328518  -0.559951  0  2.263954  0
O  O286  1  0.83138763  0.87250450  0.43199438  1  -1.164131  0  -0.318798  -0.474545  0  2.299767  0
O  O287  1  0.66860647  0.56800299  0.12748641  1  -1.164091  0  -0.318703  -0.474454  0  2.299869  0
O  O288  1  0.16860620  0.12751169  0.56799446  1  -1.16425  0  -0.318749  -0.47454  0  2.300246  0
O  O289  1  0.33139251  0.43199844  0.87249996  1  -1.163911  0  -0.31875  -0.474604  0  2.299813  0
O  O290  1  0.47874347  0.84623362  0.55271277  1  -1.178616  0  -0.312637  -0.503911  0  2.388073  0
O  O291  1  0.02123984  0.44729247  0.15376836  1  -1.178602  0  -0.312559  -0.503905  0  2.388043  0
O  O292  1  0.52124222  0.15377385  0.44726323  1  -1.178538  0  -0.312618  -0.503895  0  2.388645  0
O  O293  1  0.97873686  0.55273916  0.84623020  1  -1.178419  0  -0.31253  -0.50375  0  2.388874  0
