# generated using pymatgen
data_ZnH7C6SN3O5
_symmetry_space_group_name_H-M   'P 1'
_cell_length_a   8.66635826
_cell_length_b   9.67311201
_cell_length_c   11.84017520
_cell_angle_alpha   90.00134447
_cell_angle_beta   92.84204862
_cell_angle_gamma   90.00022067
_symmetry_Int_Tables_number   1
_chemical_formula_structural   ZnH7C6SN3O5
_chemical_formula_sum   'Zn4 H28 C24 S4 N12 O20'
_cell_volume   991.34878903
_cell_formula_units_Z   4
loop_
 _symmetry_equiv_pos_site_id
 _symmetry_equiv_pos_as_xyz
  1  'x, y, z'
loop_
 _atom_site_type_symbol
 _atom_site_label
 _atom_site_symmetry_multiplicity
 _atom_site_fract_x
 _atom_site_fract_y
 _atom_site_fract_z
 _atom_site_occupancy
 _atom_site_hle17_bader_spin_density
 _atom_site_hle17_ddec_charge
 _atom_site_hle17_ddec_spin_density
 _atom_site_hle17_ddec_sum_bond_order
 _atom_site_hle17_magmom
 _atom_site_hse06_10hf_bader_spin_density
 _atom_site_hse06_10hf_ddec_charge
 _atom_site_hse06_10hf_ddec_spin_density
 _atom_site_hse06_10hf_ddec_sum_bond_order
 _atom_site_hse06_10hf_magmom
 _atom_site_hse06_bader_spin_density
 _atom_site_hse06_ddec_charge
 _atom_site_hse06_ddec_spin_density
 _atom_site_hse06_ddec_sum_bond_order
 _atom_site_hse06_magmom
 _atom_site_pbe_bader_spin_density
 _atom_site_pbe_cm5_charge
 _atom_site_pbe_ddec_charge
 _atom_site_pbe_ddec_spin_density
 _atom_site_pbe_ddec_sum_bond_order
 _atom_site_pbe_magmom
Zn  Zn0  1  0.86414457  0.75164121  0.68523504  1  0  0.973774  0  1.901225  0  0  0.792827  0  2.34682  0  0  0.836203  0  2.29995  0  0  0.67679  0.762782  0  2.378509  0
Zn  Zn1  1  0.63585132  0.25164639  0.81476837  1  0  0.97375  0  1.901223  0  0  0.79282  0  2.346814  0  0  0.836202  0  2.299943  0  0  0.676786  0.762778  0  2.378504  0
Zn  Zn2  1  0.13585783  0.24835709  0.31476242  1  0  0.973714  0  1.901284  0  0  0.792781  0  2.346881  0  0  0.836158  0  2.300013  0  0  0.676808  0.762737  0  2.378569  0
Zn  Zn3  1  0.36414993  0.74835294  0.18522990  1  0  0.973683  0  1.901323  0  0  0.792754  0  2.346921  0  0  0.836137  0  2.300048  0  0  0.676767  0.76271  0  2.378611  0
H  H4  1  0.86948615  0.49361769  0.68189032  1  0  0.423116  0  0.878092  0  0  0.391153  0  0.942124  0  0  0.402982  0  0.924909  0  0  0.291196  0.383118  0  0.953631  0
H  H5  1  0.63050647  0.99362482  0.81811340  1  0  0.423142  0  0.878039  0  0  0.391177  0  0.942088  0  0  0.403005  0  0.924872  0  0  0.291223  0.383143  0  0.953593  0
H  H6  1  0.13051742  0.50637958  0.31811141  1  0  0.423135  0  0.878069  0  0  0.391177  0  0.942092  0  0  0.403005  0  0.924879  0  0  0.291215  0.383142  0  0.953599  0
H  H7  1  0.36949594  0.00637555  0.18188576  1  0  0.423155  0  0.878023  0  0  0.391193  0  0.942064  0  0  0.403021  0  0.924848  0  0  0.291224  0.383159  0  0.953569  0
H  H8  1  0.04532729  0.53400435  0.67047775  1  0  0.432356  0  0.846373  0  0  0.402139  0  0.918731  0  0  0.411569  0  0.904971  0  0  0.300122  0.395196  0  0.928914  0
H  H9  1  0.45466628  0.03401623  0.82953458  1  0  0.432399  0  0.846389  0  0  0.402209  0  0.918641  0  0  0.411637  0  0.904882  0  0  0.300166  0.395268  0  0.928821  0
H  H10  1  0.95467745  0.46599188  0.32952909  1  0  0.432384  0  0.846373  0  0  0.40218  0  0.918672  0  0  0.411608  0  0.904913  0  0  0.300129  0.395239  0  0.92885  0
H  H11  1  0.54533382  0.96598104  0.17046450  1  0  0.432334  0  0.846466  0  0  0.40215  0  0.918716  0  0  0.411579  0  0.904957  0  0  0.300141  0.395211  0  0.928892  0
H  H12  1  0.84830631  0.66205752  0.95366619  1  0  0.104711  0  0.927167  0  0  0.108714  0  0.991709  0  0  0.112062  0  0.98943  0  0  0.127149  0.106111  0  0.993662  0
H  H13  1  0.65168560  0.16206333  0.54633283  1  0  0.104732  0  0.927169  0  0  0.108741  0  0.99171  0  0  0.112098  0  0.989417  0  0  0.127148  0.106129  0  0.993667  0
H  H14  1  0.15168801  0.33795111  0.04633268  1  0  0.104736  0  0.927169  0  0  0.108731  0  0.991713  0  0  0.112089  0  0.989422  0  0  0.127145  0.106119  0  0.993675  0
H  H15  1  0.34831565  0.83794944  0.45366713  1  0  0.104765  0  0.927243  0  0  0.108764  0  0.991793  0  0  0.112118  0  0.989505  0  0  0.127157  0.10615  0  0.993754  0
H  H16  1  0.03707709  0.66296740  0.12452606  1  0  0.113469  0  0.957916  0  0  0.112865  0  1.031211  0  0  0.116964  0  1.027504  0  0  0.124734  0.10982  0  1.034004  0
H  H17  1  0.46291981  0.16297649  0.37546847  1  0  0.113462  0  0.957925  0  0  0.112888  0  1.031231  0  0  0.116993  0  1.02751  0  0  0.124712  0.109846  0  1.034016  0
H  H18  1  0.96291723  0.33703710  0.87547197  1  0  0.113535  0  0.957884  0  0  0.112905  0  1.031201  0  0  0.117004  0  1.027494  0  0  0.124756  0.109861  0  1.033994  0
H  H19  1  0.53708144  0.83703525  0.62452980  1  0  0.113517  0  0.957885  0  0  0.112886  0  1.031217  0  0  0.116987  0  1.027504  0  0  0.124767  0.109843  0  1.034005  0
H  H20  1  0.37702927  0.82948438  0.92871442  1  0  0.121571  0  0.91135  0  0  0.12766  0  0.973683  0  0  0.131663  0  0.970267  0  0  0.135932  0.124858  0  0.975995  0
H  H21  1  0.12296245  0.32949597  0.57128747  1  0  0.121535  0  0.911281  0  0  0.127607  0  0.973667  0  0  0.131605  0  0.970253  0  0  0.135917  0.124803  0  0.975979  0
H  H22  1  0.62297544  0.17050565  0.07128313  1  0  0.121596  0  0.911302  0  0  0.127679  0  0.973653  0  0  0.131681  0  0.970236  0  0  0.135965  0.124876  0  0.975968  0
H  H23  1  0.87702958  0.67050233  0.42871555  1  0  0.121663  0  0.911196  0  0  0.127676  0  0.973615  0  0  0.131674  0  0.970202  0  0  0.13595  0.124871  0  0.975927  0
H  H24  1  0.99638212  0.08016197  0.56938009  1  0  0.103713  0  0.939951  0  0  0.115677  0  1.005338  0  0  0.117292  0  1.00472  0  0  0.106188  0.114515  0  1.005759  0
H  H25  1  0.50361861  0.58016672  0.93062696  1  0  0.103635  0  0.94016  0  0  0.115638  0  1.005514  0  0  0.117234  0  1.004918  0  0  0.106145  0.114479  0  1.005938  0
H  H26  1  0.00361219  0.91983323  0.43061371  1  0  0.103727  0  0.939989  0  0  0.115655  0  1.005365  0  0  0.11728  0  1.004744  0  0  0.106189  0.114493  0  1.005786  0
H  H27  1  0.49638612  0.41983158  0.06937482  1  0  0.103703  0  0.940081  0  0  0.115644  0  1.005507  0  0  0.117275  0  1.004873  0  0  0.106153  0.114483  0  1.005932  0
H  H28  1  0.10131797  0.08373304  0.70152304  1  0  0.098292  0  0.96706  0  0  0.10641  0  1.039073  0  0  0.108636  0  1.037829  0  0  0.105737  0.104725  0  1.040166  0
H  H29  1  0.39867241  0.58373433  0.79848591  1  0  0.098305  0  0.967065  0  0  0.106441  0  1.039078  0  0  0.108669  0  1.037826  0  0  0.105751  0.104756  0  1.040172  0
H  H30  1  0.89868095  0.91626836  0.29846839  1  0  0.098334  0  0.967167  0  0  0.106409  0  1.039158  0  0  0.108638  0  1.037918  0  0  0.105716  0.104724  0  1.04025  0
H  H31  1  0.60132655  0.41626707  0.20151651  1  0  0.098266  0  0.967096  0  0  0.106416  0  1.039087  0  0  0.108642  0  1.037842  0  0  0.105727  0.10473  0  1.040182  0
C  C32  1  0.96768660  0.69523311  0.94790540  1  0  0.119238  0  3.621297  0  0  0.090215  0  3.878219  0  0  0.092778  0  3.892867  0  0  0.072386  0.088276  0  3.868802  0
C  C33  1  0.53230896  0.19523971  0.55209101  1  0  0.11921  0  3.621202  0  0  0.090188  0  3.878227  0  0  0.092755  0  3.892866  0  0  0.072398  0.088256  0  3.868811  0
C  C34  1  0.03230888  0.30477346  0.05209352  1  0  0.119113  0  3.621369  0  0  0.090089  0  3.87833  0  0  0.092645  0  3.892971  0  0  0.072363  0.088159  0  3.868914  0
C  C35  1  0.46769345  0.80477410  0.44790814  1  0  0.119089  0  3.621405  0  0  0.09004  0  3.878443  0  0  0.092603  0  3.893086  0  0  0.072322  0.088108  0  3.869027  0
C  C36  1  0.07109813  0.69715589  0.04186229  1  0  0.095074  0  3.616649  0  0  0.060553  0  3.87266  0  0  0.065525  0  3.887165  0  0  0.064881  0.057022  0  3.863276  0
C  C37  1  0.42889550  0.19716724  0.45813617  1  0  0.095182  0  3.61659  0  0  0.060589  0  3.872615  0  0  0.065565  0  3.887126  0  0  0.064969  0.057059  0  3.863224  0
C  C38  1  0.92889850  0.30284655  0.95813667  1  0  0.094991  0  3.616664  0  0  0.060523  0  3.872609  0  0  0.065496  0  3.887117  0  0  0.064848  0.056991  0  3.863226  0
C  C39  1  0.57110345  0.80284450  0.54186456  1  0  0.09515  0  3.616483  0  0  0.060683  0  3.87248  0  0  0.065659  0  3.886987  0  0  0.064929  0.05715  0  3.863094  0
C  C40  1  0.26001057  0.78892644  0.93261971  1  0  0.105546  0  3.61098  0  0  0.068689  0  3.859385  0  0  0.072911  0  3.87513  0  0  0.074488  0.065536  0  3.849711  0
C  C41  1  0.23997861  0.28893626  0.56738046  1  0  0.105793  0  3.610935  0  0  0.068811  0  3.859277  0  0  0.073042  0  3.875027  0  0  0.074531  0.065656  0  3.849599  0
C  C42  1  0.73998837  0.21107185  0.06737848  1  0  0.105496  0  3.611057  0  0  0.068612  0  3.859433  0  0  0.072841  0  3.875175  0  0  0.074421  0.065458  0  3.849759  0
C  C43  1  0.76001572  0.71106721  0.43262010  1  0  0.105573  0  3.610972  0  0  0.068737  0  3.859271  0  0  0.072963  0  3.875022  0  0  0.074495  0.065582  0  3.849594  0
C  C44  1  0.15656578  0.78298267  0.83862401  1  0  0.021042  0  3.657072  0  0  0.029677  0  3.912367  0  0  0.02808  0  3.930959  0  0  0.122123  0.030066  0  3.900957  0
C  C45  1  0.34342337  0.28298831  0.66137605  1  0  0.020828  0  3.657285  0  0  0.029844  0  3.912155  0  0  0.02825  0  3.930747  0  0  0.122248  0.030231  0  3.900746  0
C  C46  1  0.84343316  0.21701770  0.16137418  1  0  0.020815  0  3.657195  0  0  0.029547  0  3.912413  0  0  0.027944  0  3.931003  0  0  0.122045  0.029937  0  3.901  0
C  C47  1  0.65657327  0.71701620  0.33862544  1  0  0.020861  0  3.657248  0  0  0.029792  0  3.912175  0  0  0.028198  0  3.930766  0  0  0.122187  0.030181  0  3.900761  0
C  C48  1  0.01013651  0.02798590  0.65214831  1  0  -0.113592  0  3.711669  0  0  -0.166695  0  3.973658  0  0  -0.16657  0  3.980861  0  0  -0.084409  -0.166846  0  3.968653  0
C  C49  1  0.48986394  0.52799202  0.84785739  1  0  -0.113566  0  3.711662  0  0  -0.166711  0  3.973719  0  0  -0.166571  0  3.98092  0  0  -0.084378  -0.166859  0  3.968716  0
C  C50  1  0.98986357  0.97201137  0.34784570  1  0  -0.113763  0  3.712035  0  0  -0.166644  0  3.973699  0  0  -0.166545  0  3.980924  0  0  -0.084378  -0.166796  0  3.968695  0
C  C51  1  0.51013617  0.47200732  0.15214422  1  0  -0.113535  0  3.711631  0  0  -0.166658  0  3.973657  0  0  -0.166542  0  3.980846  0  0  -0.084352  -0.166806  0  3.968655  0
C  C52  1  0.86049508  0.05231854  0.71092048  1  0  0.683529  0  3.817417  0  0  0.631233  0  4.11853  0  0  0.664384  0  4.112036  0  0  0.213466  0.608783  0  4.122051  0
C  C53  1  0.63949970  0.55231866  0.78908161  1  0  0.683765  0  3.817037  0  0  0.63136  0  4.118319  0  0  0.664511  0  4.11182  0  0  0.213529  0.608906  0  4.121842  0
C  C54  1  0.13950386  0.94768079  0.28907603  1  0  0.683497  0  3.817566  0  0  0.631201  0  4.118631  0  0  0.664358  0  4.112141  0  0  0.213436  0.608748  0  4.122153  0
C  C55  1  0.36050156  0.44768171  0.21092004  1  0  0.68364  0  3.817184  0  0  0.631279  0  4.1184  0  0  0.66443  0  4.111906  0  0  0.213468  0.608826  0  4.121923  0
S  S56  1  0.20339055  0.82939699  0.69565003  1  0  1.141187  0  5.599735  0  0  1.049093  0  6.110269  0  0  1.093033  0  6.097719  0  0  0.531012  1.018894  0  6.11788  0
S  S57  1  0.29660232  0.32939933  0.80435105  1  0  1.141211  0  5.599684  0  0  1.049  0  6.11022  0  0  1.092938  0  6.097675  0  0  0.530878  1.018802  0  6.117831  0
S  S58  1  0.79661070  0.17060544  0.30434824  1  0  1.140969  0  5.599874  0  0  1.048864  0  6.110422  0  0  1.092806  0  6.097869  0  0  0.530934  1.018663  0  6.118033  0
S  S59  1  0.70339779  0.67059896  0.19565140  1  0  1.141278  0  5.599554  0  0  1.049094  0  6.110079  0  0  1.093031  0  6.097529  0  0  0.53091  1.018896  0  6.11769  0
N  N60  1  0.01179766  0.73751010  0.84710396  1  0  -0.263781  0  3.261105  0  0  -0.205168  0  3.517219  0  0  -0.215063  0  3.533166  0  0  -0.289942  -0.198417  0  3.506963  0
N  N61  1  0.48819354  0.23751496  0.65289361  1  0  -0.263827  0  3.260919  0  0  -0.205399  0  3.517054  0  0  -0.215308  0  3.533014  0  0  -0.290077  -0.198651  0  3.506797  0
N  N62  1  0.98820128  0.26249130  0.15289508  1  0  -0.263491  0  3.261026  0  0  -0.204964  0  3.517181  0  0  -0.214854  0  3.533129  0  0  -0.289884  -0.198214  0  3.506917  0
N  N63  1  0.51180425  0.76249264  0.34710539  1  0  -0.263705  0  3.26099  0  0  -0.205251  0  3.517137  0  0  -0.215152  0  3.533091  0  0  -0.290011  -0.198504  0  3.506877  0
N  N64  1  0.21574159  0.74422360  0.03341349  1  0  -0.241716  0  3.219927  0  0  -0.167535  0  3.482532  0  0  -0.181027  0  3.497492  0  0  -0.292706  -0.158601  0  3.472925  0
N  N65  1  0.28425116  0.24423573  0.46658668  1  0  -0.241839  0  3.219768  0  0  -0.167592  0  3.482401  0  0  -0.181101  0  3.497384  0  0  -0.292771  -0.158658  0  3.472788  0
N  N66  1  0.78425505  0.25577263  0.96658631  1  0  -0.241625  0  3.219921  0  0  -0.16743  0  3.482475  0  0  -0.180928  0  3.497441  0  0  -0.292633  -0.158497  0  3.47287  0
N  N67  1  0.71574779  0.75576878  0.53341574  1  0  -0.241803  0  3.219774  0  0  -0.167652  0  3.48238  0  0  -0.181155  0  3.497353  0  0  -0.292755  -0.158718  0  3.472771  0
N  N68  1  0.04774275  0.88170685  0.63626054  1  0  -0.645528  0  3.088749  0  0  -0.574129  0  3.402157  0  0  -0.599647  0  3.406394  0  0  -0.438859  -0.556423  0  3.39843  0
N  N69  1  0.45225390  0.38171040  0.86374844  1  0  -0.645616  0  3.088493  0  0  -0.574197  0  3.401929  0  0  -0.599717  0  3.406162  0  0  -0.43886  -0.556492  0  3.398208  0
N  N70  1  0.95225965  0.11829248  0.36373693  1  0  -0.645404  0  3.088754  0  0  -0.574067  0  3.40213  0  0  -0.599579  0  3.406376  0  0  -0.438843  -0.556362  0  3.398404  0
N  N71  1  0.54774620  0.61829100  0.13625233  1  0  -0.64567  0  3.088505  0  0  -0.57423  0  3.401906  0  0  -0.599749  0  3.40614  0  0  -0.438863  -0.556525  0  3.398187  0
O  O72  1  0.24661220  0.69801879  0.64645086  1  0  -0.594315  0  1.938679  0  0  -0.548876  0  2.176999  0  0  -0.570886  0  2.167775  0  0  -0.322168  -0.533101  0  2.182928  0
O  O73  1  0.25338225  0.19801929  0.85355029  1  0  -0.594216  0  1.938542  0  0  -0.548853  0  2.176948  0  0  -0.570852  0  2.167715  0  0  -0.322146  -0.533077  0  2.18288  0
O  O74  1  0.75339714  0.30198158  0.35354854  1  0  -0.594221  0  1.938827  0  0  -0.548811  0  2.177164  0  0  -0.570821  0  2.167947  0  0  -0.322188  -0.533036  0  2.183095  0
O  O75  1  0.74661670  0.80198521  0.14644959  1  0  -0.594261  0  1.938433  0  0  -0.548909  0  2.176817  0  0  -0.57091  0  2.167587  0  0  -0.322183  -0.533131  0  2.182748  0
O  O76  1  0.32385626  0.93491668  0.70839024  1  0  -0.628886  0  1.990665  0  0  -0.575907  0  2.238036  0  0  -0.597029  0  2.227516  0  0  -0.325465  -0.560827  0  2.245046  0
O  O77  1  0.17613838  0.43491928  0.79162052  1  0  -0.628921  0  1.990818  0  0  -0.575852  0  2.238187  0  0  -0.596976  0  2.227667  0  0  -0.325363  -0.560771  0  2.245198  0
O  O78  1  0.67613806  0.06508575  0.29161116  1  0  -0.628816  0  1.990617  0  0  -0.575847  0  2.238017  0  0  -0.596969  0  2.227496  0  0  -0.325404  -0.56077  0  2.245027  0
O  O79  1  0.82386173  0.56508729  0.20838278  1  0  -0.628894  0  1.99087  0  0  -0.575849  0  2.238251  0  0  -0.596971  0  2.227728  0  0  -0.325328  -0.560772  0  2.245262  0
O  O80  1  0.77887643  0.94838822  0.73798750  1  0  -0.630346  0  2.08196  0  0  -0.551421  0  2.319765  0  0  -0.579963  0  2.309072  0  0  -0.304678  -0.53156  0  2.32608  0
O  O81  1  0.72112055  0.44838909  0.76201550  1  0  -0.630398  0  2.08185  0  0  -0.551436  0  2.319693  0  0  -0.579981  0  2.309001  0  0  -0.304647  -0.531572  0  2.326008  0
O  O82  1  0.22112598  0.05161008  0.26201503  1  0  -0.630252  0  2.082009  0  0  -0.551352  0  2.319825  0  0  -0.579893  0  2.309129  0  0  -0.304628  -0.531491  0  2.32614  0
O  O83  1  0.27888185  0.55161025  0.23798281  1  0  -0.630335  0  2.081914  0  0  -0.551392  0  2.319744  0  0  -0.579935  0  2.309051  0  0  -0.304604  -0.53153  0  2.326058  0
O  O84  1  0.82511696  0.17740773  0.72778186  1  0  -0.614877  0  2.042811  0  0  -0.55037  0  2.302281  0  0  -0.576909  0  2.290228  0  0  -0.315466  -0.531479  0  2.308823  0
O  O85  1  0.67487618  0.67740749  0.77221159  1  0  -0.614998  0  2.042723  0  0  -0.55042  0  2.302215  0  0  -0.576951  0  2.290143  0  0  -0.315542  -0.531529  0  2.308773  0
O  O86  1  0.17488313  0.82258954  0.27221468  1  0  -0.6148  0  2.042792  0  0  -0.550356  0  2.302282  0  0  -0.576886  0  2.290209  0  0  -0.315474  -0.531459  0  2.308823  0
O  O87  1  0.32512046  0.32258874  0.22778737  1  0  -0.614966  0  2.042847  0  0  -0.55042  0  2.302337  0  0  -0.576954  0  2.290266  0  0  -0.315531  -0.531533  0  2.308896  0
O  O88  1  0.94092158  0.55192520  0.63789525  1  0  -0.803548  0  1.900752  0  0  -0.746798  0  2.106261  0  0  -0.766979  0  2.07198  0  0  -0.572529  -0.732438  0  2.129483  0
O  O89  1  0.55907436  0.05193355  0.86211024  1  0  -0.803616  0  1.900751  0  0  -0.746855  0  2.10614  0  0  -0.767057  0  2.071911  0  0  -0.572593  -0.732499  0  2.129369  0
O  O90  1  0.05908430  0.44807207  0.36210825  1  0  -0.803592  0  1.900768  0  0  -0.746836  0  2.106211  0  0  -0.767028  0  2.071957  0  0  -0.572553  -0.732482  0  2.129441  0
O  O91  1  0.44092689  0.94806578  0.13788803  1  0  -0.803569  0  1.900858  0  0  -0.746793  0  2.106232  0  0  -0.767006  0  2.07202  0  0  -0.572563  -0.732436  0  2.129455  0
