# generated using pymatgen
data_SrCuH6C14(NO4)2
_symmetry_space_group_name_H-M   'P 1'
_cell_length_a   8.55695101
_cell_length_b   9.83266805
_cell_length_c   9.80805688
_cell_angle_alpha   59.93209052
_cell_angle_beta   88.00427699
_cell_angle_gamma   86.02678876
_symmetry_Int_Tables_number   1
_chemical_formula_structural   SrCuH6C14(NO4)2
_chemical_formula_sum   'Sr2 Cu2 H12 C28 N4 O16'
_cell_volume   712.46145439
_cell_formula_units_Z   2
loop_
 _symmetry_equiv_pos_site_id
 _symmetry_equiv_pos_as_xyz
  1  'x, y, z'
loop_
 _atom_site_type_symbol
 _atom_site_label
 _atom_site_symmetry_multiplicity
 _atom_site_fract_x
 _atom_site_fract_y
 _atom_site_fract_z
 _atom_site_occupancy
 _atom_site_hle17_ddec_charge
 _atom_site_hle17_ddec_spin_density
 _atom_site_hle17_ddec_sum_bond_order
 _atom_site_hle17_magmom
 _atom_site_hse06_10hf_ddec_charge
 _atom_site_hse06_10hf_ddec_spin_density
 _atom_site_hse06_10hf_ddec_sum_bond_order
 _atom_site_hse06_10hf_magmom
 _atom_site_hse06_ddec_charge
 _atom_site_hse06_ddec_spin_density
 _atom_site_hse06_ddec_sum_bond_order
 _atom_site_hse06_magmom
 _atom_site_pbe_cm5_charge
 _atom_site_pbe_ddec_charge
 _atom_site_pbe_ddec_spin_density
 _atom_site_pbe_ddec_sum_bond_order
 _atom_site_pbe_magmom
Sr  Sr0  1  0.24999658  0.98853972  0.02307726  1  1.61317  -0.000714  1.071532  0.0  1.483749  -0.000445  1.416181  0.0  1.523081  -0.000435  1.370901  0.0  0.973628  1.454276  -0.000457  1.449566  0.0
Sr  Sr1  1  0.75000304  0.01146020  0.97692204  1  1.613172  -0.000736  1.07151  0.0  1.483742  -0.000455  1.41618  0.0  1.523083  -0.000437  1.370893  0.0  0.973629  1.454261  -0.000458  1.449552  0.0
Cu  Cu2  1  0.49999946  0.50000108  0.99999921  1  0.820704  0.682627  1.822679  0.501  0.787756  0.763449  2.221904  0.608  0.873437  0.82562  2.156403  0.687  0.764435  0.734989  0.720534  2.268376  0.557
Cu  Cu3  1  0.00000011  0.49999990  0.99999942  1  0.820581  0.682514  1.822655  0.501  0.787922  0.763422  2.221527  0.608  0.873451  0.825628  2.15633  0.687  0.764187  0.73527  0.720468  2.267886  0.557
H  H4  1  0.60724750  0.34902974  0.57541232  1  0.127631  0.000466  0.952522  0.0  0.132475  0.000463  1.020223  0.001  0.136797  0.000339  1.017879  0.0  0.118697  0.129111  0.00058  1.022515  0.001
H  H5  1  0.89276451  0.07591297  0.57551034  1  0.127662  0.00047  0.952047  0.0  0.132638  0.000464  1.019573  0.001  0.136964  0.00034  1.017168  0.0  0.118904  0.129282  0.00058  1.021838  0.001
H  H6  1  0.39275214  0.65096815  0.42458902  1  0.127631  0.000467  0.952513  0.0  0.132469  0.000463  1.020216  0.001  0.136793  0.00034  1.017871  0.0  0.118694  0.129109  0.00058  1.022507  0.001
H  H7  1  0.10723512  0.92408797  0.42448794  1  0.127669  0.000469  0.95204  0.0  0.132645  0.000464  1.019564  0.001  0.13697  0.00034  1.017165  0.0  0.118897  0.129293  0.00058  1.021831  0.001
H  H8  1  0.32418517  0.05355459  0.49075728  1  0.125043  0.000751  0.939457  0.001  0.131661  0.000629  1.004617  0.001  0.135404  0.00043  1.002801  0.001  0.116751  0.129001  0.000828  1.00583  0.001
H  H9  1  0.17599433  0.45593872  0.49076292  1  0.125094  0.000751  0.939217  0.001  0.13166  0.000629  1.00443  0.001  0.135492  0.000431  1.002494  0.001  0.116661  0.12894  0.000828  1.005707  0.001
H  H10  1  0.67581459  0.94644313  0.50924186  1  0.125063  0.000751  0.939467  0.001  0.131682  0.000629  1.00461  0.001  0.135425  0.000431  1.002793  0.001  0.116741  0.129013  0.000828  1.005825  0.001
H  H11  1  0.82400401  0.54406039  0.50923957  1  0.12509  0.000752  0.939227  0.001  0.131658  0.000629  1.004435  0.001  0.135489  0.000431  1.002501  0.001  0.116668  0.128939  0.000828  1.005708  0.001
H  H12  1  0.63055500  0.52513742  0.27778384  1  0.116363  0.000902  0.913548  0.002  0.123891  0.000778  0.972871  0.001  0.127181  0.000587  0.969754  0.001  0.133989  0.121251  0.000942  0.975514  0.002
H  H13  1  0.86939059  0.19731876  0.27791374  1  0.116334  0.000901  0.914516  0.002  0.124398  0.000778  0.973187  0.001  0.127695  0.000588  0.970081  0.001  0.133997  0.121761  0.000943  0.97583  0.002
H  H14  1  0.36944334  0.47486169  0.72221865  1  0.116388  0.000902  0.91351  0.002  0.123909  0.000778  0.972849  0.001  0.1272  0.000587  0.969731  0.001  0.133986  0.121264  0.000942  0.975491  0.002
H  H15  1  0.13061014  0.80268274  0.72208515  1  0.116361  0.000902  0.914488  0.002  0.124425  0.000778  0.973153  0.001  0.127722  0.000588  0.970047  0.001  0.134003  0.121788  0.000943  0.975794  0.002
C  C16  1  0.46306166  0.18915856  0.55394947  1  0.015276  -0.010525  3.668676  -0.007  0.03486  -0.003981  3.901101  -0.002  0.03478  -0.00471  3.9179  -0.003  0.017621  0.034398  -0.003478  3.889592  -0.002
C  C17  1  0.03701906  0.25720316  0.55400479  1  0.014551  -0.010516  3.668886  -0.007  0.0344  -0.003979  3.900695  -0.002  0.034305  -0.004711  3.917504  -0.003  0.017333  0.033939  -0.003471  3.889186  -0.002
C  C18  1  0.53693803  0.81084078  0.44604924  1  0.015246  -0.010539  3.668624  -0.007  0.034864  -0.003982  3.900964  -0.002  0.034786  -0.004716  3.917761  -0.003  0.017593  0.034395  -0.003478  3.889473  -0.002
C  C19  1  0.96297945  0.74279824  0.44599186  1  0.014612  -0.0105  3.66879  -0.007  0.034481  -0.003983  3.900581  -0.002  0.034388  -0.004706  3.917388  -0.003  0.017361  0.034014  -0.003471  3.889083  -0.002
C  C20  1  0.41475804  0.25437751  0.28811912  1  0.087705  -0.00808  3.755338  -0.005  0.092452  -0.002433  3.999803  -0.001  0.094377  -0.003818  4.021063  -0.002  0.107581  0.091563  -0.001375  3.985337  0.0
C  C21  1  0.08525764  0.45772871  0.28814962  1  0.089308  -0.008078  3.753046  -0.005  0.093242  -0.002434  3.99839  -0.001  0.09518  -0.003822  4.019631  -0.002  0.107865  0.092344  -0.00138  3.983902  0.0
C  C22  1  0.58524264  0.74562254  0.71188241  1  0.087821  -0.008089  3.755182  -0.005  0.09247  -0.002433  3.999801  -0.001  0.094395  -0.003819  4.021057  -0.002  0.107578  0.091585  -0.001375  3.985327  0.0
C  C23  1  0.91474180  0.54227299  0.71185144  1  0.08923  -0.008068  3.753087  -0.005  0.093188  -0.002437  3.998414  -0.001  0.095126  -0.003815  4.019655  -0.002  0.107802  0.09229  -0.001381  3.983931  0.0
C  C24  1  0.55133541  0.32194487  0.49424829  1  -0.10504  0.009241  3.634044  0.01  -0.127246  0.004106  3.881361  0.005  -0.131748  0.003828  3.898652  0.005  -0.060679  -0.12423  0.00426  3.870711  0.005
C  C25  1  0.94866436  0.18413876  0.49432627  1  -0.104597  0.009227  3.633786  0.01  -0.127048  0.004105  3.881345  0.005  -0.131525  0.003828  3.898643  0.005  -0.060524  -0.124048  0.004259  3.870708  0.005
C  C26  1  0.44866416  0.67805361  0.50575364  1  -0.105038  0.009247  3.634006  0.01  -0.127246  0.004106  3.881299  0.005  -0.13175  0.003829  3.89859  0.005  -0.060671  -0.124238  0.00426  3.870662  0.005
C  C27  1  0.05133410  0.81586120  0.50567301  1  -0.104646  0.009219  3.633756  0.01  -0.127102  0.004106  3.881315  0.005  -0.131579  0.003826  3.89861  0.005  -0.060527  -0.124104  0.004259  3.87069  0.005
C  C28  1  0.39437782  0.15519433  0.44817894  1  -0.105902  0.005368  3.68907  0.005  -0.13747  0.002156  3.935745  0.002  -0.141089  0.002277  3.955312  0.002  -0.064993  -0.134666  0.00211  3.921929  0.002
C  C29  1  0.10571528  0.39689410  0.44821695  1  -0.1063  0.005365  3.688219  0.005  -0.137514  0.002156  3.934651  0.002  -0.141205  0.002281  3.954188  0.002  -0.064788  -0.134659  0.00211  3.920851  0.002
C  C30  1  0.60562422  0.84480494  0.55181983  1  -0.106023  0.005376  3.689069  0.005  -0.137558  0.002157  3.935751  0.002  -0.141179  0.002279  3.955318  0.002  -0.065006  -0.134741  0.00211  3.92192  0.002
C  C31  1  0.89428311  0.60310848  0.55178086  1  -0.106334  0.005354  3.688118  0.005  -0.137551  0.002159  3.934539  0.002  -0.141242  0.002276  3.954076  0.002  -0.064792  -0.134692  0.00211  3.920738  0.002
C  C32  1  0.34473240  0.22924455  0.16476171  1  0.609707  -0.007421  3.932862  -0.006  0.559087  -0.001677  4.244204  -0.002  0.59467  -0.001628  4.23856  -0.001  0.216994  0.534909  -0.001428  4.247065  -0.002
C  C33  1  0.15532131  0.60612840  0.16470018  1  0.609445  -0.007417  3.932426  -0.006  0.559208  -0.001671  4.243601  -0.002  0.594797  -0.001624  4.237924  -0.001  0.216939  0.535027  -0.001422  4.24648  -0.002
C  C34  1  0.65526840  0.77075534  0.83523761  1  0.609668  -0.007421  3.932869  -0.006  0.559099  -0.001677  4.24418  -0.002  0.594681  -0.001628  4.238537  -0.001  0.216996  0.534907  -0.001428  4.247059  -0.002
C  C35  1  0.84467826  0.39387211  0.83529971  1  0.609465  -0.00742  3.932276  -0.006  0.559215  -0.00167  4.243462  -0.002  0.594803  -0.001624  4.237787  -0.001  0.216962  0.535028  -0.001422  4.246347  -0.002
C  C36  1  0.56568443  0.41843003  0.33129552  1  0.145291  -0.009719  3.624605  -0.006  0.116878  -0.002107  3.882014  -0.001  0.125703  -0.003771  3.89878  -0.002  0.064182  0.110685  -0.000943  3.871714  0.0
C  C37  1  0.93427173  0.25054577  0.33139187  1  0.145186  -0.009702  3.626374  -0.006  0.116267  -0.002104  3.8839  -0.001  0.125077  -0.003771  3.900661  -0.002  0.063933  0.110069  -0.000927  3.873601  0.0
C  C38  1  0.43431631  0.58156943  0.66870541  1  0.145302  -0.009727  3.624556  -0.006  0.116911  -0.002106  3.881966  -0.001  0.125732  -0.003772  3.898734  -0.002  0.064209  0.11073  -0.000943  3.871655  0.0
C  C39  1  0.06572666  0.74945682  0.66860595  1  0.145139  -0.009692  3.626325  -0.006  0.116232  -0.002103  3.883851  -0.001  0.12504  -0.003769  3.900613  -0.002  0.063915  0.110035  -0.000927  3.87356  0.0
C  C40  1  0.43452511  0.08526995  0.72857449  1  0.633533  0.000161  3.981151  0.001  0.584825  -6.2e-05  4.275664  0.0  0.617328  -5.6e-05  4.269171  0.0  0.199667  0.562959  -2.4e-05  4.278876  0.0
C  C41  1  0.06559176  0.18640005  0.72864799  1  0.633341  0.000158  3.980915  0.001  0.584712  -6.1e-05  4.2752  0.0  0.617253  -5.6e-05  4.268655  0.0  0.199507  0.562813  -2.3e-05  4.278475  0.0
C  C42  1  0.56547458  0.91472938  0.27142422  1  0.633529  0.000161  3.981303  0.001  0.584849  -6.2e-05  4.275756  0.0  0.617351  -5.6e-05  4.269263  0.0  0.199689  0.56298  -2.4e-05  4.278992  0.0
C  C43  1  0.93440786  0.81360191  0.27134927  1  0.633412  0.00016  3.981108  0.001  0.584761  -6.2e-05  4.275399  0.0  0.617298  -5.5e-05  4.268852  0.0  0.199491  0.562875  -2.3e-05  4.278663  0.0
N  N44  1  0.49792653  0.38397756  0.23148733  1  -0.303784  0.072735  3.343703  0.093  -0.259504  0.051429  3.636639  0.07  -0.287104  0.043111  3.656285  0.063  -0.346536  -0.243243  0.055746  3.625165  0.072
N  N45  1  0.00202147  0.38476427  0.23154296  1  -0.304629  0.072738  3.343144  0.093  -0.260197  0.051448  3.636587  0.07  -0.287759  0.043126  3.656232  0.063  -0.346676  -0.243943  0.055772  3.625112  0.072
N  N46  1  0.50207415  0.61602147  0.76851522  1  -0.303807  0.072742  3.343659  0.093  -0.259552  0.05143  3.636686  0.07  -0.287145  0.043113  3.656326  0.063  -0.346561  -0.243296  0.055747  3.625211  0.072
N  N47  1  0.99797803  0.61523785  0.76845649  1  -0.304572  0.072734  3.343229  0.093  -0.260156  0.05145  3.636674  0.07  -0.287719  0.043125  3.656321  0.063  -0.346646  -0.243906  0.055771  3.625207  0.072
O  O48  1  0.36588367  0.33783396  0.02024466  1  -0.574313  0.09124  2.030412  0.126  -0.555923  0.061345  2.328856  0.093  -0.596008  0.047398  2.315607  0.077  -0.306781  -0.530238  0.070079  2.338623  0.1
O  O49  1  0.13425961  0.64184444  0.02020513  1  -0.574325  0.091252  2.030084  0.126  -0.55614  0.061335  2.328499  0.093  -0.596198  0.047386  2.315262  0.077  -0.30669  -0.530479  0.070066  2.338282  0.1
O  O50  1  0.63411589  0.66216757  0.97975420  1  -0.574303  0.091242  2.030454  0.126  -0.555924  0.061346  2.328877  0.093  -0.59601  0.047399  2.315629  0.077  -0.306771  -0.530242  0.070078  2.338658  0.1
O  O51  1  0.86574107  0.35815663  0.97979537  1  -0.57432  0.091253  2.029961  0.126  -0.556133  0.061335  2.328383  0.093  -0.596191  0.047387  2.315144  0.077  -0.306708  -0.530475  0.070066  2.338171  0.1
O  O52  1  0.34619407  0.97269108  0.77059301  1  -0.652881  -0.000855  1.913992  -0.001  -0.604634  -0.000346  2.141873  0.0  -0.629084  -0.000444  2.134542  0.0  -0.34667  -0.587288  -0.000278  2.146498  0.0
O  O53  1  0.15389992  0.25692230  0.77075905  1  -0.652767  -0.000852  1.913545  -0.001  -0.604647  -0.000346  2.141487  0.0  -0.629113  -0.000442  2.134152  0.0  -0.346707  -0.587294  -0.000274  2.146119  0.0
O  O54  1  0.65380329  0.02730629  0.22940769  1  -0.652854  -0.000857  1.914084  -0.001  -0.604642  -0.000346  2.141968  0.0  -0.629091  -0.000437  2.134636  0.0  -0.34667  -0.587289  -0.000278  2.146598  0.0
O  O55  1  0.84610420  0.74308027  0.22924110  1  -0.65275  -0.000851  1.91366  -0.001  -0.604629  -0.000346  2.14161  0.0  -0.629093  -0.000445  2.134277  0.0  -0.346647  -0.587274  -0.000274  2.146229  0.0
O  O56  1  0.27076767  0.10962076  0.20454208  1  -0.604275  0.015295  1.966675  0.02  -0.556273  0.008458  2.202718  0.012  -0.583096  0.004157  2.195468  0.007  -0.323987  -0.535982  0.013059  2.206552  0.018
O  O57  1  0.22923242  0.68608122  0.20438149  1  -0.604121  0.015308  1.968053  0.02  -0.556095  0.008463  2.203905  0.012  -0.582945  0.00416  2.196715  0.007  -0.323937  -0.535764  0.013053  2.207649  0.018
O  O58  1  0.72923312  0.89037913  0.79545724  1  -0.604272  0.015295  1.966655  0.02  -0.55627  0.008459  2.202672  0.012  -0.583096  0.004157  2.195422  0.007  -0.323994  -0.535969  0.01306  2.2065  0.018
O  O59  1  0.77076954  0.31391863  0.79561787  1  -0.604116  0.015309  1.968002  0.02  -0.556089  0.008462  2.203868  0.012  -0.582937  0.00416  2.196675  0.007  -0.323943  -0.535752  0.013054  2.207605  0.018
O  O60  1  0.49595388  0.12082430  0.82230728  1  -0.731305  -0.000507  1.996141  0.0  -0.670914  -0.000263  2.236163  0.0  -0.696453  -0.000303  2.226147  0.0  -0.394964  -0.652963  -0.00012  2.243172  0.0
O  O61  1  0.00419494  0.05707814  0.82229790  1  -0.73106  -0.000506  1.996026  0.0  -0.670651  -0.000265  2.235831  0.0  -0.696211  -0.000307  2.225782  0.0  -0.394633  -0.652668  -0.000116  2.242828  0.0
O  O62  1  0.50404680  0.87917575  0.17769424  1  -0.731274  -0.000506  1.996201  0.0  -0.670894  -0.000263  2.23621  0.0  -0.696432  -0.000307  2.226197  0.0  -0.394945  -0.652943  -0.00012  2.243238  0.0
O  O63  1  0.99580139  0.94291605  0.17770363  1  -0.731114  -0.000507  1.996244  0.0  -0.670681  -0.000263  2.236021  0.0  -0.696256  -0.000304  2.226005  0.0  -0.394638  -0.652703  -0.000116  2.243018  0.0
