# generated using pymatgen
data_Zn4H88C103N16O9F10
_symmetry_space_group_name_H-M   'P 1'
_cell_length_a   15.70244834
_cell_length_b   17.50038260
_cell_length_c   19.47541653
_cell_angle_alpha   108.57787493
_cell_angle_beta   113.61012094
_cell_angle_gamma   99.22364657
_symmetry_Int_Tables_number   1
_chemical_formula_structural   Zn4H88C103N16O9F10
_chemical_formula_sum   'Zn4 H88 C103 N16 O9 F10'
_cell_volume   4385.52756010
_cell_formula_units_Z   1
loop_
 _symmetry_equiv_pos_site_id
 _symmetry_equiv_pos_as_xyz
  1  'x, y, z'
loop_
 _atom_site_type_symbol
 _atom_site_label
 _atom_site_symmetry_multiplicity
 _atom_site_fract_x
 _atom_site_fract_y
 _atom_site_fract_z
 _atom_site_occupancy
 _atom_site_pbe_bader_charge
 _atom_site_pbe_bader_spin_density
 _atom_site_pbe_cm5_charge
 _atom_site_pbe_ddec_charge
 _atom_site_pbe_ddec_spin_density
 _atom_site_pbe_ddec_sum_bond_order
 _atom_site_pbe_magmom
Zn  Zn0  1  0.63142192  0.10721942  0.99509407  1  1.237  0  0.763484  0.733163  0  2.268457  0
Zn  Zn1  1  0.36957971  0.00783504  0.99896014  1  1.19262  0  0.744712  0.636186  0  2.428372  0
Zn  Zn2  1  0.65248488  0.99898294  0.11423698  1  1.223469  0  0.765265  0.724383  0  2.344742  0
Zn  Zn3  1  0.35575651  0.04140373  0.85769074  1  1.171956  0  0.765354  0.683914  0  2.344049  0
H  H4  1  0.31568360  0.93440753  0.11000849  1  0.068825  0  0.117368  0.104674  0  1.002215  0
H  H5  1  0.62476242  0.99073795  0.68636964  1  0.055034  0  0.098765  0.110569  0  1.019638  0
H  H6  1  0.31348775  0.95567693  0.57577840  1  0.077803  0  0.101167  0.10818  0  1.013574  0
H  H7  1  0.20944962  0.88405218  0.29103329  1  0.074507  0  0.112292  0.140668  0  0.980046  0
H  H8  1  0.92969699  0.26677396  0.41310473  1  0.078235  0  0.099326  0.109877  0  1.016367  0
H  H9  1  0.06685933  0.33238850  0.55649755  1  0.054456  0  0.109399  0.128335  0  0.987318  0
H  H10  1  0.25135979  0.61949686  0.76126127  1  0.089535  0  0.106113  0.115179  0  1.016442  0
H  H11  1  0.10387125  0.77457043  0.65737210  1  0.079722  0  0.099576  0.104362  0  1.023122  0
H  H12  1  0.84090701  0.58024007  0.39010494  1  0.092042  0  0.108601  0.135106  0  1.007858  0
H  H13  1  0.58665661  0.70978265  0.20026238  1  0.054128  0  0.09769  0.101341  0  1.020358  0
H  H14  1  0.57428681  0.56875584  0.20457117  1  0.068028  0  0.100327  0.103456  0  1.005753  0
H  H15  1  0.10763794  0.98142338  0.73965909  1  0.093257  0  0.124099  0.113857  0  0.98163  0
H  H16  1  0.53133953  0.41485769  0.13413571  1  0.063744  0  0.105239  0.118186  0  0.98821  0
H  H17  1  0.34756358  0.05989363  0.70692292  1  0.083994  0  0.122836  0.111304  0  0.995938  0
H  H18  1  0.88817532  0.79685851  0.67237562  1  0.098782  0  0.108099  0.122769  0  0.984029  0
H  H19  1  0.93261889  0.87554952  0.05376299  1  0.099194  0  0.109507  0.134856  0  1.030176  0
H  H20  1  0.87073929  0.98511881  0.87584476  1  0.105134  0  0.104848  0.115534  0  1.050307  0
H  H21  1  0.41195706  0.72994702  0.94707624  1  0.07289  0  0.112902  0.101491  0  1.019688  0
H  H22  1  0.91491517  0.19020943  0.96901877  1  0.058643  0  0.107302  0.077611  0  0.973218  0
H  H23  1  0.96301318  0.12268958  0.01474478  1  0.046528  0  0.09853  0.063314  0  0.985416  0
H  H24  1  0.85021750  0.23539020  0.06969363  1  0.01989  0  0.087109  0.075204  0  1.020007  0
H  H25  1  0.90252336  0.17193658  0.11704569  1  0.037119  0  0.093483  0.096656  0  0.97515  0
H  H26  1  0.13665045  0.97635813  0.96864054  1  0.101222  0  0.118413  0.109766  0  1.00634  0
H  H27  1  0.07288693  0.26069621  0.15457415  1  0.024789  0  0.087893  0.114191  0  0.998249  0
H  H28  1  0.01344658  0.32410730  0.19692888  1  0.032578  0  0.091148  0.122269  0  0.993459  0
H  H29  1  0.01926684  0.32526729  0.10807250  1  0.025028  0  0.085454  0.108567  0  1.005186  0
H  H30  1  0.76876975  0.84843319  0.40131000  1  0.05642  0  0.10678  0.079203  0  0.954138  0
H  H31  1  0.63985742  0.80516206  0.36431919  1  0.039957  0  0.094554  0.05466  0  0.995073  0
H  H32  1  0.80790390  0.82599790  0.52797729  1  0.027474  0  0.089543  0.084638  0  0.979641  0
H  H33  1  0.68223055  0.79578153  0.50213230  1  0.021041  0  0.089229  0.083642  0  0.992369  0
H  H34  1  0.64198426  0.66480419  0.37851951  1  0.031251  0  0.082934  0.107786  0  1.007577  0
H  H35  1  0.73775619  0.66707488  0.46844975  1  0.055658  0  0.086965  0.118462  0  1.00026  0
H  H36  1  0.76633976  0.69516102  0.39866086  1  0.032169  0  0.081967  0.107111  0  1.018123  0
H  H37  1  0.75679414  0.30560080  0.16779563  1  0.104085  0  0.112152  0.104845  0  1.027518  0
H  H38  1  0.35174276  0.47298100  0.73705700  1  0.080521  0  0.10258  0.079057  0  1.00384  0
H  H39  1  0.31230943  0.53089686  0.67633381  1  0.024139  0  0.092956  0.050198  0  1.00671  0
H  H40  1  0.26387478  0.33628713  0.60835263  1  0.019916  0  0.089265  0.083059  0  1.00339  0
H  H41  1  0.22164764  0.39289762  0.54812362  1  0.035792  0  0.089061  0.084657  0  0.992819  0
H  H42  1  0.39649603  0.47397339  0.59308893  1  0.0197  0  0.086623  0.111895  0  1.005977  0
H  H43  1  0.37106840  0.36217370  0.54483841  1  0.035641  0  0.089437  0.117908  0  0.997075  0
H  H44  1  0.44089709  0.41810122  0.65408485  1  0.014061  0  0.08148  0.100761  0  1.020448  0
H  H45  1  0.49963335  0.53002786  0.84752389  1  0.03395  0  0.083753  0.03666  0  1.017258  0
H  H46  1  0.58618580  0.62182667  0.93999512  1  0.040136  0  0.093735  0.049402  0  1.044125  0
H  H47  1  0.41931418  0.63238268  0.79610077  1  0.029348  0  0.089584  0.079583  0  1.017307  0
H  H48  1  0.63290038  0.02268568  0.25852014  1  0.096453  0  0.113357  0.100423  0  1.016994  0
H  H49  1  0.51951158  0.71818062  0.88340686  1  0.054375  0  0.091466  0.090439  0  1.0066  0
H  H50  1  0.63712728  0.66112117  0.83795834  1  0.007301  0  0.082289  0.105906  0  1.018311  0
H  H51  1  0.55138908  0.68593043  0.76339239  1  0.024863  0  0.08861  0.120316  0  1.013765  0
H  H52  1  0.53428686  0.57794513  0.74817974  1  0.013524  0  0.081263  0.102801  0  1.03265  0
H  H53  1  0.45138011  0.22442416  0.79619913  1  0.033277  0  0.08849  0.046929  0  1.040031  0
H  H54  1  0.45056593  0.32932957  0.80676438  1  0.061913  0  0.095987  0.057597  0  1.00862  0
H  H55  1  0.26818664  0.16800692  0.69766056  1  0.018555  0  0.089142  0.08224  0  0.977321  0
H  H56  1  0.27391807  0.27116596  0.70225405  1  0.047212  0  0.094316  0.092876  0  0.983705  0
H  H57  1  0.39812356  0.26707886  0.64834791  1  0.033307  0  0.086275  0.114111  0  1.012384  0
H  H58  1  0.28562719  0.18174505  0.57794620  1  0.037437  0  0.091134  0.121647  0  0.994941  0
H  H59  1  0.30626287  0.91407838  0.22102700  1  0.052436  0  0.100786  0.105623  0  1.004574  0
H  H60  1  0.38936642  0.16266474  0.64241592  1  0.012579  0  0.082711  0.109585  0  1.017851  0
H  H61  1  0.86172675  0.01931767  0.69534350  1  0.04802  0  0.10138  0.068716  0  0.98466  0
H  H62  1  0.98755934  0.02842504  0.73709006  1  0.032611  0  0.091416  0.046957  0  1.030483  0
H  H63  1  0.88392881  0.09650779  0.83518071  1  0.016251  0  0.089437  0.084583  0  0.99445  0
H  H64  1  0.00898880  0.10217120  0.88096053  1  0.025853  0  0.086814  0.079362  0  0.999807  0
H  H65  1  0.04659366  0.19235622  0.81197866  1  0.041665  0  0.088002  0.116233  0  0.99754  0
H  H66  1  0.99308881  0.24067909  0.87127451  1  0.036649  0  0.085975  0.111243  0  1.006809  0
H  H67  1  0.92087252  0.18481011  0.76216610  1  0.007492  0  0.086375  0.111489  0  1.000918  0
H  H68  1  0.29649918  0.81172751  0.59151320  1  0.056962  0  0.103245  0.073234  0  0.981936  0
H  H69  1  0.24973852  0.73272986  0.61867087  1  0.035128  0  0.094766  0.059565  0  1.015124  0
H  H70  1  0.61592128  0.94310146  0.33089261  1  0.070987  0  0.104153  0.11165  0  1.013853  0
H  H71  1  0.46658300  0.84407545  0.70278079  1  0.045398  0  0.087592  0.085159  0  1.003075  0
H  H72  1  0.42089464  0.76694835  0.73140528  1  0.023405  0  0.091223  0.088108  0  0.984652  0
H  H73  1  0.36294459  0.65068535  0.58965134  1  0.019048  0  0.083782  0.108281  0  1.007854  0
H  H74  1  0.49109964  0.70629799  0.63802098  1  0.033079  0  0.087981  0.114617  0  1.011115  0
H  H75  1  0.40646104  0.72811088  0.55984950  1  0.025438  0  0.087444  0.115371  0  1.000129  0
H  H76  1  0.75990352  0.77887662  0.97276336  1  0.019565  0  0.095647  0.05868  0  0.998539  0
H  H77  1  0.67500090  0.78111312  0.01281668  1  0.057322  0  0.10035  0.071552  0  1.016429  0
H  H78  1  0.88925950  0.78625828  0.10298160  1  0.013597  0  0.09029  0.081248  0  0.984568  0
H  H79  1  0.81073404  0.79503585  0.14727620  1  0.036317  0  0.093624  0.093708  0  0.983879  0
H  H80  1  0.70131955  0.64586109  0.05173123  1  0.034161  0  0.083331  0.109758  0  1.039185  0
H  H81  1  0.28082522  0.79455969  0.90645624  1  0.105749  0  0.119966  0.114334  0  0.99337  0
H  H82  1  0.82424963  0.64630073  0.09709580  1  0.024102  0  0.089172  0.11857  0  0.994529  0
H  H83  1  0.76619333  0.63601705  0.99402725  1  0.000147  0  0.083261  0.106003  0  1.009604  0
H  H84  1  0.63257807  0.37276019  0.99945449  1  0.060451  0  0.104678  0.074198  0  0.979612  0
H  H85  1  0.57977314  0.27422795  0.90877899  1  0.05502  0  0.102442  0.069625  0  1.010453  0
H  H86  1  0.79946369  0.35622555  0.03700762  1  0.037845  0  0.097487  0.093884  0  0.964884  0
H  H87  1  0.74570382  0.25947358  0.94625626  1  0.032486  0  0.094237  0.090192  0  0.97847  0
H  H88  1  0.68966323  0.33979731  0.85816365  1  0.030918  0  0.088519  0.114323  0  1.000099  0
H  H89  1  0.81910158  0.38198194  0.92330837  1  0.039446  0  0.094046  0.123761  0  0.992918  0
H  H90  1  0.74286812  0.43686936  0.94888889  1  0.044368  0  0.089279  0.115723  0  1.004245  0
H  H91  1  0.70228041  0.95032510  0.59666900  1  0.088817  0  0.107023  0.125674  0  1.012244  0
C  C92  1  0.78402223  0.03140489  0.97491950  1  1.043972  0  0.186984  0.318238  0  4.096126  0
C  C93  1  0.75845620  0.25447601  0.18782641  1  0.474484  0  0.006919  -0.029239  0  3.994194  0
C  C94  1  0.77340799  0.66793625  0.05571935  1  -0.047548  0  -0.243738  -0.351458  0  3.969604  0
C  C95  1  0.64131281  0.31100338  0.97202540  1  0.375746  0  -0.062359  0.042925  0  3.830568  0
C  C96  1  0.73931727  0.32273250  0.97265297  1  -0.008755  0  -0.165184  -0.134121  0  3.978856  0
C  C97  1  0.74816931  0.37313040  0.92304628  1  -0.080255  0  -0.23779  -0.350516  0  3.964591  0
C  C98  1  0.40081528  0.19337942  0.99909078  1  0.99023  0  0.200126  0.330621  0  4.090692  0
C  C99  1  0.29765517  0.82318042  0.86950146  1  0.496041  0  0.020599  -0.000806  0  3.94113  0
C  C100  1  0.55674871  0.00584336  0.21238780  1  0.425197  0  0.004449  -0.044814  0  3.991155  0
C  C101  1  0.46827673  0.26147457  0.00623743  1  0.116964  0  -0.041463  -0.22887  0  4.092595  0
C  C102  1  0.47049791  0.96342560  0.20930949  1  -0.001149  0  -0.037092  -0.033164  0  4.069709  0
C  C103  1  0.79795847  0.26049486  0.26937468  1  0.062666  0  -0.047711  -0.147043  0  4.105364  0
C  C104  1  0.07514371  0.96437931  0.83811886  1  -0.016671  0  -0.036182  -0.085898  0  3.982324  0
C  C105  1  0.37290726  0.91624516  0.27096969  1  -0.076921  0  -0.09117  -0.188255  0  3.925201  0
C  C106  1  0.46279934  0.93544409  0.27021415  1  0.033898  0  -0.006748  0.100402  0  4.07033  0
C  C107  1  0.26293714  0.78723509  0.78353117  1  -0.051023  0  -0.043242  -0.155749  0  4.041755  0
C  C108  1  0.54668848  0.93318914  0.33270323  1  0.012614  0  -0.090826  -0.174022  0  3.929856  0
C  C109  1  0.54525021  0.92452915  0.40126362  1  -0.052445  0  -0.014284  -0.012806  0  4.036352  0
C  C110  1  0.45694231  0.91770152  0.40740402  1  0.044486  0  -0.006341  -0.007923  0  3.956921  0
C  C111  1  0.61216107  0.81977021  0.12519476  1  1.011199  0  0.1917  0.320149  0  4.096185  0
C  C112  1  0.36827380  0.90763272  0.33851991  1  0.020773  0  -0.008558  0.105187  0  4.067086  0
C  C113  1  0.63219024  0.92982172  0.47048950  1  0.480278  0  0.082016  0.212902  0  4.063928  0
C  C114  1  0.63440590  0.94263841  0.54430653  1  -0.035958  0  -0.102774  -0.262713  0  3.986233  0
C  C115  1  0.54968421  0.94726227  0.55440983  1  -0.012299  0  -0.009487  0.103595  0  4.070093  0
C  C116  1  0.45885572  0.92866843  0.48332434  1  -0.019341  0  -0.003556  0.001996  0  3.95339  0
C  C117  1  0.37248344  0.92839189  0.49166748  1  0.033523  0  -0.019136  -0.024069  0  4.087082  0
C  C118  1  0.53422707  0.74338477  0.06641113  1  0.005807  0  -0.056837  -0.176507  0  4.126922  0
C  C119  1  0.28309609  0.90670608  0.41772265  1  0.328776  0  0.09171  0.236379  0  4.083526  0
C  C120  1  0.27918685  0.89685094  0.34428007  1  0.079013  0  -0.105831  -0.275311  0  4.00686  0
C  C121  1  0.55409390  0.97271286  0.63192774  1  0.005363  0  -0.0943  -0.193771  0  3.921602  0
C  C122  1  0.47094800  0.98007292  0.64080838  1  -0.003805  0  -0.012881  0.107806  0  4.087104  0
C  C123  1  0.41733393  0.05535785  0.74579171  1  0.427599  0  0.011479  -0.032082  0  3.988669  0
C  C124  1  0.37942274  0.95389077  0.57002329  1  -0.023379  0  -0.097698  -0.185544  0  3.960417  0
C  C125  1  0.84548084  0.41625160  0.35915660  1  0.413384  0  0.091771  0.173746  0  3.980511  0
C  C126  1  0.85330295  0.33507856  0.34883631  1  0.034311  0  -0.020741  0.005837  0  4.110474  0
C  C127  1  0.92150797  0.32877065  0.41868889  1  0.012278  0  -0.094579  -0.179836  0  3.947583  0
C  C128  1  0.98335503  0.40030102  0.49392964  1  -0.044789  0  -0.016321  0.086107  0  4.100546  0
C  C129  1  0.47996353  0.01882306  0.72273422  1  0.039706  0  -0.039529  -0.149922  0  4.10476  0
C  C130  1  0.97652798  0.48247130  0.50111606  1  -0.013002  0  -0.006725  -0.010537  0  3.958524  0
C  C131  1  0.90406020  0.49041914  0.43277211  1  0.090336  0  -0.019201  -0.007107  0  4.095991  0
C  C132  1  0.05968050  0.39466407  0.56165294  1  -0.010839  0  -0.100045  -0.250207  0  3.995989  0
C  C133  1  0.12839158  0.46612603  0.63066225  1  0.511713  0  0.07841  0.204298  0  4.065837  0
C  C134  1  0.12238662  0.55028035  0.64118652  1  0.032037  0  -0.012328  -0.011465  0  4.010697  0
C  C135  1  0.47991186  0.76856611  0.00431088  1  0.511322  0  0.002178  -0.030472  0  4.052469  0
C  C136  1  0.04436775  0.55643319  0.57470126  1  -0.0089  0  0.002227  0.028329  0  3.938284  0
C  C137  1  0.03827548  0.63899312  0.58203172  1  0.035366  0  -0.018523  -0.029109  0  4.072345  0
C  C138  1  0.96080719  0.64234495  0.51317516  1  0.407454  0  0.097258  0.244101  0  4.057648  0
C  C139  1  0.89644148  0.57298140  0.44102215  1  0.00085  0  -0.108396  -0.264966  0  4.02503  0
C  C140  1  0.54677600  0.22994686  0.01213447  1  1.025862  0  0.189741  0.310029  0  4.101832  0
C  C141  1  0.19194520  0.62512993  0.71133434  1  -0.09683  0  -0.086826  -0.16995  0  3.918666  0
C  C142  1  0.18713408  0.70601139  0.71661377  1  0.072321  0  -0.005379  0.113727  0  4.045958  0
C  C143  1  0.10865030  0.71189891  0.65256939  1  -0.02562  0  -0.089576  -0.16912  0  3.968969  0
C  C144  1  0.51892747  0.65952931  0.06680528  1  0.047051  0  -0.011493  0.025923  0  4.047211  0
C  C145  1  0.45974052  0.34286336  0.00293710  1  0.01074  0  -0.025505  0.031508  0  4.083053  0
C  C146  1  0.41788912  0.42444338  0.92167368  1  0.442665  0  0.084762  0.135066  0  4.037171  0
C  C147  1  0.55544348  0.03189741  0.79973691  1  1.031081  0  0.211501  0.34407  0  4.084209  0
C  C148  1  0.41719307  0.34611687  0.92442776  1  0.547715  0  0.065458  0.072898  0  4.107312  0
C  C149  1  0.49901378  0.41735577  0.07412512  1  -0.037799  0  -0.094735  -0.188554  0  3.982505  0
C  C150  1  0.50256928  0.49758803  0.07169904  1  0.012783  0  -0.015774  0.091765  0  4.062888  0
C  C151  1  0.39521110  0.96057351  0.13736917  1  0.403785  0  0.007447  -0.054731  0  3.974679  0
C  C152  1  0.46363389  0.50307147  0.99330977  1  0.03199  0  -0.021037  -0.112972  0  4.034755  0
C  C153  1  0.47425167  0.58528910  0.99271366  1  0.497499  0  0.077299  0.158451  0  3.984448  0
C  C154  1  0.55340603  0.65176097  0.14311331  1  -0.024974  0  -0.096684  -0.124814  0  4.022784  0
C  C155  1  0.54629750  0.57363907  0.14556969  1  -0.067186  0  -0.100628  -0.147983  0  4.040469  0
C  C156  1  0.99476756  0.77465409  0.77010300  1  0.049919  0  -0.099403  -0.232515  0  3.811818  0
C  C157  1  0.89070467  0.93378914  0.96734092  1  0.018584  0  0.001481  0.172545  0  4.029219  0
C  C158  1  0.97891444  0.83309094  0.96267363  1  0.416274  0  0.097013  0.275905  0  4.08008  0
C  C159  1  0.30676210  0.85474385  0.77083752  1  0.963317  0  0.177117  0.292212  0  4.09995  0
C  C160  1  0.93535490  0.88147470  0.00073555  1  0.038641  0  -0.11273  -0.289078  0  3.980284  0
C  C161  1  0.90226931  0.94313190  0.90129315  1  -0.014761  0  -0.098651  -0.200392  0  3.93121  0
C  C162  1  0.77860336  0.17426311  0.25484570  1  1.001873  0  0.197504  0.327163  0  4.087675  0
C  C163  1  0.94764053  0.89570263  0.86536981  1  -0.038084  0  0.002802  0.050469  0  3.851124  0
C  C164  1  0.98331004  0.83542689  0.89319635  1  0.031313  0  -0.03564  -0.165647  0  4.065152  0
C  C165  1  0.02833591  0.78800856  0.84913484  1  0.322502  0  0.091967  0.252545  0  4.142104  0
C  C166  1  0.94844984  0.82071867  0.73549280  1  0.020155  0  -0.071337  -0.100323  0  3.88241  0
C  C167  1  0.96753559  0.91096398  0.79666556  1  0.541687  0  0.101294  0.245064  0  3.817874  0
C  C168  1  0.77447838  0.94072195  0.03114139  1  1.061062  0  0.190203  0.320901  0  4.075455  0
C  C169  1  0.82559879  0.96981517  0.99325800  1  0.017456  0  -0.048711  -0.259087  0  4.023587  0
C  C170  1  0.90582574  0.15342296  0.00346205  1  0.376628  0  -0.063988  0.035135  0  3.871667  0
C  C171  1  0.91202695  0.21027209  0.08389549  1  -0.00877  0  -0.175668  -0.149317  0  3.995568  0
C  C172  1  0.00977759  0.28407642  0.13877744  1  -0.057577  0  -0.240319  -0.347211  0  3.973411  0
C  C173  1  0.13104367  0.98758552  0.80229338  1  0.424617  0  0.016131  -0.02288  0  3.952952  0
C  C174  1  0.71226512  0.84056616  0.42058436  1  0.387095  0  -0.066062  0.034607  0  3.881828  0
C  C175  1  0.73247292  0.79305306  0.47568853  1  0.015056  0  -0.171579  -0.138694  0  3.983251  0
C  C176  1  0.71881323  0.69985292  0.42759970  1  -0.117503  0  -0.244933  -0.3532  0  3.981544  0
C  C177  1  0.29326016  0.46918816  0.67988094  1  0.400861  0  -0.069671  0.02959  0  3.8774  0
C  C178  1  0.28291596  0.39761064  0.60456741  1  -0.023067  0  -0.174315  -0.147207  0  3.988842  0
C  C179  1  0.37796861  0.41375580  0.59885366  1  -0.068676  0  -0.242782  -0.349416  0  3.985579  0
C  C180  1  0.51092802  0.59597620  0.88773973  1  0.412114  0  -0.070731  0.036396  0  3.891342  0
C  C181  1  0.49785723  0.65131409  0.84033436  1  -0.037069  0  -0.173689  -0.145909  0  3.975865  0
C  C182  1  0.55830277  0.64351648  0.79500620  1  -0.044567  0  -0.244697  -0.349252  0  3.967103  0
C  C183  1  0.40523416  0.26582440  0.79237764  1  0.378546  0  -0.07244  0.027865  0  3.89776  0
C  C184  1  0.14639334  0.98480988  0.91914550  1  0.423724  0  0.010588  -0.03446  0  3.996374  0
C  C185  1  0.31678545  0.22730668  0.70653470  1  0.004949  0  -0.170204  -0.138342  0  3.990035  0
C  C186  1  0.34916165  0.20864809  0.64026384  1  -0.077797  0  -0.242203  -0.35261  0  3.966127  0
C  C187  1  0.92525318  0.02329256  0.74994691  1  0.431963  0  -0.072785  0.037094  0  3.935705  0
C  C188  1  0.94915608  0.10183686  0.82615732  1  -0.006995  0  -0.175537  -0.148442  0  3.992063  0
C  C189  1  0.97895044  0.18433150  0.81737103  1  -0.08142  0  -0.241965  -0.347623  0  3.979161  0
C  C190  1  0.30858262  0.79291065  0.64244429  1  0.4088  0  -0.066896  0.043019  0  3.861274  0
C  C191  1  0.40934248  0.78280486  0.67864724  1  -0.02101  0  -0.172472  -0.141368  0  3.974882  0
C  C192  1  0.41788524  0.71309504  0.61295034  1  -0.065725  0  -0.242069  -0.35155  0  3.979316  0
C  C193  1  0.75350839  0.79975173  0.02971406  1  0.401958  0  -0.066834  0.035718  0  3.843342  0
C  C194  1  0.81185111  0.76512732  0.08882842  1  0.025852  0  -0.167491  -0.128381  0  3.974165  0
N  N195  1  0.71149676  0.03319209  0.99463575  1  -0.814967  0  -0.292885  -0.277605  0  3.627231  0
N  N196  1  0.60645018  0.88164842  0.09939948  1  -0.862616  0  -0.310283  -0.328547  0  3.686082  0
N  N197  1  0.45354203  0.08741370  0.82916253  1  -0.805185  0  -0.295669  -0.201564  0  3.536406  0
N  N198  1  0.52242066  0.85021792  0.02377399  1  -0.731046  0  -0.276605  -0.231339  0  3.298706  0
N  N199  1  0.54204919  0.07223278  0.86333180  1  -0.804145  0  -0.270067  -0.319824  0  3.451249  0
N  N200  1  0.36299860  0.92455120  0.84344969  1  -0.800451  0  -0.309923  -0.322009  0  3.537133  0
N  N201  1  0.70500774  0.97719874  0.02970125  1  -0.765416  0  -0.271843  -0.270274  0  3.475919  0
N  N202  1  0.52664290  0.15129382  0.00829493  1  -0.806437  0  -0.30169  -0.290806  0  3.586375  0
N  N203  1  0.43526462  0.99688678  0.10102434  1  -0.831121  0  -0.284923  -0.156414  0  3.677229  0
N  N204  1  0.73390959  0.12230631  0.17458537  1  -0.831812  0  -0.291204  -0.304319  0  3.613665  0
N  N205  1  0.22756258  0.02004444  0.85858671  1  -0.797317  0  -0.281155  -0.193631  0  3.587562  0
N  N206  1  0.23711970  0.01663403  0.93066423  1  -0.790601  0  -0.282081  -0.186992  0  3.576827  0
N  N207  1  0.72117439  0.17269384  0.13200375  1  -0.775447  0  -0.259748  -0.192927  0  3.484508  0
N  N208  1  0.43262335  0.12464834  0.99751607  1  -0.81706  0  -0.287872  -0.294474  0  3.492366  0
N  N209  1  0.53585890  0.02463054  0.14669779  1  -0.743972  0  -0.269539  -0.221612  0  3.422905  0
N  N210  1  0.35547283  0.90526163  0.90427006  1  -0.78253  0  -0.28779  -0.188499  0  3.591326  0
O  O211  1  0.80935257  0.08767943  0.94603120  1  -1.081522  0  -0.200632  -0.266944  0  2.54868  0
O  O212  1  0.71539716  0.92689156  0.46282195  1  -1.070867  0  -0.213959  -0.252203  0  2.467229  0
O  O213  1  0.20672486  0.45811088  0.69075086  1  -1.070865  0  -0.212111  -0.2434  0  2.467165  0
O  O214  1  0.44137916  0.59328829  0.91886129  1  -1.072119  0  -0.204118  -0.232649  0  2.531093  0
O  O215  1  0.37416067  0.27117757  0.85425603  1  -1.061033  0  -0.200893  -0.216945  0  2.54644  0
O  O216  1  0.89549648  0.94410157  0.75484552  1  -1.046124  0  -0.219363  -0.275621  0  2.443719  0
O  O217  1  0.29752459  0.86146624  0.70083204  1  -1.099092  0  -0.200149  -0.254213  0  2.537814  0
O  O218  1  0.79618147  0.89248258  0.07384004  1  -1.100722  0  -0.196088  -0.247885  0  2.549841  0
O  O219  1  0.63666339  0.26316192  0.02041973  1  -1.088659  0  -0.174856  -0.225206  0  2.551155  0
F  F220  1  0.79782232  0.13981452  0.31018101  1  -0.642208  0  -0.087446  -0.141921  0  1.3485  0
F  F221  1  0.63478871  0.00726755  0.81227901  1  -0.638035  0  -0.067399  -0.113349  0  1.437152  0
F  F222  1  0.31392481  0.19238859  0.99548816  1  -0.629279  0  -0.077048  -0.109151  0  1.391201  0
F  F223  1  0.19872674  0.89959782  0.42407817  1  -0.631499  0  -0.11645  -0.158472  0  1.308052  0
F  F224  1  0.77799593  0.42468970  0.29291656  1  -0.640724  0  -0.106901  -0.1451  0  1.340373  0
F  F225  1  0.68828626  0.83459944  0.19880010  1  -0.652897  0  -0.099108  -0.155455  0  1.341376  0
F  F226  1  0.95448872  0.72152538  0.52107747  1  -0.633417  0  -0.102304  -0.145025  0  1.330005  0
F  F227  1  0.37140859  0.42346491  0.84507225  1  -0.627932  0  -0.081785  -0.113037  0  1.44028  0
F  F228  1  0.10892257  0.77065147  0.89404533  1  -0.627981  0  -0.104004  -0.146208  0  1.351154  0
F  F229  1  0.01750811  0.78005858  0.99470030  1  -0.631152  0  -0.114894  -0.154115  0  1.309151  0
