# generated using pymatgen
data_Ni2H46C60N4O9
_symmetry_space_group_name_H-M   'P 1'
_cell_length_a   14.15039198
_cell_length_b   14.15033859
_cell_length_c   17.55632519
_cell_angle_alpha   103.28195218
_cell_angle_beta   103.28210868
_cell_angle_gamma   115.40794723
_symmetry_Int_Tables_number   1
_chemical_formula_structural   Ni2H46C60N4O9
_chemical_formula_sum   'Ni4 H92 C120 N8 O18'
_cell_volume   2866.78751009
_cell_formula_units_Z   2
loop_
 _symmetry_equiv_pos_site_id
 _symmetry_equiv_pos_as_xyz
  1  'x, y, z'
loop_
 _atom_site_type_symbol
 _atom_site_label
 _atom_site_symmetry_multiplicity
 _atom_site_fract_x
 _atom_site_fract_y
 _atom_site_fract_z
 _atom_site_occupancy
 _atom_site_pbe_bader_charge
 _atom_site_pbe_bader_spin_density
 _atom_site_pbe_cm5_charge
 _atom_site_pbe_ddec_charge
 _atom_site_pbe_ddec_spin_density
 _atom_site_pbe_ddec_sum_bond_order
 _atom_site_pbe_magmom
Ni  Ni0  1  0.80722559  0.78396184  0.81360178  1  1.192396  1.562738  0.654862  0.809361  1.777025  2.508136  1.549
Ni  Ni1  1  0.00651159  0.02963406  0.81350353  1  1.194801  1.562335  0.65556  0.809555  1.777019  2.509165  1.549
Ni  Ni2  1  0.03396278  0.55722416  0.31359958  1  1.192375  1.562736  0.654857  0.809366  1.777024  2.508164  1.549
Ni  Ni3  1  0.27963609  0.75651209  0.31350575  1  1.194639  1.562332  0.655516  0.809526  1.777016  2.509156  1.549
H  H4  1  0.90511045  0.84411905  0.69745305  1  0.64488  0.000348  0.288867  0.378653  0.000599  0.964872  0.001
H  H5  1  0.79252908  0.85326691  0.69735769  1  0.648089  0.000378  0.288898  0.377917  0.000606  0.965853  0.001
H  H6  1  0.09412330  0.65511401  0.19745480  1  0.644923  0.000347  0.288869  0.378668  0.000599  0.964874  0.001
H  H7  1  0.10326885  0.54253340  0.19735879  1  0.648117  0.000378  0.288884  0.377948  0.000606  0.965841  0.001
H  H8  1  0.59403693  0.71937941  0.84089194  1  0.129358  0.002238  0.126022  0.105736  0.000818  0.987979  0.002
H  H9  1  0.24691331  0.12126729  0.84070475  1  0.144771  0.002234  0.125752  0.104896  0.000819  0.988479  0.002
H  H10  1  0.96937862  0.34403212  0.34089016  1  0.129341  0.002238  0.126034  0.105746  0.000818  0.987883  0.002
H  H11  1  0.37126820  0.99691543  0.34070616  1  0.144814  0.002234  0.125772  0.10496  0.000819  0.988469  0.002
H  H12  1  0.48987356  0.61379123  0.91854895  1  0.073918  0.001053  0.102607  0.111576  0.000493  1.028842  0.0
H  H13  1  0.42877301  0.30430306  0.91835680  1  0.065195  0.00106  0.102588  0.111514  0.000494  1.02838  0.0
H  H14  1  0.86379274  0.23987310  0.41855064  1  0.073883  0.001053  0.102625  0.111611  0.000493  1.028778  0.0
H  H15  1  0.55430400  0.17877605  0.41835802  1  0.065289  0.00106  0.102603  0.111577  0.000494  1.028399  0.0
H  H16  1  0.77526558  0.57397219  0.01637103  1  0.076534  0.001049  0.112752  0.126213  0.000484  0.986376  0.0
H  H17  1  0.24124415  0.44207599  0.01612691  1  0.09776  0.001033  0.11303  0.125637  0.000485  0.987167  0.0
H  H18  1  0.82397185  0.52526146  0.51636692  1  0.076583  0.001049  0.112711  0.126135  0.000484  0.986481  0.0
H  H19  1  0.69207648  0.99124688  0.51612792  1  0.097767  0.001033  0.113027  0.125618  0.000485  0.987147  0.0
H  H20  1  0.86495084  0.68005680  0.93304727  1  0.111693  0.002195  0.123093  0.097865  0.000801  1.005547  0.002
H  H21  1  0.06821754  0.25290718  0.93284026  1  0.12671  0.002193  0.123428  0.099227  0.000804  1.004115  0.002
H  H22  1  0.93005615  0.61494784  0.43304451  1  0.111511  0.002195  0.123067  0.097868  0.000801  1.005599  0.002
H  H23  1  0.50290814  0.81821702  0.43284101  1  0.126714  0.002193  0.123468  0.099295  0.000804  1.004023  0.002
H  H24  1  0.57701772  0.44806178  0.01810163  1  0.047739  -0.000168  0.104504  0.084186  -0.00013  0.9858  0.0
H  H25  1  0.44100966  0.56953302  0.01780192  1  0.040196  -0.000169  0.105302  0.084247  -0.000131  0.986029  0.0
H  H26  1  0.69806242  0.32701735  0.51810054  1  0.047751  -0.000168  0.104493  0.084152  -0.00013  0.985852  0.0
H  H27  1  0.81953255  0.19100839  0.51780100  1  0.040373  -0.000169  0.105285  0.084231  -0.000131  0.986045  0.0
H  H28  1  0.64632450  0.68289393  0.13379266  1  0.040284  6.7e-05  0.105973  0.087678  5.4e-05  0.979874  0.0
H  H29  1  0.48697414  0.45054276  0.13388300  1  0.042368  6.6e-05  0.105941  0.088254  5.3e-05  0.978353  0.0
H  H30  1  0.93289256  0.39632226  0.63379155  1  0.040281  6.7e-05  0.105981  0.087714  5.4e-05  0.979846  0.0
H  H31  1  0.70054187  0.23697260  0.63388074  1  0.042362  6.6e-05  0.105957  0.088284  5.3e-05  0.978325  0.0
H  H32  1  0.84373625  0.76038122  0.19914988  1  0.102151  0.00106  0.103979  0.110182  0.0005  1.05751  0.001
H  H33  1  0.35459960  0.43862687  0.19898156  1  0.087028  0.001065  0.1048  0.109884  0.0005  1.056711  0.001
H  H34  1  0.01038132  0.59373320  0.69915147  1  0.10216  0.00106  0.103963  0.110137  0.0005  1.05747  0.001
H  H35  1  0.68862784  0.10459927  0.69898091  1  0.087116  0.001065  0.104783  0.109866  0.0005  1.056706  0.001
H  H36  1  0.00374725  0.74066617  0.27093062  1  0.105087  0.002011  0.122619  0.096778  0.00064  1.015438  0.001
H  H37  1  0.26678445  0.53053269  0.27096008  1  0.128905  0.002014  0.122378  0.096346  0.000641  1.014779  0.001
H  H38  1  0.99066654  0.75374430  0.77093065  1  0.10508  0.002011  0.122605  0.096726  0.00064  1.015449  0.001
H  H39  1  0.78053124  0.01678354  0.77096094  1  0.128893  0.002014  0.122341  0.096319  0.000641  1.014785  0.001
H  H40  1  0.78988190  0.40982964  0.23578296  1  0.081626  0.002095  0.117176  0.086572  0.000701  1.018708  0.001
H  H41  1  0.44609887  0.82603127  0.23569906  1  0.113685  0.002096  0.117343  0.086779  0.000703  1.017836  0.001
H  H42  1  0.65983038  0.53987880  0.73578490  1  0.081645  0.002095  0.117194  0.086598  0.000701  1.018728  0.001
H  H43  1  0.07602850  0.19609631  0.73569876  1  0.113724  0.002096  0.11734  0.086753  0.000703  1.017872  0.001
H  H44  1  0.61983359  0.41464892  0.16287796  1  0.07029  0.001012  0.102987  0.106395  0.000482  1.026474  0.0
H  H45  1  0.54284112  0.74790261  0.16264215  1  0.069201  0.001014  0.10355  0.107077  0.000483  1.025976  0.0
H  H46  1  0.66465156  0.36983359  0.66287993  1  0.070287  0.001011  0.102989  0.106398  0.000482  1.026478  0.0
H  H47  1  0.99790042  0.29283969  0.66264076  1  0.069216  0.001014  0.103535  0.107054  0.000483  1.025972  0.0
H  H48  1  0.67013085  0.92669105  0.95274648  1  0.112829  0.000108  0.103579  0.102138  2.9e-05  1.016875  0.0
H  H49  1  0.28247214  0.02638006  0.95232703  1  0.088111  0.000101  0.103939  0.102107  2.6e-05  1.017641  0.0
H  H50  1  0.17668635  0.42013000  0.45274625  1  0.112768  0.000108  0.103553  0.102075  2.9e-05  1.016893  0.0
H  H51  1  0.27638096  0.03246780  0.45233162  1  0.088259  0.000101  0.103927  0.102107  2.6e-05  1.017706  0.0
H  H52  1  0.62630361  0.02484548  0.06557810  1  0.040069  0.000212  0.096896  0.091599  9.1e-05  1.006678  0.0
H  H53  1  0.43919898  0.04142581  0.06529400  1  0.020515  0.000215  0.095498  0.090353  9.1e-05  1.008022  0.0
H  H54  1  0.27484555  0.37630275  0.56557721  1  0.040161  0.000212  0.096927  0.09163  9.1e-05  1.006665  0.0
H  H55  1  0.29141776  0.18919217  0.56529426  1  0.020272  0.000215  0.095505  0.090344  9.1e-05  1.008118  0.0
H  H56  1  0.76886683  0.22499064  0.16205542  1  0.076501  0.000203  0.099309  0.098648  0.000132  1.020169  0.0
H  H57  1  0.39326405  0.93770636  0.16189221  1  0.088125  0.000206  0.09944  0.099108  0.000134  1.019756  0.0
H  H58  1  0.47499026  0.51886617  0.66205542  1  0.077417  0.000203  0.099324  0.098683  0.000132  1.0202  0.0
H  H59  1  0.18769172  0.14325171  0.66188630  1  0.088413  0.000206  0.099447  0.099064  0.000134  1.019661  0.0
H  H60  1  0.98780474  0.22992789  0.02795492  1  0.101366  0.00024  0.105948  0.107784  0.00014  1.033248  0.0
H  H61  1  0.04028912  0.79816974  0.02779745  1  0.09857  0.000236  0.106401  0.10835  0.000141  1.03138  0.0
H  H62  1  0.47992674  0.73780490  0.52795708  1  0.101412  0.000239  0.10593  0.107744  0.00014  1.033296  0.0
H  H63  1  0.04816406  0.79027972  0.52779479  1  0.098469  0.000236  0.106433  0.108336  0.000141  1.031466  0.0
H  H64  1  0.68150259  0.17761234  0.93318211  1  0.070781  -4e-06  0.09627  0.099585  -1.4e-05  1.036871  0.0
H  H65  1  0.25165745  0.75493503  0.93335663  1  0.085309  -4e-06  0.095894  0.099198  -1.4e-05  1.036747  0.0
H  H66  1  0.42760626  0.43150008  0.43317955  1  0.070685  -4e-06  0.096285  0.099589  -1.4e-05  1.036876  0.0
H  H67  1  0.00493500  0.00165981  0.43335817  1  0.085678  -4e-06  0.095899  0.0992  -1.4e-05  1.036758  0.0
H  H68  1  0.70048142  0.36480360  0.95358788  1  0.055628  3.8e-05  0.094195  0.091294  2.4e-05  1.016216  0.0
H  H69  1  0.25291739  0.58791880  0.95352488  1  0.062156  3.8e-05  0.094751  0.091791  2.4e-05  1.015695  0.0
H  H70  1  0.61480008  0.45048723  0.45358723  1  0.055437  3.8e-05  0.094191  0.091311  2.4e-05  1.016238  0.0
H  H71  1  0.83791540  0.00291483  0.45352284  1  0.06208  3.8e-05  0.094769  0.091834  2.4e-05  1.015661  0.0
H  H72  1  0.60073478  0.39733006  0.83429598  1  0.054551  -2.4e-05  0.089567  0.085002  -4.5e-05  1.039123  0.0
H  H73  1  0.23336742  0.43640496  0.83400172  1  0.059145  -2.4e-05  0.089854  0.08449  -4.6e-05  1.039957  0.0
H  H74  1  0.64733197  0.35074053  0.33429714  1  0.054598  -2.4e-05  0.089563  0.084982  -4.5e-05  1.03917  0.0
H  H75  1  0.68640115  0.98336396  0.33399929  1  0.058895  -2.4e-05  0.08988  0.084519  -4.6e-05  1.039912  0.0
H  H76  1  0.48325987  0.24205135  0.69350138  1  0.031895  3.3e-05  0.094378  0.092793  2e-05  1.018708  0.0
H  H77  1  0.21013632  0.45131633  0.69328071  1  0.048561  3.2e-05  0.093931  0.092606  2e-05  1.018376  0.0
H  H78  1  0.49205010  0.23326159  0.19350385  1  0.031922  3.3e-05  0.094415  0.092872  2e-05  1.01862  0.0
H  H79  1  0.70131617  0.96013387  0.19328046  1  0.048556  3.2e-05  0.093918  0.092623  2e-05  1.018368  0.0
H  H80  1  0.41305351  0.04696310  0.59849042  1  0.073601  -1.4e-05  0.091864  0.09402  -3.7e-05  1.046402  0.0
H  H81  1  0.18542868  0.55175062  0.59843367  1  0.06283  -1.4e-05  0.091897  0.093902  -3.7e-05  1.045267  0.0
H  H82  1  0.29695814  0.16305203  0.09849062  1  0.073676  -1.4e-05  0.091889  0.094018  -3.7e-05  1.046453  0.0
H  H83  1  0.80175131  0.93542607  0.09843209  1  0.062829  -1.4e-05  0.091905  0.093903  -3.7e-05  1.045244  0.0
H  H84  1  0.39782577  0.86103466  0.57677591  1  0.096114  1e-05  0.101351  0.108402  1e-06  1.006971  0.0
H  H85  1  0.17909573  0.71621126  0.57705533  1  0.086797  9e-06  0.102858  0.109772  1e-06  1.006257  0.0
H  H86  1  0.11103233  0.14782329  0.07677784  1  0.096298  1e-05  0.101367  0.10841  1e-06  1.006949  0.0
H  H87  1  0.96621351  0.92909420  0.07705724  1  0.08686  9e-06  0.102871  0.109798  1e-06  1.006232  0.0
H  H88  1  0.49052933  0.82656565  0.69800776  1  0.083253  -1.5e-05  0.099262  0.098658  -3.5e-05  1.017749  0.0
H  H89  1  0.20773223  0.87165574  0.69848809  1  0.064608  -1.5e-05  0.099318  0.100073  -3.5e-05  1.016045  0.0
H  H90  1  0.07655824  0.24052310  0.19800709  1  0.083101  -1.5e-05  0.099231  0.098652  -3.5e-05  1.017648  0.0
H  H91  1  0.12165884  0.95773572  0.19849162  1  0.064877  -1.5e-05  0.099272  0.100058  -3.5e-05  1.016015  0.0
H  H92  1  0.60354207  0.97929364  0.83914860  1  0.081978  5.1e-05  0.097062  0.099835  3.8e-05  1.036821  0.0
H  H93  1  0.23581617  0.85961058  0.83955677  1  0.076183  5.2e-05  0.097178  0.099857  3.8e-05  1.036751  0.0
H  H94  1  0.22928816  0.35353691  0.33914878  1  0.082342  5.1e-05  0.097089  0.09994  3.8e-05  1.036787  0.0
H  H95  1  0.10961053  0.98582102  0.33955999  1  0.076171  5.2e-05  0.09716  0.099859  3.8e-05  1.036745  0.0
C  C96  1  0.63039004  0.68584196  0.88111718  1  0.472051  -0.005568  0.049159  0.099271  -0.006225  3.94161  -0.004
C  C97  1  0.25080985  0.19502656  0.88091858  1  0.433297  -0.005528  0.049771  0.101279  -0.006239  3.940248  -0.004
C  C98  1  0.93584054  0.38038578  0.38111645  1  0.471374  -0.005568  0.049249  0.099419  -0.006226  3.941303  -0.004
C  C99  1  0.44502544  0.00080999  0.38092027  1  0.433027  -0.00553  0.049744  0.101213  -0.00624  3.940176  -0.004
C  C100  1  0.57346341  0.62681687  0.92478759  1  0.011127  0.006176  -0.089752  -0.192619  0.003353  3.963571  0.005
C  C101  1  0.35143492  0.29760047  0.92460011  1  0.023103  0.006167  -0.090879  -0.195261  0.003358  3.962936  0.005
C  C102  1  0.87681388  0.32346164  0.42478841  1  0.011571  0.006175  -0.08983  -0.192788  0.003353  3.963594  0.005
C  C103  1  0.54760102  0.10143729  0.42459880  1  0.023269  0.006168  -0.0909  -0.195358  0.003359  3.962986  0.005
C  C104  1  0.62395995  0.58434282  0.97452308  1  -0.060143  -0.007993  0.002893  0.124428  -0.008691  3.98745  -0.005
C  C105  1  0.35066456  0.38978890  0.97431544  1  -0.056752  -0.008007  0.004586  0.128472  -0.0087  3.986243  -0.005
C  C106  1  0.83434357  0.37395840  0.47452377  1  -0.060036  -0.007992  0.002898  0.124494  -0.00869  3.987454  -0.005
C  C107  1  0.63978751  0.10066480  0.47431519  1  -0.056915  -0.008008  0.004608  0.12847  -0.008701  3.986284  -0.005
C  C108  1  0.73114173  0.60405245  0.97811493  1  -0.037201  0.005844  -0.083061  -0.181415  0.003242  3.946969  0.005
C  C109  1  0.24706355  0.37374013  0.97782730  1  -0.051434  0.00585  -0.083493  -0.181997  0.003239  3.950541  0.005
C  C110  1  0.85405171  0.48113698  0.47811080  1  -0.036923  0.005843  -0.083135  -0.181461  0.003241  3.946989  0.005
C  C111  1  0.62373883  0.99706155  0.47782745  1  -0.051423  0.00585  -0.083502  -0.18191  0.003239  3.950425  0.005
C  C112  1  0.78206441  0.66312812  0.93234752  1  0.505328  -0.004951  0.053255  0.096301  -0.005655  3.945256  -0.003
C  C113  1  0.15036899  0.26903563  0.93209890  1  0.470239  -0.004922  0.052374  0.095391  -0.005656  3.946382  -0.003
C  C114  1  0.91312709  0.53206171  0.43234467  1  0.505412  -0.00495  0.053376  0.096403  -0.005655  3.94519  -0.003
C  C115  1  0.51903468  0.90036842  0.43210036  1  0.470177  -0.004922  0.052328  0.095312  -0.005655  3.946301  -0.003
C  C116  1  0.57143479  0.52477989  0.02629586  1  -5.3e-05  -0.000717  -0.073064  -0.080494  -0.000903  3.84145  0.0
C  C117  1  0.45480942  0.50108176  0.02617397  1  0.034399  -0.000712  -0.074487  -0.083003  -0.000908  3.841915  0.0
C  C118  1  0.77478061  0.32143589  0.52629689  1  -0.000109  -0.000717  -0.072987  -0.080329  -0.000903  3.841454  0.0
C  C119  1  0.75108099  0.20480706  0.52617360  1  0.034216  -0.000713  -0.074481  -0.083052  -0.000908  3.842017  0.0
C  C120  1  0.62174733  0.59471348  0.12384076  1  0.021284  -0.000926  -0.072444  -0.071478  -0.001176  3.808619  0.0
C  C121  1  0.50164638  0.52870692  0.12377380  1  0.007913  -0.000927  -0.072312  -0.069978  -0.001174  3.805151  0.0
C  C122  1  0.84471369  0.37174700  0.62384143  1  0.021333  -0.000926  -0.072449  -0.071567  -0.001176  3.80867  0.0
C  C123  1  0.77870691  0.25164594  0.62377358  1  0.007921  -0.000927  -0.072339  -0.070036  -0.001174  3.805229  0.0
C  C124  1  0.71762280  0.58919772  0.17482804  1  -0.054973  -0.008069  0.005434  0.128886  -0.008779  3.973133  -0.005
C  C125  1  0.45672213  0.58535239  0.17464347  1  -0.047808  -0.008108  0.003944  0.127426  -0.008822  3.972593  -0.005
C  C126  1  0.83919866  0.46762188  0.67482976  1  -0.05527  -0.008068  0.005464  0.128974  -0.008778  3.973127  -0.005
C  C127  1  0.83535065  0.20672080  0.67464386  1  -0.047846  -0.008108  0.003941  0.127414  -0.008822  3.972559  -0.005
C  C128  1  0.82745852  0.68124593  0.20674075  1  -0.036971  0.006216  -0.081093  -0.172508  0.003424  3.927557  0.005
C  C129  1  0.37871509  0.52540916  0.20662168  1  0.009085  0.006206  -0.080979  -0.171814  0.003425  3.92602  0.005
C  C130  1  0.93124527  0.57745502  0.70674193  1  -0.036692  0.006215  -0.081067  -0.172459  0.003424  3.927563  0.005
C  C131  1  0.77540885  0.12871235  0.70662112  1  0.008988  0.006206  -0.080927  -0.171734  0.003425  3.925874  0.005
C  C132  1  0.91725221  0.67094560  0.24719128  1  0.521044  -0.005469  0.054754  0.115267  -0.006113  3.90417  -0.004
C  C133  1  0.32956716  0.57635886  0.24714022  1  0.491085  -0.005498  0.056249  0.116308  -0.006152  3.900486  -0.004
C  C134  1  0.92094452  0.66724979  0.74719061  1  0.520524  -0.005468  0.054748  0.115257  -0.006113  3.90424  -0.004
C  C135  1  0.82636023  0.07956569  0.74714134  1  0.491124  -0.005499  0.056245  0.116259  -0.006153  3.900423  -0.004
C  C136  1  0.79686608  0.48592818  0.22702232  1  0.48403  -0.005407  0.041905  0.089981  -0.006251  3.973541  -0.004
C  C137  1  0.43016534  0.74112275  0.22696328  1  0.474788  -0.005493  0.042049  0.089065  -0.006287  3.974874  -0.004
C  C138  1  0.73593046  0.54686401  0.72702611  1  0.48433  -0.005406  0.041875  0.089884  -0.006251  3.973723  -0.004
C  C139  1  0.99112106  0.18016365  0.72696072  1  0.474575  -0.005492  0.04206  0.089074  -0.006286  3.97497  -0.004
C  C140  1  0.70312507  0.48958658  0.18593138  1  -0.016228  0.005617  -0.091746  -0.189827  0.003092  3.977328  0.004
C  C141  1  0.48259284  0.69612869  0.18577280  1  -0.054452  0.005621  -0.091315  -0.189384  0.003094  3.977443  0.004
C  C142  1  0.73958769  0.45312384  0.68592964  1  -0.016092  0.005617  -0.091784  -0.189843  0.003092  3.977411  0.004
C  C143  1  0.94612659  0.23259181  0.68577307  1  -0.054265  0.00562  -0.091305  -0.189333  0.003093  3.977524  0.004
C  C144  1  0.83144989  0.07134466  0.98339144  1  -0.013561  0.011732  -0.015833  -0.033789  0.007012  3.955517  0.009
C  C145  1  0.15195987  0.91222733  0.98313607  1  -0.046394  0.01174  -0.019584  -0.037844  0.007002  3.958294  0.009
C  C146  1  0.32134120  0.58145188  0.48339173  1  -0.013651  0.011732  -0.015821  -0.033863  0.007013  3.955416  0.009
C  C147  1  0.16222437  0.90195543  0.48313635  1  -0.046803  0.01174  -0.019578  -0.037857  0.007001  3.958283  0.009
C  C148  1  0.72938593  0.01456149  0.99422798  1  -0.095852  0.000551  -0.084323  -0.096534  -7e-06  3.991093  0.0
C  C149  1  0.26476749  0.97998556  0.99386417  1  -0.038019  0.000556  -0.083795  -0.095562  2e-06  3.989593  0.0
C  C150  1  0.26456062  0.47938741  0.49422756  1  -0.09587  0.000552  -0.084312  -0.096465  -7e-06  3.990988  0.0
C  C151  1  0.22998679  0.01476439  0.49386844  1  -0.038161  0.000557  -0.083778  -0.095554  2e-06  3.989654  0.0
C  C152  1  0.70587878  0.06966270  0.05751846  1  -0.065089  0.000573  -0.098651  -0.10433  0.000257  4.059602  0.0
C  C153  1  0.35160563  0.98842364  0.05723719  1  -0.016808  0.000569  -0.097973  -0.103089  0.000253  4.057548  0.0
C  C154  1  0.31965827  0.45587837  0.55751702  1  -0.065137  0.000573  -0.098631  -0.104293  0.000257  4.0594  0.0
C  C155  1  0.23841692  0.10159927  0.55723787  1  -0.016259  0.000569  -0.098022  -0.103158  0.000253  4.057728  0.0
C  C156  1  0.78444477  0.18129929  0.11097990  1  -0.022886  -0.000164  -0.085495  -0.092183  -0.000323  3.980326  0.0
C  C157  1  0.32659071  0.93025032  0.11079748  1  -0.076803  -0.000132  -0.084396  -0.091717  -0.000293  3.977604  0.0
C  C158  1  0.43129791  0.53444049  0.61097957  1  -0.023823  -0.000164  -0.085547  -0.092267  -0.000323  3.980095  0.0
C  C159  1  0.18023708  0.07657963  0.61079249  1  -0.077068  -0.000132  -0.084451  -0.091672  -0.000293  3.977536  0.0
C  C160  1  0.88609855  0.23974704  0.09998576  1  -0.059814  0.007714  -0.018482  -0.035574  0.004524  3.968973  0.006
C  C161  1  0.21404102  0.86066970  0.09988260  1  -0.050312  0.007712  -0.018234  -0.035779  0.004546  3.969936  0.006
C  C162  1  0.48974271  0.63609575  0.59998503  1  -0.059694  0.007714  -0.018479  -0.035634  0.004524  3.968834  0.006
C  C163  1  0.11065782  0.96402770  0.59987769  1  -0.05009  0.007711  -0.018174  -0.035732  0.004547  3.969772  0.006
C  C164  1  0.90859476  0.18435258  0.03588564  1  -0.022263  0.00179  -0.072971  -0.102659  0.000768  3.925742  0.001
C  C165  1  0.12739732  0.85173955  0.03571993  1  -0.012102  0.001799  -0.072078  -0.101235  0.000782  3.923657  0.001
C  C166  1  0.43434971  0.65859616  0.53588790  1  -0.022198  0.00179  -0.072982  -0.10257  0.000768  3.925596  0.001
C  C167  1  0.10172972  0.87738724  0.53571422  1  -0.011735  0.001799  -0.072139  -0.101243  0.000782  3.92377  0.001
C  C168  1  0.96994431  0.36097411  0.15760589  1  1.568459  -0.000456  0.207103  0.567905  -0.000782  4.197518  -0.001
C  C169  1  0.18782390  0.79692991  0.15749328  1  1.574772  -0.000474  0.20711  0.567644  -0.000801  4.197695  -0.001
C  C170  1  0.61097280  0.71994432  0.65760608  1  1.568383  -0.000456  0.207092  0.567932  -0.000782  4.197228  -0.001
C  C171  1  0.04691913  0.93781112  0.65749068  1  1.574795  -0.000475  0.207093  0.567621  -0.000801  4.197568  -0.001
C  C172  1  0.85689920  0.01005024  0.91613670  1  1.577357  0.002789  0.209155  0.570513  0.002208  4.192219  0.001
C  C173  1  0.05920364  0.90607611  0.91588588  1  1.578821  0.002945  0.207924  0.568694  0.002289  4.196111  0.001
C  C174  1  0.26004631  0.60689828  0.41613723  1  1.577296  0.002787  0.209175  0.570557  0.002206  4.192329  0.001
C  C175  1  0.15607665  0.80920322  0.41588650  1  1.578872  0.002945  0.208008  0.568748  0.002289  4.196086  0.001
C  C176  1  0.63774601  0.19167937  0.88098154  1  -0.056887  4.2e-05  -0.09323  -0.130479  1.6e-05  3.978287  0.0
C  C177  1  0.24328144  0.68877428  0.88111420  1  -0.085363  4.2e-05  -0.092152  -0.129098  1.6e-05  3.976032  0.0
C  C178  1  0.44167671  0.38774655  0.38098057  1  -0.056499  4.2e-05  -0.093268  -0.130489  1.6e-05  3.978298  0.0
C  C179  1  0.93877384  0.99328158  0.38111474  1  -0.085757  4.2e-05  -0.092181  -0.129154  1.6e-05  3.97598  0.0
C  C180  1  0.64786295  0.29587454  0.89225389  1  -0.034679  4.3e-05  -0.105484  -0.101889  2.7e-05  4.059206  0.0
C  C181  1  0.24421698  0.59566632  0.89220533  1  -0.040309  4.4e-05  -0.104706  -0.101047  2.7e-05  4.055002  0.0
C  C182  1  0.54587081  0.39786459  0.39225367  1  -0.034672  4.3e-05  -0.105388  -0.101772  2.7e-05  4.05911  0.0
C  C183  1  0.84566546  0.99421918  0.39220553  1  -0.040275  4.4e-05  -0.104705  -0.101042  2.7e-05  4.054783  0.0
C  C184  1  0.59183211  0.31447644  0.82436333  1  -0.141317  4.4e-05  -0.106581  -0.100609  1.1e-05  4.069036  0.0
C  C185  1  0.23233096  0.50936543  0.82416746  1  -0.117395  4.3e-05  -0.109007  -0.101209  1e-05  4.071386  0.0
C  C186  1  0.56447217  0.34182783  0.32436402  1  -0.141608  4.4e-05  -0.106598  -0.100664  1.1e-05  4.068988  0.0
C  C187  1  0.75936224  0.98232741  0.32416475  1  -0.117154  4.3e-05  -0.10899  -0.101165  1e-05  4.071219  0.0
C  C188  1  0.52748739  0.22866020  0.74597699  1  -0.044202  7.8e-05  -0.100927  -0.146271  5.5e-05  4.012495  0.0
C  C189  1  0.21833145  0.51705246  0.74582017  1  -0.019905  7.8e-05  -0.099768  -0.145013  5.5e-05  4.011084  0.0
C  C190  1  0.47865450  0.27748602  0.24597819  1  -0.04435  7.8e-05  -0.100989  -0.146344  5.5e-05  4.012522  0.0
C  C191  1  0.76705147  0.96832918  0.24581820  1  -0.019939  7.8e-05  -0.099788  -0.145106  5.5e-05  4.011047  0.0
C  C192  1  0.45465965  0.03210745  0.65105542  1  -0.06635  1.6e-05  -0.096954  -0.145318  -3e-06  3.992951  0.0
C  C193  1  0.19640906  0.61907111  0.65109108  1  -0.106601  1.6e-05  -0.09731  -0.143609  -3e-06  3.991906  0.0
C  C194  1  0.28210335  0.20465542  0.15105720  1  -0.066315  1.6e-05  -0.096949  -0.145241  -3e-06  3.993053  0.0
C  C195  1  0.86907125  0.94640758  0.15109106  1  -0.106606  1.6e-05  -0.09732  -0.14358  -3e-06  3.991929  0.0
C  C196  1  0.44580016  0.92837559  0.63915771  1  -0.06745  4.5e-05  -0.091148  -0.078977  1e-05  4.004259  0.0
C  C197  1  0.19351123  0.71106310  0.63939962  1  -0.007538  4.5e-05  -0.092628  -0.081155  9e-06  4.007011  0.0
C  C198  1  0.17837252  0.19579594  0.13915945  1  -0.067211  4.5e-05  -0.091198  -0.078999  1e-05  4.004309  0.0
C  C199  1  0.96106354  0.94351161  0.13940060  1  -0.007618  4.5e-05  -0.092667  -0.081286  1e-05  4.007035  0.0
C  C200  1  0.49873517  0.90897932  0.70784562  1  -0.040555  3.1e-05  -0.087363  -0.067729  1.3e-05  4.00476  0.0
C  C201  1  0.20934171  0.79900377  0.70823041  1  -0.041021  3e-05  -0.087371  -0.069417  1.3e-05  4.002865  0.0
C  C202  1  0.15897100  0.24872510  0.20784626  1  -0.041099  3.1e-05  -0.087284  -0.0676  1.3e-05  4.004581  0.0
C  C203  1  0.04900500  0.95934221  0.20823096  1  -0.041305  3e-05  -0.087264  -0.069245  1.3e-05  4.002874  0.0
C  C204  1  0.56078250  0.99365381  0.78675047  1  -0.087854  1.5e-05  -0.091452  -0.135278  1.4e-05  3.969757  0.0
C  C205  1  0.22617245  0.79296129  0.78709590  1  -0.07746  1.4e-05  -0.091646  -0.134367  1.3e-05  3.96665  0.0
C  C206  1  0.24364677  0.31077733  0.28675012  1  -0.088057  1.5e-05  -0.09153  -0.135593  1.4e-05  3.969846  0.0
C  C207  1  0.04296209  0.97617412  0.28709536  1  -0.077437  1.3e-05  -0.091668  -0.134465  1.3e-05  3.96683  0.0
C  C208  1  0.51669823  0.12086514  0.73170979  1  -0.023011  4e-05  -0.01379  0.066021  2.4e-05  4.009542  0.0
C  C209  1  0.21499978  0.61072346  0.73172262  1  -0.063657  4e-05  -0.013381  0.064252  2.4e-05  4.009366  0.0
C  C210  1  0.37086162  0.26669687  0.23171140  1  -0.022706  4e-05  -0.013852  0.065929  2.4e-05  4.0096  0.0
C  C211  1  0.86072436  0.96500029  0.23172273  1  -0.063739  4e-05  -0.01338  0.064283  2.4e-05  4.009302  0.0
C  C212  1  0.57200472  0.10159071  0.80105911  1  0.012324  3e-05  -0.011713  0.067904  1.5e-05  3.998158  0.0
C  C213  1  0.22916122  0.69920212  0.80123560  1  0.011153  3e-05  -0.012297  0.066159  1.5e-05  4.000611  0.0
C  C214  1  0.35158341  0.32200254  0.30105858  1  0.012263  3e-05  -0.011674  0.067969  1.5e-05  3.998155  0.0
C  C215  1  0.94920507  0.97916590  0.30123827  1  0.01139  3e-05  -0.012296  0.066148  1.5e-05  4.000604  0.0
N  N216  1  0.73264535  0.70329680  0.88444487  1  -1.222441  0.075785  -0.326222  -0.214343  0.043906  3.585147  0.067
N  N217  1  0.15189333  0.18096624  0.88423936  1  -1.203763  0.075842  -0.325808  -0.214994  0.043948  3.584342  0.067
N  N218  1  0.95329849  0.48264308  0.38444274  1  -1.222491  0.075787  -0.3263  -0.214486  0.043908  3.585055  0.067
N  N219  1  0.43096471  0.90189224  0.38424129  1  -1.203466  0.075844  -0.325799  -0.214994  0.043948  3.58433  0.067
N  N220  1  0.90252786  0.57480599  0.25720175  1  -1.199844  0.074693  -0.329067  -0.23114  0.043361  3.598242  0.067
N  N221  1  0.35458274  0.68255936  0.25717611  1  -1.222264  0.074657  -0.331454  -0.231006  0.043303  3.599499  0.067
N  N222  1  0.82480645  0.65252704  0.75720209  1  -1.199745  0.07469  -0.329035  -0.231052  0.04336  3.598277  0.067
N  N223  1  0.93256089  0.10458379  0.75717720  1  -1.222274  0.074657  -0.331456  -0.230977  0.043303  3.599494  0.067
O  O224  1  0.77872412  0.91003472  0.86750677  1  -1.159767  0.059232  -0.314032  -0.546921  0.032811  2.361079  0.054
O  O225  1  0.08867199  0.95728938  0.86708247  1  -1.158138  0.059051  -0.312139  -0.54459  0.032747  2.364189  0.053
O  O226  1  0.16003144  0.52871860  0.36750681  1  -1.159729  0.059237  -0.314055  -0.546919  0.032814  2.360957  0.054
O  O227  1  0.20728812  0.83867197  0.36708438  1  -1.15811  0.05905  -0.312176  -0.544629  0.032747  2.36419  0.053
O  O228  1  0.95379960  0.06309857  0.91280415  1  -1.154199  0.068303  -0.305586  -0.558916  0.037885  2.400969  0.063
O  O229  1  0.95906297  0.84965529  0.91266779  1  -1.156456  0.068478  -0.305498  -0.55801  0.03799  2.403445  0.063
O  O230  1  0.31309894  0.70379753  0.41280655  1  -1.154175  0.068306  -0.305594  -0.558928  0.037886  2.401179  0.063
O  O231  1  0.09965590  0.70906151  0.41266676  1  -1.156463  0.068478  -0.305538  -0.558029  0.037989  2.403414  0.063
O  O232  1  0.05203762  0.41872723  0.13893218  1  -1.172922  0.001777  -0.326924  -0.53847  0.000149  2.134835  0.001
O  O233  1  0.08708747  0.72063649  0.13891395  1  -1.176327  0.001775  -0.325291  -0.537685  0.000147  2.134498  0.001
O  O234  1  0.66872769  0.80204158  0.63893437  1  -1.17293  0.001779  -0.326935  -0.538475  0.00015  2.134683  0.001
O  O235  1  0.97062648  0.83707693  0.63891500  1  -1.176579  0.001774  -0.325335  -0.537656  0.000146  2.13444  0.001
O  O236  1  0.94961310  0.39604314  0.22244599  1  -1.151178  0.076393  -0.313062  -0.562677  0.042703  2.404267  0.071
O  O237  1  0.27302513  0.82650484  0.22220002  1  -1.157705  0.076792  -0.314426  -0.563493  0.042901  2.403889  0.071
O  O238  1  0.64604015  0.69961319  0.72244565  1  -1.151148  0.076388  -0.313051  -0.562682  0.042701  2.404223  0.071
O  O239  1  0.07649327  0.02301620  0.72219305  1  -1.15791  0.076792  -0.314352  -0.563438  0.0429  2.403947  0.071
O  O240  1  0.86852834  0.86843689  0.73690906  1  -1.243363  0.115131  -0.557391  -0.771254  0.06623  2.430056  0.104
O  O241  1  0.11843941  0.61853181  0.23691034  1  -1.24341  0.115123  -0.557386  -0.771292  0.066226  2.43005  0.104
