# generated using pymatgen
data_CdH16C20N2O5
_symmetry_space_group_name_H-M   'P 1'
_cell_length_a   12.68456176
_cell_length_b   13.22932799
_cell_length_c   13.22925788
_cell_angle_alpha   83.98297205
_cell_angle_beta   81.88783096
_cell_angle_gamma   81.88835545
_symmetry_Int_Tables_number   1
_chemical_formula_structural   CdH16C20N2O5
_chemical_formula_sum   'Cd4 H64 C80 N8 O20'
_cell_volume   2167.59473504
_cell_formula_units_Z   4
loop_
 _symmetry_equiv_pos_site_id
 _symmetry_equiv_pos_as_xyz
  1  'x, y, z'
loop_
 _atom_site_type_symbol
 _atom_site_label
 _atom_site_symmetry_multiplicity
 _atom_site_fract_x
 _atom_site_fract_y
 _atom_site_fract_z
 _atom_site_occupancy
 _atom_site_pbe_bader_charge
 _atom_site_pbe_bader_spin_density
 _atom_site_pbe_cm5_charge
 _atom_site_pbe_ddec_charge
 _atom_site_pbe_ddec_spin_density
 _atom_site_pbe_ddec_sum_bond_order
 _atom_site_pbe_magmom
Cd  Cd0  1  0.89130002  0.07158724  0.34626058  1  1.263579  0  0.757739  0.863419  0  2.152245  0
Cd  Cd1  1  0.60870701  0.65374827  0.92841256  1  1.263459  0  0.757742  0.86344  0  2.152305  0
Cd  Cd2  1  0.10869623  0.92841124  0.65374775  1  1.263415  0  0.757682  0.863336  0  2.152365  0
Cd  Cd3  1  0.39130208  0.34626360  0.07158959  1  1.263552  0  0.757772  0.86348  0  2.15219  0
H  H4  1  0.01969990  0.12401407  0.49379803  1  0.659987  0  0.295082  0.398333  0  0.924778  0
H  H5  1  0.48030130  0.50620580  0.87599540  1  0.659793  0  0.295119  0.398373  0  0.924744  0
H  H6  1  0.98030154  0.87599061  0.50620407  1  0.660003  0  0.295114  0.398348  0  0.924758  0
H  H7  1  0.51970354  0.49380458  0.12401522  1  0.660018  0  0.295108  0.398343  0  0.92482  0
H  H8  1  0.09356377  0.05020296  0.42377588  1  0.637278  0  0.293188  0.394194  0  0.942388  0
H  H9  1  0.40643479  0.57622887  0.94980290  1  0.637209  0  0.293173  0.39416  0  0.942444  0
H  H10  1  0.90643013  0.94979462  0.57622993  1  0.637267  0  0.293187  0.394186  0  0.94239  0
H  H11  1  0.59356735  0.42377834  0.05020784  1  0.637291  0  0.293186  0.39416  0  0.94242  0
H  H12  1  0.82395634  0.10825035  0.12779399  1  0.087073  0  0.113088  0.078061  0  1.011063  0
H  H13  1  0.67605992  0.87221984  0.89174944  1  0.087479  0  0.113188  0.078218  0  1.011073  0
H  H14  1  0.17603830  0.89174808  0.87221386  1  0.087122  0  0.113073  0.078033  0  1.011078  0
H  H15  1  0.32395970  0.12779162  0.10825403  1  0.087056  0  0.113078  0.07805  0  1.01109  0
H  H16  1  0.67226014  0.10312431  0.02591991  1  0.127773  0  0.10454  0.112615  0  1.041274  0
H  H17  1  0.82775887  0.97409068  0.89689003  1  0.127753  0  0.104533  0.112604  0  1.041405  0
H  H18  1  0.32773462  0.89688338  0.97408820  1  0.12766  0  0.104524  0.112543  0  1.041276  0
H  H19  1  0.17226005  0.02591421  0.10313107  1  0.127661  0  0.104595  0.112704  0  1.041222  0
H  H20  1  0.53018761  0.99147675  0.09776271  1  0.068263  0  0.109539  0.106739  0  0.992638  0
H  H21  1  0.96982565  0.90223720  0.00853542  1  0.068258  0  0.109559  0.106877  0  0.992353  0
H  H22  1  0.46980576  0.00852846  0.90223992  1  0.068461  0  0.109534  0.106745  0  0.992656  0
H  H23  1  0.03018985  0.09775824  0.99148220  1  0.068517  0  0.109519  0.106735  0  0.992623  0
H  H24  1  0.53818196  0.90081855  0.27188551  1  0.126501  0  0.102107  0.105848  0  1.053412  0
H  H25  1  0.96182916  0.72811060  0.09917998  1  0.126237  0  0.102215  0.106055  0  1.053497  0
H  H26  1  0.46181645  0.09917984  0.72811566  1  0.126541  0  0.102115  0.105873  0  1.053477  0
H  H27  1  0.03818953  0.27187606  0.90082011  1  0.126354  0  0.102119  0.105812  0  1.053661  0
H  H28  1  0.76600629  0.90928117  0.42478075  1  0.107139  0  0.107385  0.116776  0  1.037762  0
H  H29  1  0.73399156  0.57522850  0.09070695  1  0.106849  0  0.107398  0.116759  0  1.037799  0
H  H30  1  0.23398718  0.09070862  0.57522239  1  0.106729  0  0.107334  0.116718  0  1.037766  0
H  H31  1  0.26601366  0.42477443  0.90928114  1  0.10666  0  0.107379  0.11673  0  1.037725  0
H  H32  1  0.52216123  0.89997115  0.43875234  1  0.067676  0  0.102011  0.100222  0  1.023522  0
H  H33  1  0.97783491  0.56124675  0.10002936  1  0.067899  0  0.101976  0.100153  0  1.023365  0
H  H34  1  0.47783344  0.10002386  0.56124083  1  0.067967  0  0.101985  0.100195  0  1.02333  0
H  H35  1  0.02217154  0.43873962  0.89994104  1  0.068404  0  0.102017  0.100299  0  1.023389  0
H  H36  1  0.77942619  0.83002344  0.57149772  1  0.117842  0  0.109223  0.124281  0  1.02193  0
H  H37  1  0.72056372  0.42848976  0.16998372  1  0.11756  0  0.109202  0.124182  0  1.022009  0
H  H38  1  0.22056041  0.16997956  0.42848514  1  0.117609  0  0.109194  0.124159  0  1.021954  0
H  H39  1  0.27944102  0.57151051  0.83002371  1  0.117499  0  0.109184  0.124113  0  1.022064  0
H  H40  1  0.77105016  0.74528874  0.74699491  1  0.118012  0  0.115936  0.089114  0  1.015186  0
H  H41  1  0.72895374  0.25299601  0.25472335  1  0.118244  0  0.115905  0.089043  0  1.015322  0
H  H42  1  0.22895023  0.25472405  0.25299193  1  0.118185  0  0.11591  0.089029  0  1.015183  0
H  H43  1  0.27104921  0.74701008  0.74530479  1  0.118049  0  0.115908  0.089002  0  1.015343  0
H  H44  1  0.44089503  0.75753800  0.77820669  1  0.120076  0  0.114803  0.085934  0  1.009249  0
H  H45  1  0.05910804  0.22180124  0.24243257  1  0.120264  0  0.114816  0.085914  0  1.009322  0
H  H46  1  0.55910728  0.24244208  0.22179852  1  0.120292  0  0.114817  0.085971  0  1.009297  0
H  H47  1  0.94089994  0.77818685  0.75754340  1  0.120408  0  0.114818  0.08603  0  1.009366  0
H  H48  1  0.43277937  0.83711823  0.59972620  1  0.137716  0  0.103444  0.123269  0  1.051959  0
H  H49  1  0.06721429  0.40027795  0.16284665  1  0.137909  0  0.103463  0.123253  0  1.051938  0
H  H50  1  0.56720882  0.16284895  0.40027399  1  0.138071  0  0.103493  0.123358  0  1.051806  0
H  H51  1  0.93279968  0.59970288  0.83710734  1  0.137707  0  0.103424  0.123223  0  1.051942  0
H  H52  1  0.61043914  0.29791453  0.53923877  1  0.1032  0  0.107553  0.113744  0  0.994531  0
H  H53  1  0.88954632  0.46077016  0.70207490  1  0.103371  0  0.10758  0.113784  0  0.99449  0
H  H54  1  0.38954272  0.70207802  0.46076593  1  0.103434  0  0.107564  0.113748  0  0.994428  0
H  H55  1  0.11044811  0.53923901  0.29793081  1  0.103492  0  0.107566  0.113777  0  0.994455  0
H  H56  1  0.51288540  0.36662523  0.70232712  1  0.116464  0  0.106809  0.112969  0  0.991816  0
H  H57  1  0.98710700  0.29768374  0.63336153  1  0.11615  0  0.106813  0.112852  0  0.991735  0
H  H58  1  0.48711184  0.63337083  0.29767531  1  0.116309  0  0.10678  0.112872  0  0.991724  0
H  H59  1  0.01288800  0.70232987  0.36663517  1  0.116176  0  0.106793  0.112965  0  0.99167  0
H  H60  1  0.64214791  0.09578879  0.87428787  1  0.0788  0  0.098635  0.092797  0  1.038959  0
H  H61  1  0.85784903  0.12572723  0.90421170  1  0.078884  0  0.098618  0.092691  0  1.039037  0
H  H62  1  0.35785504  0.90422304  0.12572136  1  0.078575  0  0.098635  0.092684  0  1.039064  0
H  H63  1  0.14215254  0.87427497  0.09578314  1  0.07876  0  0.09865  0.092738  0  1.039044  0
H  H64  1  0.74258692  0.02880209  0.71242306  1  0.092065  0  0.10217  0.107567  0  1.009436  0
H  H65  1  0.75740441  0.28758901  0.97119357  1  0.091712  0  0.102154  0.10751  0  1.009378  0
H  H66  1  0.25740844  0.97119715  0.28758608  1  0.091981  0  0.102185  0.107586  0  1.009484  0
H  H67  1  0.24259299  0.71241091  0.02880833  1  0.091807  0  0.102134  0.107492  0  1.009419  0
C  C68  1  0.68126377  0.96265932  0.29486060  1  0.493931  0  0.116877  0.248579  0  4.000948  0
C  C69  1  0.81874502  0.70514488  0.03733754  1  0.493462  0  0.117073  0.248861  0  4.000436  0
C  C70  1  0.31873241  0.03733911  0.70514548  1  0.49394  0  0.117019  0.24876  0  4.000777  0
C  C71  1  0.18126848  0.29485309  0.96265814  1  0.493987  0  0.117046  0.248696  0  4.000912  0
C  C72  1  0.75745503  0.06493725  0.15786704  1  0.478142  0  0.04222  0.083919  0  3.994307  0
C  C73  1  0.74256028  0.84214197  0.93506227  1  0.478296  0  0.042091  0.083703  0  3.994598  0
C  C74  1  0.24254251  0.93506277  0.84213936  1  0.478282  0  0.04227  0.083993  0  3.99437  0
C  C75  1  0.25745834  0.15786558  0.06494037  1  0.478419  0  0.042256  0.083953  0  3.994314  0
C  C76  1  0.67511853  0.05975613  0.10017802  1  -0.081831  0  -0.08651  -0.131547  0  3.98488  0
C  C77  1  0.82489796  0.89982777  0.94024898  1  -0.082076  0  -0.086488  -0.131483  0  3.985224  0
C  C78  1  0.32487747  0.94024762  0.89982436  1  -0.082411  0  -0.086442  -0.131319  0  3.984716  0
C  C79  1  0.17511914  0.10017519  0.05975755  1  -0.082075  0  -0.086495  -0.131549  0  3.984686  0
C  C80  1  0.59474815  0.99971500  0.14140844  1  -0.009116  0  -0.06454  -0.014957  0  3.960244  0
C  C81  1  0.90526593  0.85858728  0.00029366  1  -0.00951  0  -0.064535  -0.015086  0  3.960189  0
C  C82  1  0.40525055  0.00028733  0.85859595  1  -0.009415  0  -0.064634  -0.015076  0  3.960298  0
C  C83  1  0.09474907  0.14140492  0.99971767  1  -0.009432  0  -0.064596  -0.015017  0  3.960068  0
C  C84  1  0.59852092  0.94983021  0.23873702  1  -0.06151  0  -0.07807  -0.158342  0  3.907166  0
C  C85  1  0.90149429  0.76126179  0.05017190  1  -0.060853  0  -0.078157  -0.158597  0  3.907606  0
C  C86  1  0.40147974  0.05016987  0.76126733  1  -0.061461  0  -0.078079  -0.158395  0  3.907319  0
C  C87  1  0.09852368  0.23873408  0.94982709  1  -0.061366  0  -0.078111  -0.158313  0  3.90741  0
C  C88  1  0.68680530  0.91690148  0.39940828  1  -0.049972  0  -0.077346  -0.140191  0  3.926562  0
C  C89  1  0.81319361  0.60059773  0.08309500  1  -0.049842  0  -0.077342  -0.140231  0  3.926708  0
C  C90  1  0.31319155  0.08309689  0.60059391  1  -0.049774  0  -0.077306  -0.140119  0  3.926562  0
C  C91  1  0.18681357  0.39939750  0.91689075  1  -0.049803  0  -0.07746  -0.140179  0  3.926757  0
C  C92  1  0.60176047  0.88805483  0.46398163  1  -0.027067  0  -0.080858  -0.111501  0  3.946298  0
C  C93  1  0.89822925  0.53602344  0.11194187  1  -0.027072  0  -0.080894  -0.111368  0  3.946079  0
C  C94  1  0.39822675  0.11193773  0.53601613  1  -0.027052  0  -0.080851  -0.111467  0  3.94606  0
C  C95  1  0.10177755  0.46396777  0.88803767  1  -0.027232  0  -0.080753  -0.111561  0  3.946165  0
C  C96  1  0.60573227  0.84213914  0.56858531  1  -0.007259  0  0.008949  0.152471  0  4.005795  0
C  C97  1  0.89426181  0.43141404  0.15785385  1  -0.0044  0  0.008817  0.152133  0  4.005628  0
C  C98  1  0.39425444  0.15785103  0.43140982  1  -0.003608  0  0.008885  0.152367  0  4.005637  0
C  C99  1  0.10574718  0.56858341  0.84212526  1  -0.004906  0  0.008754  0.152209  0  4.005541  0
C  C100  1  0.70167289  0.81602860  0.61298113  1  -0.034522  0  -0.080415  -0.166832  0  3.904349  0
C  C101  1  0.79832034  0.38701399  0.18397317  1  -0.03426  0  -0.080324  -0.166507  0  3.904119  0
C  C102  1  0.29831689  0.18397077  0.38700698  1  -0.034436  0  -0.080352  -0.166571  0  3.904246  0
C  C103  1  0.20168846  0.61298474  0.81602849  1  -0.034115  0  -0.080261  -0.166399  0  3.903993  0
C  C104  1  0.69784188  0.76980162  0.71207397  1  0.441243  0  0.041316  0.086066  0  3.982243  0
C  C105  1  0.80215650  0.28791957  0.23020228  1  0.441134  0  0.041335  0.086153  0  3.98241  0
C  C106  1  0.30215244  0.23020030  0.28791834  1  0.440964  0  0.041286  0.086091  0  3.982329  0
C  C107  1  0.19784662  0.71208236  0.76981201  1  0.441065  0  0.041301  0.086019  0  3.982602  0
C  C108  1  0.51345295  0.77563563  0.72904743  1  0.475933  0  0.043145  0.100391  0  3.957425  0
C  C109  1  0.98654673  0.27095231  0.22433949  1  0.476669  0  0.043212  0.10056  0  3.957686  0
C  C110  1  0.48654283  0.22434414  0.27095285  1  0.476264  0  0.043133  0.100289  0  3.957743  0
C  C111  1  0.01346011  0.72904267  0.77563575  1  0.475996  0  0.043056  0.1001  0  3.957703  0
C  C112  1  0.50994136  0.82063882  0.62959769  1  -0.05103  0  -0.085206  -0.179014  0  3.902577  0
C  C113  1  0.99005289  0.37039816  0.17933599  1  -0.054337  0  -0.085191  -0.178967  0  3.902831  0
C  C114  1  0.49004527  0.17933751  0.37040004  1  -0.055139  0  -0.085199  -0.179096  0  3.902976  0
C  C115  1  0.00995643  0.62958434  0.82062990  1  -0.053517  0  -0.085109  -0.178835  0  3.902656  0
C  C116  1  0.74613939  0.12473337  0.51984647  1  1.580674  0  0.19513  0.562462  0  4.220822  0
C  C117  1  0.75385758  0.48015942  0.87525973  1  1.580329  0  0.195241  0.562562  0  4.220717  0
C  C118  1  0.25385040  0.87525940  0.48015688  1  1.580498  0  0.195153  0.562426  0  4.220992  0
C  C119  1  0.24614021  0.51983907  0.12474683  1  1.580275  0  0.195294  0.562592  0  4.220781  0
C  C120  1  0.68240626  0.15991572  0.61660543  1  -0.064631  0  -0.016526  -0.027758  0  3.976254  0
C  C121  1  0.81757604  0.38340533  0.84007698  1  -0.064774  0  -0.016464  -0.027508  0  3.976147  0
C  C122  1  0.31757171  0.84008595  0.38339872  1  -0.064586  0  -0.016471  -0.027576  0  3.976222  0
C  C123  1  0.18241784  0.61660142  0.15992460  1  -0.064836  0  -0.016444  -0.027645  0  3.976159  0
C  C124  1  0.61666353  0.25456376  0.61335768  1  -0.027062  0  -0.083606  -0.098078  0  3.972887  0
C  C125  1  0.88332627  0.38664885  0.74542987  1  -0.027536  0  -0.083675  -0.098373  0  3.972881  0
C  C126  1  0.38332301  0.74543804  0.38664049  1  -0.027427  0  -0.083592  -0.098212  0  3.972952  0
C  C127  1  0.11667173  0.61335726  0.25457187  1  -0.027359  0  -0.083699  -0.098276  0  3.972899  0
C  C128  1  0.56296469  0.29256069  0.70341839  1  -0.12872  0  -0.079277  -0.088343  0  3.962195  0
C  C129  1  0.93702794  0.29659035  0.70743101  1  -0.128496  0  -0.079201  -0.088079  0  3.962099  0
C  C130  1  0.43702742  0.70744214  0.29658324  1  -0.128536  0  -0.079236  -0.0881  0  3.962324  0
C  C131  1  0.06297129  0.70341726  0.29256730  1  -0.128583  0  -0.079114  -0.088167  0  3.96208  0
C  C132  1  0.57309234  0.23579745  0.79795208  1  -0.018914  0  -0.014728  -0.022663  0  3.95796  0
C  C133  1  0.92690112  0.20205760  0.76420076  1  -0.01914  0  -0.014766  -0.022756  0  3.958238  0
C  C134  1  0.42690510  0.76421254  0.20205151  1  -0.018986  0  -0.014739  -0.022885  0  3.958399  0
C  C135  1  0.07310004  0.79794774  0.23579677  1  -0.01905  0  -0.014826  -0.02282  0  3.958074  0
C  C136  1  0.51644863  0.27712977  0.89516573  1  1.565429  0  0.191965  0.564703  0  4.217253  0
C  C137  1  0.98354810  0.10484498  0.72287114  1  1.565476  0  0.19214  0.565181  0  4.217007  0
C  C138  1  0.48355363  0.72288041  0.10483930  1  1.566108  0  0.192031  0.565133  0  4.216956  0
C  C139  1  0.01645042  0.89516641  0.27712452  1  1.565631  0  0.192145  0.565108  0  4.216695  0
C  C140  1  0.63624691  0.13977961  0.80051464  1  -0.080329  0  -0.085643  -0.102047  0  4.000151  0
C  C141  1  0.86374503  0.19949967  0.86021702  1  -0.080263  0  -0.085619  -0.101995  0  4.000283  0
C  C142  1  0.36374581  0.86023114  0.19949493  1  -0.079764  0  -0.085598  -0.101811  0  4.000513  0
C  C143  1  0.13625428  0.80050629  0.13977620  1  -0.080356  0  -0.085644  -0.102024  0  4.0003  0
C  C144  1  0.69117427  0.10217022  0.71082554  1  -0.005485  0  -0.086591  -0.10275  0  3.978245  0
C  C145  1  0.80881120  0.28918396  0.89782495  1  -0.004559  0  -0.086626  -0.102685  0  3.978186  0
C  C146  1  0.30881273  0.89783480  0.28917742  1  -0.005325  0  -0.086713  -0.102934  0  3.978702  0
C  C147  1  0.19118480  0.71081893  0.10217376  1  -0.004666  0  -0.086669  -0.102692  0  3.978321  0
N  N148  1  0.76069088  0.01887610  0.25291189  1  -1.202813  0  -0.318855  -0.28467  0  3.433866  0
N  N149  1  0.73932081  0.74709638  0.98112287  1  -1.203053  0  -0.319043  -0.284865  0  3.433889  0
N  N150  1  0.23930432  0.98112302  0.74709199  1  -1.202661  0  -0.318946  -0.284913  0  3.434209  0
N  N151  1  0.26069163  0.25290853  0.01887435  1  -1.202809  0  -0.318941  -0.284826  0  3.43417  0
N  N152  1  0.60557354  0.75002624  0.77023840  1  -1.234613  0  -0.33222  -0.246989  0  3.51391  0
N  N153  1  0.89442972  0.22976326  0.24996672  1  -1.235332  0  -0.332275  -0.24723  0  3.514259  0
N  N154  1  0.39442394  0.24997202  0.22975841  1  -1.234836  0  -0.332215  -0.246946  0  3.513895  0
N  N155  1  0.10557855  0.77023393  0.75003599  1  -1.234815  0  -0.332182  -0.246796  0  3.514208  0
O  O156  1  0.72767707  0.17334517  0.43509473  1  -1.173373  0  -0.325571  -0.560761  0  2.20513  0
O  O157  1  0.77232196  0.56491111  0.82665401  1  -1.173609  0  -0.325709  -0.56095  0  2.205074  0
O  O158  1  0.27231004  0.82664903  0.56490737  1  -1.173722  0  -0.325604  -0.56081  0  2.20525  0
O  O159  1  0.22767731  0.43508906  0.17335662  1  -1.173616  0  -0.325754  -0.560977  0  2.205088  0
O  O160  1  0.81978748  0.04780872  0.52548210  1  -1.188845  0  -0.331215  -0.584103  0  2.286107  0
O  O161  1  0.68021195  0.47452938  0.95218763  1  -1.188696  0  -0.331188  -0.584088  0  2.286024  0
O  O162  1  0.18020737  0.95218899  0.47452807  1  -1.188712  0  -0.33123  -0.584072  0  2.286088  0
O  O163  1  0.31978740  0.52546914  0.04781791  1  -1.18855  0  -0.331168  -0.584025  0  2.286168  0
O  O164  1  0.46502193  0.36784157  0.89048207  1  -1.184659  0  -0.333859  -0.586102  0  2.231757  0
O  O165  1  0.03497322  0.10952661  0.63215507  1  -1.184704  0  -0.333949  -0.58629  0  2.23157  0
O  O166  1  0.53497647  0.63216771  0.10952296  1  -1.185205  0  -0.333851  -0.586183  0  2.231725  0
O  O167  1  0.96502489  0.89048246  0.36784096  1  -1.184772  0  -0.3339  -0.58622  0  2.231598  0
O  O168  1  0.51977012  0.22010748  0.97864921  1  -1.170255  0  -0.33382  -0.563432  0  2.166584  0
O  O169  1  0.98023572  0.02136322  0.77989773  1  -1.170064  0  -0.333884  -0.563668  0  2.166707  0
O  O170  1  0.48023948  0.77990678  0.02135556  1  -1.170305  0  -0.333842  -0.56365  0  2.166373  0
O  O171  1  0.01976787  0.97864595  0.22009511  1  -1.17028  0  -0.333903  -0.563645  0  2.166411  0
O  O172  1  0.03993229  0.11251405  0.42050129  1  -1.26244  0  -0.588001  -0.754316  0  2.018562  0
O  O173  1  0.46006565  0.57950265  0.88749176  1  -1.262143  0  -0.588041  -0.754346  0  2.018647  0
O  O174  1  0.96006525  0.88748512  0.57950144  1  -1.262471  0  -0.588025  -0.754322  0  2.01858  0
O  O175  1  0.53993782  0.42050700  0.11252221  1  -1.262517  0  -0.58804  -0.754371  0  2.018443  0
