# generated using pymatgen
data_ZnH6(C3N2)2
_symmetry_space_group_name_H-M   'P 1'
_cell_length_a   14.60361513
_cell_length_b   14.60361772
_cell_length_c   14.60353399
_cell_angle_alpha   109.47114389
_cell_angle_beta   109.47114967
_cell_angle_gamma   109.47133921
_symmetry_Int_Tables_number   1
_chemical_formula_structural   ZnH6(C3N2)2
_chemical_formula_sum   'Zn6 H36 C36 N24'
_cell_volume   2397.49144382
_cell_formula_units_Z   6
loop_
 _symmetry_equiv_pos_site_id
 _symmetry_equiv_pos_as_xyz
  1  'x, y, z'
loop_
 _atom_site_type_symbol
 _atom_site_label
 _atom_site_symmetry_multiplicity
 _atom_site_fract_x
 _atom_site_fract_y
 _atom_site_fract_z
 _atom_site_occupancy
 _atom_site_pbe_bader_charge
 _atom_site_pbe_bader_spin_density
 _atom_site_pbe_cm5_charge
 _atom_site_pbe_ddec_charge
 _atom_site_pbe_ddec_spin_density
 _atom_site_pbe_ddec_sum_bond_order
 _atom_site_pbe_magmom
Zn  Zn0  1  0.50000003  0.75000054  0.24999946  1  1.184234  0  0.715102  0.62012  0  2.58  0
Zn  Zn1  1  0.50000059  0.24999994  0.75000026  1  1.184228  0  0.715082  0.620163  0  2.579971  0
Zn  Zn2  1  0.24999995  0.50000048  0.75000022  1  1.184242  0  0.715098  0.620138  0  2.579969  0
Zn  Zn3  1  0.74999976  0.49999907  0.24999930  1  1.18424  0  0.715085  0.620142  0  2.580009  0
Zn  Zn4  1  0.75000012  0.25000054  0.49999990  1  1.184222  0  0.715098  0.620185  0  2.579953  0
Zn  Zn5  1  0.25000050  0.74999994  0.49999982  1  1.184221  0  0.715075  0.620116  0  2.580001  0
H  H6  1  0.76763583  0.88445994  0.33810944  1  0.0825  0  0.108185  0.099391  0  1.028043  0
H  H7  1  0.45364890  0.11553885  0.88317307  1  0.089289  0  0.108172  0.099375  0  1.02801  0
H  H8  1  0.23236135  0.57047214  0.11682342  1  0.071387  0  0.108186  0.09941  0  1.027956  0
H  H9  1  0.54634903  0.42952474  0.66188851  1  0.075837  0  0.108169  0.099348  0  1.028069  0
H  H10  1  0.33811111  0.76763810  0.88446236  1  0.081723  0  0.108162  0.099371  0  1.028026  0
H  H11  1  0.88317523  0.45364974  0.11553920  1  0.089282  0  0.108179  0.099387  0  1.028049  0
H  H12  1  0.11682329  0.23236434  0.57047233  1  0.071752  0  0.108168  0.099374  0  1.028028  0
H  H13  1  0.66189001  0.54635137  0.42952458  1  0.075859  0  0.108175  0.099379  0  1.027999  0
H  H14  1  0.88446154  0.33811015  0.76763481  1  0.082473  0  0.108177  0.099402  0  1.027991  0
H  H15  1  0.11554091  0.88317541  0.45364924  1  0.089304  0  0.108205  0.099406  0  1.028065  0
H  H16  1  0.57047434  0.11682405  0.23236410  1  0.073018  0  0.108175  0.099389  0  1.028042  0
H  H17  1  0.42952629  0.66188815  0.54635061  1  0.074342  0  0.108186  0.099411  0  1.027953  0
H  H18  1  0.33811147  0.88446184  0.76763493  1  0.082552  0  0.108185  0.099405  0  1.028003  0
H  H19  1  0.88317607  0.11554059  0.45364936  1  0.089292  0  0.108188  0.099407  0  1.028049  0
H  H20  1  0.11682467  0.57047402  0.23236355  1  0.072997  0  0.10818  0.099384  0  1.02805  0
H  H21  1  0.66188920  0.42952718  0.54635085  1  0.074404  0  0.108188  0.099422  0  1.027948  0
H  H22  1  0.88446008  0.76763574  0.33810946  1  0.082502  0  0.108184  0.099407  0  1.028026  0
H  H23  1  0.11553907  0.45364902  0.88317254  1  0.089282  0  0.108169  0.099365  0  1.028021  0
H  H24  1  0.57047253  0.23236247  0.11682416  1  0.071366  0  0.108192  0.099435  0  1.027959  0
H  H25  1  0.42952529  0.54635028  0.66188869  1  0.075823  0  0.108177  0.099372  0  1.028044  0
H  H26  1  0.76763828  0.33811111  0.88446243  1  0.081726  0  0.108162  0.09938  0  1.028018  0
H  H27  1  0.45364974  0.88317505  0.11553913  1  0.089281  0  0.10818  0.099363  0  1.028068  0
H  H28  1  0.23236415  0.11682305  0.57047284  1  0.073331  0  0.108199  0.099433  0  1.028012  0
H  H29  1  0.54635143  0.66188990  0.42952457  1  0.074277  0  0.108171  0.099372  0  1.028007  0
H  H30  1  0.54267507  0.54267499  0.20037117  1  0.122158  0  0.127528  0.08632  0  0.99159  0
H  H31  1  0.65769762  0.45732453  0.00000109  1  0.105594  0  0.127551  0.086352  0  0.991566  0
H  H32  1  0.45732457  0.65769750  0.00000105  1  0.105594  0  0.12755  0.086353  0  0.991572  0
H  H33  1  0.34230275  0.34230354  0.79962738  1  0.099034  0  0.127526  0.086317  0  0.991601  0
H  H34  1  0.20037253  0.54267577  0.54267659  1  0.121957  0  0.12754  0.086343  0  0.9916  0
H  H35  1  0.99999978  0.65769721  0.45732433  1  0.105557  0  0.127522  0.086305  0  0.99161  0
H  H36  1  0.00000093  0.45732529  0.65769633  1  0.105574  0  0.127533  0.086337  0  0.9916  0
H  H37  1  0.79962559  0.34230278  0.34230247  1  0.09974  0  0.127532  0.086333  0  0.991537  0
H  H38  1  0.54267572  0.20037321  0.54267616  1  0.12195  0  0.127538  0.086337  0  0.991576  0
H  H39  1  0.45732585  0.00000057  0.65769641  1  0.10556  0  0.127523  0.086307  0  0.991605  0
H  H40  1  0.65769683  0.00000021  0.45732518  1  0.105567  0  0.127533  0.086312  0  0.991579  0
H  H41  1  0.34230279  0.79962627  0.34230357  1  0.099738  0  0.127549  0.086345  0  0.991603  0
C  C42  1  0.73853646  0.79632324  0.31066184  1  0.427155  0  -0.026479  -0.065968  0  4.053261  0
C  C43  1  0.51434133  0.20367886  0.94221826  1  0.425006  0  -0.026452  -0.065935  0  4.053425  0
C  C44  1  0.26145853  0.57212256  0.05778451  1  0.292789  0  -0.026445  -0.065945  0  4.053286  0
C  C45  1  0.48566017  0.42787405  0.68933568  1  0.295156  0  -0.026432  -0.065869  0  4.05322  0
C  C46  1  0.31066409  0.73854145  0.79632687  1  0.427788  0  -0.026431  -0.06588  0  4.053335  0
C  C47  1  0.94221353  0.51433935  0.20367640  1  0.424921  0  -0.02645  -0.06591  0  4.053269  0
C  C48  1  0.05778549  0.26146278  0.57212404  1  0.292375  0  -0.026427  -0.065904  0  4.05327  0
C  C49  1  0.68933680  0.48565856  0.42787641  1  0.295048  0  -0.026439  -0.065948  0  4.053411  0
C  C50  1  0.79632163  0.31066308  0.73854015  1  0.283123  0  -0.026462  -0.065985  0  4.053408  0
C  C51  1  0.20367721  0.94221278  0.51433883  1  0.42496  0  -0.026499  -0.065956  0  4.053305  0
C  C52  1  0.57212500  0.05778606  0.26146158  1  0.29266  0  -0.026465  -0.065956  0  4.053271  0
C  C53  1  0.42787672  0.68933498  0.48566159  1  0.438729  0  -0.026446  -0.065945  0  4.053187  0
C  C54  1  0.31066331  0.79632168  0.73853959  1  0.283051  0  -0.026458  -0.06602  0  4.053495  0
C  C55  1  0.94221276  0.20367618  0.51433826  1  0.425102  0  -0.026473  -0.065971  0  4.053328  0
C  C56  1  0.05778710  0.57212511  0.26146218  1  0.292865  0  -0.026437  -0.065921  0  4.053266  0
C  C57  1  0.68933511  0.42787669  0.48566164  1  0.438667  0  -0.026445  -0.065952  0  4.053162  0
C  C58  1  0.79632294  0.73853678  0.31066185  1  0.283218  0  -0.026452  -0.06593  0  4.053293  0
C  C59  1  0.20367817  0.51434052  0.94221753  1  0.424986  0  -0.026454  -0.065932  0  4.053446  0
C  C60  1  0.57212244  0.26145830  0.05778505  1  0.292786  0  -0.026452  -0.065986  0  4.053264  0
C  C61  1  0.42787369  0.48566051  0.68933567  1  0.439235  0  -0.026442  -0.065918  0  4.053239  0
C  C62  1  0.73854145  0.31066476  0.79632645  1  0.427789  0  -0.026424  -0.065911  0  4.05336  0
C  C63  1  0.51433935  0.94221334  0.20367633  1  0.425114  0  -0.026456  -0.06589  0  4.053267  0
C  C64  1  0.26146330  0.05778595  0.57212524  1  0.29239  0  -0.026469  -0.065973  0  4.053283  0
C  C65  1  0.48565860  0.68933667  0.42787638  1  0.295043  0  -0.026436  -0.065935  0  4.053425  0
C  C66  1  0.62039699  0.62039690  0.23935977  1  0.927842  0  0.112415  0.124088  0  4.018866  0
C  C67  1  0.61896404  0.37960259  0.00000079  1  0.945068  0  0.112385  0.124015  0  4.018848  0
C  C68  1  0.37960261  0.61896392  0.00000075  1  0.945065  0  0.11239  0.124008  0  4.018847  0
C  C69  1  0.38103551  0.38103713  0.76063822  1  0.954149  0  0.112386  0.124029  0  4.018906  0
C  C70  1  0.23936102  0.62039767  0.62039835  1  0.928095  0  0.112371  0.123987  0  4.018948  0
C  C71  1  0.00000102  0.61896412  0.37960347  1  0.945045  0  0.112409  0.124113  0  4.018834  0
C  C72  1  0.00000012  0.37960353  0.61896336  1  0.945018  0  0.112367  0.123985  0  4.018949  0
C  C73  1  0.76063745  0.38103560  0.38103647  1  0.953475  0  0.112374  0.123987  0  4.018849  0
C  C74  1  0.62039722  0.23936212  0.62039793  1  0.928093  0  0.112425  0.124086  0  4.01871  0
C  C75  1  0.37960433  0.00000085  0.61896410  1  0.945043  0  0.112413  0.124106  0  4.018838  0
C  C76  1  0.61896472  0.00000068  0.37960357  1  0.945028  0  0.112426  0.124135  0  4.018725  0
C  C77  1  0.38103584  0.76063753  0.38103592  1  0.952938  0  0.112374  0.124005  0  4.018897  0
N  N78  1  0.62698536  0.72081264  0.26544490  1  -1.25815  0  -0.380459  -0.293656  0  3.639623  0
N  N79  1  0.54463352  0.27918729  0.90617348  1  -1.267489  0  -0.380473  -0.293687  0  3.639668  0
N  N80  1  0.37301372  0.63845981  0.09382800  1  -1.255995  0  -0.380456  -0.293616  0  3.639622  0
N  N81  1  0.45536615  0.36153955  0.73455315  1  -1.263913  0  -0.380483  -0.293746  0  3.639609  0
N  N82  1  0.26544589  0.62698625  0.72081365  1  -1.258091  0  -0.380464  -0.293673  0  3.639597  0
N  N83  1  0.90617329  0.54463276  0.27918649  1  -1.267429  0  -0.380479  -0.293723  0  3.639691  0
N  N84  1  0.09382671  0.37301425  0.63845881  1  -1.25604  0  -0.380466  -0.29367  0  3.639742  0
N  N85  1  0.73455267  0.45536669  0.36154010  1  -1.26382  0  -0.380441  -0.2936  0  3.639665  0
N  N86  1  0.72081375  0.26544670  0.62698624  1  -1.257986  0  -0.38047  -0.293704  0  3.639586  0
N  N87  1  0.27918834  0.90617316  0.54463299  1  -1.267283  0  -0.380478  -0.293732  0  3.639572  0
N  N88  1  0.63845941  0.09382646  0.37301394  1  -1.25601  0  -0.380486  -0.293767  0  3.63974  0
N  N89  1  0.36153919  0.73455238  0.45536704  1  -1.263205  0  -0.38046  -0.293631  0  3.639497  0
N  N90  1  0.26544644  0.72081334  0.62698665  1  -1.258  0  -0.38044  -0.293582  0  3.639726  0
N  N91  1  0.90617312  0.27918728  0.54463241  1  -1.267448  0  -0.380472  -0.293683  0  3.639705  0
N  N92  1  0.09382640  0.63845924  0.37301385  1  -1.256027  0  -0.380491  -0.293741  0  3.639757  0
N  N93  1  0.73455278  0.36153943  0.45536662  1  -1.263754  0  -0.380462  -0.293644  0  3.639533  0
N  N94  1  0.72081234  0.62698570  0.26544491  1  -1.258141  0  -0.380496  -0.293789  0  3.639795  0
N  N95  1  0.27918637  0.54463247  0.90617323  1  -1.267483  0  -0.380466  -0.293667  0  3.639733  0
N  N96  1  0.63846018  0.37301395  0.09382756  1  -1.256  0  -0.380463  -0.293613  0  3.639574  0
N  N97  1  0.36154052  0.45536699  0.73455334  1  -1.264125  0  -0.380447  -0.293625  0  3.639726  0
N  N98  1  0.62698667  0.26544700  0.72081439  1  -1.258089  0  -0.380445  -0.293629  0  3.639644  0
N  N99  1  0.54463320  0.90617269  0.27918643  1  -1.267441  0  -0.380457  -0.293666  0  3.639639  0
N  N100  1  0.37301452  0.09382607  0.63845934  1  -1.256078  0  -0.380468  -0.293715  0  3.639756  0
N  N101  1  0.45536698  0.73455363  0.36154074  1  -1.263817  0  -0.380467  -0.293662  0  3.639722  0
