# generated using pymatgen
data_NaH4C3N3O4
_symmetry_space_group_name_H-M   'P 1'
_cell_length_a   3.56127718
_cell_length_b   9.16309284
_cell_length_c   9.15738946
_cell_angle_alpha   91.95066598
_cell_angle_beta   98.18245012
_cell_angle_gamma   91.12244214
_symmetry_Int_Tables_number   1
_chemical_formula_structural   NaH4C3N3O4
_chemical_formula_sum   'Na2 H8 C6 N6 O8'
_cell_volume   295.52311832
_cell_formula_units_Z   2
loop_
 _symmetry_equiv_pos_site_id
 _symmetry_equiv_pos_as_xyz
  1  'x, y, z'
loop_
 _atom_site_type_symbol
 _atom_site_label
 _atom_site_symmetry_multiplicity
 _atom_site_fract_x
 _atom_site_fract_y
 _atom_site_fract_z
 _atom_site_occupancy
 _atom_site_hle17_bader_spin_density
 _atom_site_hle17_ddec_charge
 _atom_site_hle17_ddec_spin_density
 _atom_site_hle17_ddec_sum_bond_order
 _atom_site_hle17_magmom
 _atom_site_hse06_10hf_bader_spin_density
 _atom_site_hse06_10hf_ddec_charge
 _atom_site_hse06_10hf_ddec_spin_density
 _atom_site_hse06_10hf_ddec_sum_bond_order
 _atom_site_hse06_10hf_magmom
 _atom_site_hse06_bader_spin_density
 _atom_site_hse06_ddec_charge
 _atom_site_hse06_ddec_spin_density
 _atom_site_hse06_ddec_sum_bond_order
 _atom_site_hse06_magmom
 _atom_site_pbe_bader_spin_density
 _atom_site_pbe_cm5_charge
 _atom_site_pbe_ddec_charge
 _atom_site_pbe_ddec_spin_density
 _atom_site_pbe_ddec_sum_bond_order
 _atom_site_pbe_magmom
Na  Na0  1  0.66807885  0.37735912  0.36433033  1  0  0.902346  0  0.379523  0  0  0.860854  0  0.531597  0  0  0.870487  0  0.50975  0  0  0.67735  0.853158  0  0.548119  0
Na  Na1  1  0.33189725  0.62264647  0.63566749  1  0  0.902313  0  0.379565  0  0  0.860868  0  0.531595  0  0  0.870473  0  0.509755  0  0  0.677385  0.853173  0  0.548117  0
H  H2  1  0.03832810  0.51980551  0.18091518  1  0  0.410032  0  0.897233  0  0  0.374376  0  0.969449  0  0  0.385278  0  0.953402  0  0  0.284929  0.366368  0  0.981174  0
H  H3  1  0.96165363  0.48019786  0.81907855  1  0  0.409912  0  0.897372  0  0  0.374283  0  0.969554  0  0  0.385183  0  0.953512  0  0  0.284905  0.366275  0  0.981277  0
H  H4  1  0.05598565  0.35519948  0.11302218  1  0  0.431154  0  0.864352  0  0  0.40137  0  0.925028  0  0  0.412104  0  0.909024  0  0  0.29284  0.393698  0  0.936494  0
H  H5  1  0.94400186  0.64480497  0.88697082  1  0  0.431141  0  0.864372  0  0  0.40135  0  0.925067  0  0  0.412083  0  0.909064  0  0  0.292856  0.393676  0  0.936535  0
H  H6  1  0.87662739  0.05097059  0.10619062  1  0  0.346718  0  0.902903  0  0  0.318691  0  0.973913  0  0  0.329816  0  0.964124  0  0  0.31385  0.310648  0  0.981178  0
H  H7  1  0.12341065  0.94902730  0.89380847  1  0  0.346686  0  0.902936  0  0  0.318635  0  0.974001  0  0  0.329762  0  0.96421  0  0  0.313833  0.310592  0  0.98127  0
H  H8  1  0.57083698  0.88260906  0.48732178  1  0  0.323646  0  0.927401  0  0  0.300131  0  0.995554  0  0  0.310108  0  0.987041  0  0  0.312971  0.29317  0  1.001532  0
H  H9  1  0.42916736  0.11739431  0.51267656  1  0  0.323667  0  0.927426  0  0  0.300079  0  0.99567  0  0  0.310078  0  0.987148  0  0  0.312945  0.293118  0  1.001646  0
C  C10  1  0.90983863  0.82209596  0.12338187  1  0  0.762509  0  3.854287  0  0  0.686331  0  4.176418  0  0  0.72169  0  4.172097  0  0  0.333932  0.662272  0  4.178344  0
C  C11  1  0.09015609  0.17789771  0.87663312  1  0  0.762724  0  3.853652  0  0  0.686428  0  4.17601  0  0  0.721805  0  4.171671  0  0  0.33404  0.662369  0  4.177929  0
C  C12  1  0.70493815  0.99126478  0.30422467  1  0  0.781034  0  3.853193  0  0  0.705651  0  4.162117  0  0  0.74107  0  4.156024  0  0  0.346811  0.68162  0  4.165593  0
C  C13  1  0.29506272  0.00872986  0.69577432  1  0  0.781176  0  3.852986  0  0  0.705784  0  4.161866  0  0  0.741227  0  4.15578  0  0  0.346956  0.681761  0  4.165334  0
C  C14  1  0.76170720  0.73024614  0.34279779  1  0  0.770767  0  3.882755  0  0  0.707655  0  4.185865  0  0  0.742137  0  4.181363  0  0  0.334667  0.684254  0  4.188043  0
C  C15  1  0.23830223  0.26975517  0.65721827  1  0  0.770488  0  3.882813  0  0  0.707419  0  4.185897  0  0  0.741937  0  4.181381  0  0  0.334466  0.684043  0  4.188034  0
N  N16  1  0.82954269  0.96308388  0.17245210  1  0  -0.579524  0  3.230222  0  0  -0.516174  0  3.485556  0  0  -0.542387  0  3.485269  0  0  -0.390266  -0.498297  0  3.485494  0
N  N17  1  0.17049204  0.03690968  0.82755323  1  0  -0.579508  0  3.230089  0  0  -0.5161  0  3.485463  0  0  -0.542323  0  3.485173  0  0  -0.390227  -0.498227  0  3.485403  0
N  N18  1  0.87647173  0.70777599  0.21004930  1  0  -0.653118  0  2.978871  0  0  -0.599179  0  3.249886  0  0  -0.627278  0  3.252455  0  0  -0.344442  -0.579499  0  3.247264  0
N  N19  1  0.12352377  0.29222303  0.78994949  1  0  -0.652925  0  2.978624  0  0  -0.59912  0  3.249861  0  0  -0.627228  0  3.252416  0  0  -0.344431  -0.579442  0  3.247222  0
N  N20  1  0.66833640  0.87110372  0.38569916  1  0  -0.593562  0  3.270688  0  0  -0.531666  0  3.519946  0  0  -0.557913  0  3.521417  0  0  -0.403628  -0.513778  0  3.518487  0
N  N21  1  0.33167643  0.12889966  0.61430077  1  0  -0.593529  0  3.270511  0  0  -0.531506  0  3.519683  0  0  -0.557832  0  3.521191  0  0  -0.403568  -0.513629  0  3.518209  0
O  O22  1  0.73728785  0.63183479  0.43389841  1  0  -0.717767  0  1.884748  0  0  -0.677354  0  2.134145  0  0  -0.696128  0  2.120725  0  0  -0.412143  -0.663479  0  2.142853  0
O  O23  1  0.26271422  0.36817511  0.56609561  1  0  -0.717757  0  1.884343  0  0  -0.677336  0  2.133699  0  0  -0.696123  0  2.120272  0  0  -0.412037  -0.663463  0  2.14239  0
O  O24  1  0.02041655  0.80857778  0.99915332  1  0  -0.605747  0  1.961443  0  0  -0.543388  0  2.18087  0  0  -0.567229  0  2.170902  0  0  -0.283839  -0.526626  0  2.187575  0
O  O25  1  0.97956125  0.19141365  0.00085078  1  0  -0.605846  0  1.961588  0  0  -0.543375  0  2.18097  0  0  -0.56721  0  2.170987  0  0  -0.283863  -0.526642  0  2.187723  0
O  O26  1  0.11763818  0.41847257  0.20311740  1  0  -0.940151  0  1.791692  0  0  -0.896706  0  1.974472  0  0  -0.911691  0  1.938069  0  0  -0.719709  -0.886281  0  2.000987  0
O  O27  1  0.88234099  0.58153518  0.79687739  1  0  -0.940022  0  1.79175  0  0  -0.896604  0  1.974486  0  0  -0.911562  0  1.938067  0  0  -0.719719  -0.886192  0  2.001033  0
O  O28  1  0.62821646  0.11644315  0.34847143  1  0  -0.63837  0  1.916262  0  0  -0.590626  0  2.149719  0  0  -0.610102  0  2.137706  0  0  -0.34336  -0.57725  0  2.158762  0
O  O29  1  0.37180443  0.88355255  0.65152549  1  0  -0.638487  0  1.916254  0  0  -0.590767  0  2.149697  0  0  -0.610231  0  2.137673  0  0  -0.343501  -0.577391  0  2.158737  0
