# generated using pymatgen
data_CdH18C16(N2O3)2
_symmetry_space_group_name_H-M   'P 1'
_cell_length_a   7.10523028
_cell_length_b   8.28743147
_cell_length_c   9.30241811
_cell_angle_alpha   94.19070798
_cell_angle_beta   117.18693543
_cell_angle_gamma   102.77532647
_symmetry_Int_Tables_number   1
_chemical_formula_structural   CdH18C16(N2O3)2
_chemical_formula_sum   'Cd1 H18 C16 N4 O6'
_cell_volume   465.51698404
_cell_formula_units_Z   1
loop_
 _symmetry_equiv_pos_site_id
 _symmetry_equiv_pos_as_xyz
  1  'x, y, z'
loop_
 _atom_site_type_symbol
 _atom_site_label
 _atom_site_symmetry_multiplicity
 _atom_site_fract_x
 _atom_site_fract_y
 _atom_site_fract_z
 _atom_site_occupancy
 _atom_site_hle17_bader_spin_density
 _atom_site_hle17_ddec_charge
 _atom_site_hle17_ddec_spin_density
 _atom_site_hle17_ddec_sum_bond_order
 _atom_site_hle17_magmom
 _atom_site_hse06_10hf_bader_spin_density
 _atom_site_hse06_10hf_ddec_charge
 _atom_site_hse06_10hf_ddec_spin_density
 _atom_site_hse06_10hf_ddec_sum_bond_order
 _atom_site_hse06_10hf_magmom
 _atom_site_hse06_bader_spin_density
 _atom_site_hse06_ddec_charge
 _atom_site_hse06_ddec_spin_density
 _atom_site_hse06_ddec_sum_bond_order
 _atom_site_hse06_magmom
 _atom_site_pbe_bader_spin_density
 _atom_site_pbe_cm5_charge
 _atom_site_pbe_ddec_charge
 _atom_site_pbe_ddec_spin_density
 _atom_site_pbe_ddec_sum_bond_order
 _atom_site_pbe_magmom
Cd  Cd0  1  0.00001779  0.00001383  0.00000361  1  0  1.152501  0  1.61923  0  0  0.957292  0  2.066331  0  0  1.015813  0  2.011875  0  0  0.763998  0.914898  0  2.10457  0
H  H1  1  0.69194853  0.73445983  0.65325627  1  0  0.086435  0  0.940117  0  0  0.094849  0  1.000902  0  0  0.097778  0  0.998325  0  0  0.115835  0.09282  0  1.002583  0
H  H2  1  0.30808456  0.26554981  0.34676454  1  0  0.086387  0  0.940147  0  0  0.094861  0  1.000878  0  0  0.097758  0  0.998339  0  0  0.115799  0.092828  0  1.002563  0
H  H3  1  0.50468785  0.72681550  0.34652516  1  0  0.109598  0  0.943397  0  0  0.121813  0  0.99787  0  0  0.125123  0  0.996405  0  0  0.110463  0.119313  0  0.999256  0
H  H4  1  0.49530193  0.27316657  0.65349227  1  0  0.109565  0  0.943498  0  0  0.121815  0  0.997931  0  0  0.125124  0  0.996463  0  0  0.110492  0.119314  0  0.999319  0
H  H5  1  0.60117785  0.98953835  0.24636688  1  0  0.126401  0  0.943589  0  0  0.135544  0  1.004973  0  0  0.138295  0  1.003222  0  0  0.116693  0.133521  0  1.006213  0
H  H6  1  0.39879726  0.01043089  0.75362977  1  0  0.126353  0  0.943546  0  0  0.135503  0  1.004928  0  0  0.138255  0  1.003178  0  0  0.116705  0.133485  0  1.006171  0
H  H7  1  0.02795333  0.24068258  0.75655383  1  0  0.088348  0  0.949743  0  0  0.094211  0  1.01895  0  0  0.096517  0  1.016593  0  0  0.119101  0.09244  0  1.020766  0
H  H8  1  0.97206753  0.75932161  0.24343241  1  0  0.088323  0  0.949807  0  0  0.094195  0  1.019029  0  0  0.096501  0  1.016673  0  0  0.119093  0.092418  0  1.02084  0
H  H9  1  0.82890772  0.27854604  0.30686813  1  0  0.076835  0  0.948116  0  0  0.085667  0  1.017281  0  0  0.088866  0  1.013379  0  0  0.117818  0.083268  0  1.020006  0
H  H10  1  0.17108083  0.72143543  0.69310476  1  0  0.076941  0  0.9482  0  0  0.085845  0  1.017219  0  0  0.088978  0  1.013385  0  0  0.117875  0.083441  0  1.019953  0
H  H11  1  0.46019217  0.43999882  0.82567855  1  0  0.095283  0  0.94045  0  0  0.110294  0  1.000886  0  0  0.112775  0  0.999698  0  0  0.093588  0.108506  0  1.00189  0
H  H12  1  0.53981409  0.56001577  0.17432379  1  0  0.095378  0  0.940345  0  0  0.110346  0  1.000795  0  0  0.112833  0  0.999621  0  0  0.093636  0.108569  0  1.00179  0
H  H13  1  0.28159578  0.52589380  0.87168563  1  0  0.085769  0  0.963155  0  0  0.093703  0  1.0391  0  0  0.096865  0  1.036128  0  0  0.090707  0.091439  0  1.041248  0
H  H14  1  0.71840296  0.47411712  0.12832256  1  0  0.08573  0  0.963192  0  0  0.093636  0  1.039157  0  0  0.096808  0  1.036191  0  0  0.090703  0.091374  0  1.041305  0
H  H15  1  0.09265653  0.69865459  0.97393114  1  0  0.418661  0  0.842627  0  0  0.397425  0  0.904769  0  0  0.407223  0  0.892659  0  0  0.302538  0.390459  0  0.913312  0
H  H16  1  0.90734756  0.30135379  0.02607763  1  0  0.418723  0  0.842477  0  0  0.397444  0  0.904724  0  0  0.407244  0  0.892607  0  0  0.302501  0.390473  0  0.913283  0
H  H17  1  0.32562942  0.80959864  0.99494477  1  0  0.421454  0  0.890735  0  0  0.38615  0  0.962411  0  0  0.398318  0  0.944821  0  0  0.278761  0.377458  0  0.974873  0
H  H18  1  0.67437854  0.19041214  0.00505686  1  0  0.421526  0  0.890607  0  0  0.386211  0  0.962282  0  0  0.398373  0  0.944699  0  0  0.278793  0.377518  0  0.974748  0
C  C19  1  0.72474357  0.84533978  0.60256370  1  0  0.122285  0  3.704942  0  0  0.08977  0  3.959181  0  0  0.096565  0  3.979425  0  0  0.046667  0.085461  0  3.945204  0
C  C20  1  0.27526740  0.15465726  0.39744995  1  0  0.122235  0  3.704795  0  0  0.089664  0  3.959043  0  0  0.096484  0  3.979296  0  0  0.046688  0.085356  0  3.945062  0
C  C21  1  0.62402136  0.84178336  0.43368538  1  0  -0.112359  0  3.738534  0  0  -0.125359  0  3.994636  0  0  -0.133479  0  4.017912  0  0  -0.080462  -0.120099  0  3.978976  0
C  C22  1  0.37598620  0.15820377  0.56634052  1  0  -0.112344  0  3.738585  0  0  -0.125326  0  3.994636  0  0  -0.133438  0  4.017893  0  0  -0.080529  -0.120065  0  3.978976  0
C  C23  1  0.67574295  0.98776215  0.37785018  1  0  -0.027366  0  3.641292  0  0  -0.056363  0  3.889822  0  0  -0.053174  0  3.909615  0  0  -0.055506  -0.058163  0  3.876419  0
C  C24  1  0.32423740  0.01221712  0.62214346  1  0  -0.027284  0  3.641699  0  0  -0.056295  0  3.890281  0  0  -0.053109  0  3.910078  0  0  -0.055437  -0.058107  0  3.876883  0
C  C25  1  0.82308956  0.13560806  0.49412143  1  0  -0.015032  0  3.807631  0  0  0.009462  0  4.040774  0  0  0.002028  0  4.066462  0  0  -0.007083  0.014064  0  4.023684  0
C  C26  1  0.17689396  0.86438487  0.50585688  1  0  -0.014853  0  3.807637  0  0  0.009542  0  4.040906  0  0  0.002113  0  4.066582  0  0  -0.007122  0.014153  0  4.023798  0
C  C27  1  0.91434642  0.12854126  0.66218202  1  0  0.113392  0  3.656491  0  0  0.075151  0  3.903294  0  0  0.082771  0  3.922271  0  0  0.061322  0.070317  0  3.89041  0
C  C28  1  0.08565488  0.87145673  0.33780476  1  0  0.113414  0  3.656519  0  0  0.075138  0  3.90343  0  0  0.082761  0  3.9224  0  0  0.061363  0.07031  0  3.890537  0
C  C29  1  0.87845774  0.28992122  0.43843491  1  0  0.101812  0  3.677999  0  0  0.065956  0  3.938797  0  0  0.073469  0  3.953944  0  0  0.074708  0.061018  0  3.92875  0
C  C30  1  0.12152328  0.71006533  0.56153788  1  0  0.10155  0  3.678353  0  0  0.06576  0  3.939039  0  0  0.073323  0  3.954214  0  0  0.074654  0.06082  0  3.928989  0
C  C31  1  0.59246222  0.70488338  0.93493124  1  0  0.686486  0  3.874812  0  0  0.641583  0  4.174503  0  0  0.674444  0  4.168981  0  0  0.198831  0.619436  0  4.177092  0
C  C32  1  0.40754588  0.29513134  0.06508142  1  0  0.686493  0  3.874502  0  0  0.641639  0  4.174135  0  0  0.674511  0  4.168618  0  0  0.198808  0.619494  0  4.17673  0
C  C33  1  0.45442108  0.52803329  0.91660074  1  0  -0.241338  0  3.681057  0  0  -0.281442  0  3.933987  0  0  -0.286641  0  3.941568  0  0  -0.171276  -0.27771  0  3.928631  0
C  C34  1  0.54557638  0.47197881  0.08340064  1  0  -0.241295  0  3.680779  0  0  -0.281303  0  3.933667  0  0  -0.286565  0  3.941296  0  0  -0.171244  -0.277575  0  3.928292  0
N  N35  1  0.86806084  0.98669943  0.71474105  1  0  -0.331817  0  3.26175  0  0  -0.252563  0  3.528346  0  0  -0.27423  0  3.548951  0  0  -0.324068  -0.238026  0  3.514452  0
N  N36  1  0.13195255  0.01330885  0.28526442  1  0  -0.331787  0  3.261875  0  0  -0.252529  0  3.528517  0  0  -0.274192  0  3.549108  0  0  -0.324107  -0.237994  0  3.514621  0
N  N37  1  0.97985772  0.43504711  0.53903738  1  0  -0.221515  0  3.044089  0  0  -0.188908  0  3.330566  0  0  -0.199636  0  3.34914  0  0  -0.217996  -0.181836  0  3.31809  0
N  N38  1  0.02011874  0.56493568  0.46093472  1  0  -0.22128  0  3.044234  0  0  -0.18867  0  3.330634  0  0  -0.1994  0  3.349198  0  0  -0.217813  -0.181596  0  3.318155  0
O  O39  1  0.77178974  0.71758372  0.92935265  1  0  -0.681267  0  1.979409  0  0  -0.613498  0  2.223968  0  0  -0.642635  0  2.21186  0  0  -0.343354  -0.59303  0  2.231505  0
O  O40  1  0.22821970  0.28243861  0.07066306  1  0  -0.681234  0  1.979314  0  0  -0.613552  0  2.223954  0  0  -0.64268  0  2.211829  0  0  -0.343374  -0.593084  0  2.2315  0
O  O41  1  0.53032188  0.83117011  0.95961907  1  0  -0.634675  0  1.970693  0  0  -0.574077  0  2.193745  0  0  -0.599702  0  2.184427  0  0  -0.318378  -0.555532  0  2.199019  0
O  O42  1  0.46966675  0.16883949  0.04038025  1  0  -0.634783  0  1.970554  0  0  -0.574175  0  2.193567  0  0  -0.599795  0  2.184246  0  0  -0.318416  -0.555631  0  2.198844  0
O  O43  1  0.21190936  0.80290616  0.03324696  1  0  -0.843772  0  1.87  0  0  -0.788176  0  2.0761  0  0  -0.809585  0  2.044801  0  0  -0.590992  -0.772733  0  2.097811  0
O  O44  1  0.78809765  0.19710210  0.96675419  1  0  -0.843877  0  1.869737  0  0  -0.788234  0  2.075862  0  0  -0.809657  0  2.044618  0  0  -0.590983  -0.772789  0  2.097578  0
