# generated using pymatgen
data_CdH10C12(NO3)2
_symmetry_space_group_name_H-M   'P 1'
_cell_length_a   8.85896655
_cell_length_b   9.68934169
_cell_length_c   16.16600000
_cell_angle_alpha   90.00000000
_cell_angle_beta   90.00000000
_cell_angle_gamma   90.00000000
_symmetry_Int_Tables_number   1
_chemical_formula_structural   CdH10C12(NO3)2
_chemical_formula_sum   'Cd4 H40 C48 N8 O24'
_cell_volume   1387.64989584
_cell_formula_units_Z   4
loop_
 _symmetry_equiv_pos_site_id
 _symmetry_equiv_pos_as_xyz
  1  'x, y, z'
loop_
 _atom_site_type_symbol
 _atom_site_label
 _atom_site_symmetry_multiplicity
 _atom_site_fract_x
 _atom_site_fract_y
 _atom_site_fract_z
 _atom_site_occupancy
 _atom_site_hle17_bader_spin_density
 _atom_site_hle17_ddec_charge
 _atom_site_hle17_ddec_spin_density
 _atom_site_hle17_ddec_sum_bond_order
 _atom_site_hle17_magmom
 _atom_site_hse06_10hf_bader_spin_density
 _atom_site_hse06_10hf_ddec_charge
 _atom_site_hse06_10hf_ddec_spin_density
 _atom_site_hse06_10hf_ddec_sum_bond_order
 _atom_site_hse06_10hf_magmom
 _atom_site_hse06_bader_spin_density
 _atom_site_hse06_ddec_charge
 _atom_site_hse06_ddec_spin_density
 _atom_site_hse06_ddec_sum_bond_order
 _atom_site_hse06_magmom
 _atom_site_pbe_bader_charge
 _atom_site_pbe_bader_spin_density
 _atom_site_pbe_cm5_charge
 _atom_site_pbe_ddec_charge
 _atom_site_pbe_ddec_spin_density
 _atom_site_pbe_ddec_sum_bond_order
 _atom_site_pbe_magmom
Cd  Cd0  1  0.13404385  0.13476767  0.18447668  1  0  1.204797  0  1.648343  0  0  1.023626  0  2.100893  0  0  1.081537  0  2.042106  0  1.324708  0  0.773178  0.982927  0  2.139839  0
Cd  Cd1  1  0.86595654  0.63476552  0.81552394  1  0  1.204785  0  1.648413  0  0  1.023585  0  2.10097  0  0  1.081502  0  2.04217  0  1.324705  0  0.773179  0.982884  0  2.139917  0
Cd  Cd2  1  0.36595691  0.63476655  0.68447668  1  0  1.204778  0  1.648413  0  0  1.023567  0  2.100987  0  0  1.081489  0  2.042177  0  1.324699  0  0.77317  0.982867  0  2.139933  0
Cd  Cd3  1  0.63404348  0.13476561  0.31552332  1  0  1.204818  0  1.648366  0  0  1.023624  0  2.10091  0  0  1.081537  0  2.042118  0  1.324659  0  0.773192  0.982923  0  2.139857  0
H  H4  1  0.21179558  0.27753175  0.92344798  1  0  0.309592  0  0.929446  0  0  0.285445  0  0.999234  0  0  0.295447  0  0.990936  0  0.533804  0  0.308673  0.278466  0  1.004978  0
H  H5  1  0.78820480  0.77753167  0.07655264  1  0  0.309603  0  0.929405  0  0  0.285416  0  0.999252  0  0  0.295418  0  0.990955  0  0.533801  0  0.308665  0.278438  0  1.004995  0
H  H6  1  0.28820405  0.77753167  0.42344736  1  0  0.309623  0  0.929404  0  0  0.285418  0  0.999268  0  0  0.29542  0  0.990972  0  0.5338  0  0.308668  0.27844  0  1.005011  0
H  H7  1  0.71179747  0.27753175  0.57655202  1  0  0.309605  0  0.929429  0  0  0.285457  0  0.999215  0  0  0.295458  0  0.990919  0  0.533815  0  0.308681  0.278478  0  1.004958  0
H  H8  1  0.25172236  0.41483210  0.27984535  1  0  0.083202  0  0.935975  0  0  0.090748  0  0.99958  0  0  0.093135  0  0.998246  0  0.075301  0  0.114874  0.088775  0  1.000734  0
H  H9  1  0.74827577  0.91483305  0.72015465  1  0  0.083199  0  0.935997  0  0  0.09074  0  0.999604  0  0  0.093124  0  0.998277  0  0.075297  0  0.114868  0.088767  0  1.000757  0
H  H10  1  0.24827727  0.91483305  0.77984535  1  0  0.083205  0  0.935979  0  0  0.090751  0  0.999583  0  0  0.093134  0  0.998258  0  0.075306  0  0.114874  0.088778  0  1.000736  0
H  H11  1  0.75172312  0.41483107  0.22015403  1  0  0.083202  0  0.935972  0  0  0.090736  0  0.999595  0  0  0.093122  0  0.998269  0  0.075284  0  0.114864  0.088764  0  1.000748  0
H  H12  1  0.22499803  0.67364742  0.27049239  1  0  0.110149  0  0.954861  0  0  0.116647  0  1.020639  0  0  0.120101  0  1.019329  0  0.08925  0  0.106965  0.11413  0  1.021657  0
H  H13  1  0.77500349  0.17364750  0.72950885  1  0  0.110169  0  0.95488  0  0  0.116664  0  1.020654  0  0  0.120119  0  1.019346  0  0.089237  0  0.106955  0.114146  0  1.021673  0
H  H14  1  0.27500273  0.17364854  0.77049054  1  0  0.110156  0  0.954908  0  0  0.116676  0  1.02065  0  0  0.12013  0  1.019341  0  0.089222  0  0.106974  0.114159  0  1.021669  0
H  H15  1  0.72499653  0.67364742  0.22950823  1  0  0.110166  0  0.954877  0  0  0.116663  0  1.020652  0  0  0.120116  0  1.019347  0  0.089219  0  0.106972  0.114146  0  1.021671  0
H  H16  1  0.96378736  0.61182382  0.04775702  1  0  0.12739  0  0.978612  0  0  0.130496  0  1.048026  0  0  0.135337  0  1.044525  0  0.170557  0  0.108927  0.126804  0  1.050968  0
H  H17  1  0.03621416  0.11182390  0.95224360  1  0  0.127404  0  0.978682  0  0  0.130499  0  1.048102  0  0  0.135341  0  1.0446  0  0.170541  0  0.108931  0.126808  0  1.051042  0
H  H18  1  0.53621379  0.11182493  0.54775640  1  0  0.127419  0  0.978657  0  0  0.130511  0  1.048083  0  0  0.135353  0  1.044582  0  0.170539  0  0.108939  0.126818  0  1.051021  0
H  H19  1  0.46378773  0.61182382  0.45224298  1  0  0.127395  0  0.978624  0  0  0.130499  0  1.048035  0  0  0.13534  0  1.044534  0  0.170561  0  0.10893  0.126806  0  1.050979  0
H  H20  1  0.00692857  0.35804393  0.06433193  1  0  0.095506  0  0.939546  0  0  0.102187  0  1.004341  0  0  0.104883  0  1.002221  0  0.117035  0  0.118363  0.099899  0  1.006296  0
H  H21  1  0.99307182  0.85804281  0.93566869  1  0  0.095514  0  0.939555  0  0  0.102197  0  1.004343  0  0  0.104893  0  1.002223  0  0.117007  0  0.11836  0.099909  0  1.006297  0
H  H22  1  0.49307331  0.85804281  0.56433131  1  0  0.095513  0  0.939522  0  0  0.102193  0  1.004323  0  0  0.104889  0  1.002201  0  0.117014  0  0.118355  0.099905  0  1.006279  0
H  H23  1  0.50692820  0.35804187  0.43566869  1  0  0.095506  0  0.93955  0  0  0.102189  0  1.004341  0  0  0.104884  0  1.002222  0  0.117011  0  0.118357  0.0999  0  1.006296  0
H  H24  1  0.40333824  0.38451942  0.84693678  1  0  0.102166  0  0.939489  0  0  0.109486  0  1.003231  0  0  0.112703  0  0.999788  0  0.178515  0  0.126804  0.107129  0  1.005667  0
H  H25  1  0.59666215  0.88451830  0.15306446  1  0  0.102221  0  0.939575  0  0  0.109533  0  1.003324  0  0  0.112749  0  0.999882  0  0.178497  0  0.126839  0.107179  0  1.005757  0
H  H26  1  0.09666252  0.88451933  0.34693554  1  0  0.10221  0  0.939591  0  0  0.109526  0  1.003333  0  0  0.112742  0  0.999893  0  0.178491  0  0.126835  0.107172  0  1.005766  0
H  H27  1  0.90333900  0.38451942  0.65306322  1  0  0.102171  0  0.939525  0  0  0.109489  0  1.003271  0  0  0.112707  0  0.999827  0  0.178512  0  0.126803  0.107132  0  1.005706  0
H  H28  1  0.66442739  0.40187147  0.90935111  1  0  0.123693  0  0.980467  0  0  0.127564  0  1.047199  0  0  0.131334  0  1.046985  0  0.155873  0  0.105676  0.124873  0  1.04759  0
H  H29  1  0.33557300  0.90187138  0.09065013  1  0  0.123675  0  0.980468  0  0  0.127541  0  1.047194  0  0  0.13131  0  1.046982  0  0.155873  0  0.105666  0.12485  0  1.047584  0
H  H30  1  0.83557263  0.90187242  0.40934987  1  0  0.123667  0  0.980471  0  0  0.127526  0  1.047213  0  0  0.131297  0  1.046997  0  0.155853  0  0.105655  0.124835  0  1.047604  0
H  H31  1  0.16442776  0.40187147  0.59064951  1  0  0.123696  0  0.980433  0  0  0.127563  0  1.047176  0  0  0.131333  0  1.04696  0  0.155863  0  0.105669  0.124871  0  1.047568  0
H  H32  1  0.70497726  0.29966432  0.05038785  1  0  0.105182  0  0.93766  0  0  0.11822  0  0.994225  0  0  0.121462  0  0.99012  0  0.109223  0  0.112981  0.115671  0  0.997401  0
H  H33  1  0.29502200  0.79966527  0.94961339  1  0  0.105189  0  0.937677  0  0  0.1182  0  0.994266  0  0  0.121454  0  0.990137  0  0.10923  0  0.11299  0.115622  0  0.997476  0
H  H34  1  0.79502276  0.79966423  0.55038723  1  0  0.1052  0  0.937681  0  0  0.118228  0  0.994251  0  0  0.121469  0  0.990146  0  0.109233  0  0.113  0.115665  0  0.997444  0
H  H35  1  0.20497763  0.29966329  0.44961215  1  0  0.105189  0  0.937663  0  0  0.118215  0  0.994233  0  0  0.12146  0  0.990117  0  0.109225  0  0.112973  0.115637  0  0.997443  0
H  H36  1  0.81699033  0.14322335  0.13187802  1  0  0.42164  0  0.885123  0  0  0.389783  0  0.950684  0  0  0.401032  0  0.9344  0  0.660435  0  0.283253  0.381766  0  0.962258  0
H  H37  1  0.18300780  0.64322430  0.86812322  1  0  0.421539  0  0.885258  0  0  0.389659  0  0.950855  0  0  0.400908  0  0.934571  0  0.660596  0  0.283201  0.381643  0  0.962428  0
H  H38  1  0.68300856  0.64322430  0.63187678  1  0  0.421628  0  0.885149  0  0  0.389759  0  0.950725  0  0  0.401009  0  0.93444  0  0.660612  0  0.283238  0.381743  0  0.962298  0
H  H39  1  0.31699070  0.14322335  0.36812198  1  0  0.4216  0  0.885175  0  0  0.389742  0  0.950742  0  0  0.400991  0  0.934458  0  0.66044  0  0.283232  0.381725  0  0.962315  0
H  H40  1  0.91982399  0.02194886  0.09745515  1  0  0.408458  0  0.90448  0  0  0.376825  0  0.969256  0  0  0.388485  0  0.952502  0  0.616835  0  0.28067  0.368412  0  0.981291  0
H  H41  1  0.08017527  0.52195084  0.90254608  1  0  0.408493  0  0.904422  0  0  0.376851  0  0.969215  0  0  0.38851  0  0.952462  0  0.616842  0  0.280676  0.368437  0  0.98125  0
H  H42  1  0.58017603  0.52195084  0.59745392  1  0  0.408503  0  0.90441  0  0  0.376864  0  0.969196  0  0  0.388522  0  0.952444  0  0.616835  0  0.280673  0.368451  0  0.981231  0
H  H43  1  0.41982436  0.02194886  0.40254485  1  0  0.408462  0  0.904475  0  0  0.376813  0  0.969271  0  0  0.388473  0  0.952518  0  0.616829  0  0.280664  0.3684  0  0.981306  0
C  C44  1  0.18898028  0.46367650  0.22966597  1  0  0.121617  0  3.7183  0  0  0.093808  0  3.9694  0  0  0.099511  0  3.988487  0  0.48819  0  0.043139  0.090193  0  3.956211  0
C  C45  1  0.81102124  0.96367434  0.77033403  1  0  0.121673  0  3.71833  0  0  0.093873  0  3.969423  0  0  0.099575  0  3.988509  0  0.488202  0  0.043154  0.090257  0  3.956234  0
C  C46  1  0.31102048  0.96367538  0.72966535  1  0  0.121621  0  3.718303  0  0  0.093811  0  3.969411  0  0  0.099512  0  3.988499  0  0.488221  0  0.043133  0.090195  0  3.956223  0
C  C47  1  0.68897991  0.46367443  0.27033403  1  0  0.121646  0  3.718284  0  0  0.09384  0  3.969373  0  0  0.09954  0  3.988462  0  0.488216  0  0.043156  0.090224  0  3.956184  0
C  C48  1  0.17266009  0.60630228  0.22484597  1  0  -0.126259  0  3.724439  0  0  -0.146819  0  3.969324  0  0  -0.152136  0  3.990859  0  0.012825  0  -0.079857  -0.143329  0  3.954769  0
C  C49  1  0.82734255  0.10630134  0.77515465  1  0  -0.126427  0  3.724406  0  0  -0.14698  0  3.969299  0  0  -0.152301  0  3.990832  0  0.01277  0  -0.079868  -0.143489  0  3.954744  0
C  C50  1  0.32734066  0.10630340  0.72484535  1  0  -0.1264  0  3.724368  0  0  -0.146972  0  3.969263  0  0  -0.15229  0  3.990799  0  0.012753  0  -0.079894  -0.143481  0  3.954709  0
C  C51  1  0.67265860  0.60630228  0.27515403  1  0  -0.126338  0  3.724442  0  0  -0.146888  0  3.969329  0  0  -0.152207  0  3.990865  0  0.012745  0  -0.079858  -0.143397  0  3.954773  0
C  C52  1  0.08708465  0.66231847  0.16028455  1  0  -0.014262  0  3.73311  0  0  0.005183  0  3.964094  0  0  0.001825  0  3.985917  0  -0.010075  0  0.002241  0.007412  0  3.949018  0
C  C53  1  0.91291687  0.16231959  0.83971669  1  0  -0.01404  0  3.73288  0  0  0.005358  0  3.963895  0  0  0.002003  0  3.985716  0  -0.010043  0  0.002273  0.007584  0  3.948819  0
C  C54  1  0.41291611  0.16231959  0.66028269  1  0  -0.014029  0  3.73284  0  0  0.005372  0  3.963859  0  0  0.002018  0  3.985681  0  -0.010035  0  0.002272  0.007599  0  3.948784  0
C  C55  1  0.58708428  0.66231847  0.33971607  1  0  -0.014154  0  3.733072  0  0  0.005246  0  3.964085  0  0  0.001891  0  3.985907  0  -0.010013  0  0.002216  0.007474  0  3.949008  0
C  C56  1  0.02694784  0.57304512  0.10076086  1  0  -0.122574  0  3.684377  0  0  -0.143294  0  3.929651  0  0  -0.148299  0  3.949039  0  -0.087382  0  -0.079397  -0.140501  0  3.917553  0
C  C57  1  0.97305255  0.07304521  0.89923976  1  0  -0.122578  0  3.684378  0  0  -0.143278  0  3.92965  0  0  -0.148286  0  3.949039  0  -0.08737  0  -0.079366  -0.140486  0  3.91755  0
C  C58  1  0.47305292  0.07304521  0.60076024  1  0  -0.122639  0  3.684395  0  0  -0.143336  0  3.92967  0  0  -0.148343  0  3.949061  0  -0.087388  0  -0.07939  -0.14054  0  3.917571  0
C  C59  1  0.52694747  0.57304409  0.39923914  1  0  -0.122553  0  3.684378  0  0  -0.143262  0  3.92965  0  0  -0.148268  0  3.94904  0  -0.087357  0  -0.07936  -0.14047  0  3.917552  0
C  C60  1  0.05061087  0.43183016  0.10941668  1  0  0.125569  0  3.68608  0  0  0.098472  0  3.93623  0  0  0.104083  0  3.955059  0  0.482588  0  0.045149  0.094614  0  3.923767  0
C  C61  1  0.94938952  0.93182904  0.89058394  1  0  0.125522  0  3.686042  0  0  0.098429  0  3.936184  0  0  0.104039  0  3.955014  0  0.482556  0  0.04514  0.094573  0  3.923719  0
C  C62  1  0.44938989  0.93183008  0.60941668  1  0  0.125542  0  3.686026  0  0  0.098439  0  3.936176  0  0  0.10405  0  3.955007  0  0.482607  0  0.045147  0.094581  0  3.923713  0
C  C63  1  0.55061050  0.43182810  0.39058332  1  0  0.125546  0  3.686145  0  0  0.098446  0  3.936286  0  0  0.104058  0  3.955116  0  0.482557  0  0.04514  0.094591  0  3.923821  0
C  C64  1  0.05874726  0.81569215  0.15402388  1  0  0.650993  0  3.898663  0  0  0.599016  0  4.193384  0  0  0.633174  0  4.18567  0  1.606991  0  0.216875  0.576338  0  4.196529  0
C  C65  1  0.94123959  0.31569843  0.84597550  1  0  0.650886  0  3.89868  0  0  0.598933  0  4.193359  0  0  0.633089  0  4.185648  0  1.607138  0  0.216844  0.576257  0  4.196502  0
C  C66  1  0.44123995  0.31569843  0.65402450  1  0  0.650871  0  3.898721  0  0  0.598909  0  4.193414  0  0  0.633064  0  4.185706  0  1.607158  0  0.216836  0.576233  0  4.196558  0
C  C67  1  0.55876043  0.81569628  0.34597489  1  0  0.65091  0  3.898785  0  0  0.59896  0  4.193451  0  0  0.633118  0  4.18574  0  1.607096  0  0.216872  0.576284  0  4.196594  0
C  C68  1  0.43329095  0.33866800  0.90636274  1  0  0.16982  0  3.658337  0  0  0.128069  0  3.915783  0  0  0.141145  0  3.929651  0  0.286478  0  0.058601  0.119848  0  3.906464  0
C  C69  1  0.56670944  0.83866792  0.09363788  1  0  0.169702  0  3.658439  0  0  0.127941  0  3.915887  0  0  0.141017  0  3.929754  0  0.286489  0  0.058558  0.119716  0  3.906571  0
C  C70  1  0.06670981  0.83866895  0.40636212  1  0  0.169723  0  3.658411  0  0  0.127965  0  3.915853  0  0  0.14104  0  3.929721  0  0.286502  0  0.058571  0.11974  0  3.906538  0
C  C71  1  0.93329058  0.33866904  0.59363726  1  0  0.16976  0  3.658367  0  0  0.128008  0  3.915807  0  0  0.141082  0  3.929678  0  0.286472  0  0.058574  0.119787  0  3.906487  0
C  C72  1  0.57464942  0.34746427  0.94125820  1  0  -0.173557  0  3.761369  0  0  -0.190523  0  4.029388  0  0  -0.203997  0  4.051468  0  0.117465  0  -0.108956  -0.182156  0  4.015068  0
C  C73  1  0.42535097  0.84746418  0.05874304  1  0  -0.173508  0  3.761291  0  0  -0.190439  0  4.029265  0  0  -0.203912  0  4.051345  0  0.117735  0  -0.108941  -0.182071  0  4.014938  0
C  C74  1  0.92535060  0.84746521  0.44125696  1  0  -0.173539  0  3.761359  0  0  -0.190474  0  4.029342  0  0  -0.203947  0  4.051421  0  0.117734  0  -0.108953  -0.182105  0  4.015017  0
C  C75  1  0.07464979  0.34746427  0.55874242  1  0  -0.173551  0  3.761376  0  0  -0.190517  0  4.029382  0  0  -0.203989  0  4.051463  0  0.117467  0  -0.108968  -0.182148  0  4.01505  0
C  C76  1  0.59559769  0.29011156  0.02010887  1  0  0.039949  0  3.695452  0  0  0.007484  0  3.944641  0  0  0.020963  0  3.957238  0  -0.07443  0  -0.058204  -0.00086  0  3.9359  0
C  C77  1  0.40440270  0.79011147  0.97989175  1  0  0.039906  0  3.695448  0  0  0.007486  0  3.944625  0  0  0.020959  0  3.957215  0  -0.074693  0  -0.058226  -0.000837  0  3.935891  0
C  C78  1  0.90440233  0.79011147  0.52010763  1  0  0.039939  0  3.695488  0  0  0.007481  0  3.944632  0  0  0.020959  0  3.957232  0  -0.074688  0  -0.058222  -0.000852  0  3.935895  0
C  C79  1  0.09559919  0.29010846  0.47989237  1  0  0.03992  0  3.695432  0  0  0.007504  0  3.944631  0  0  0.020984  0  3.957221  0  -0.074424  0  -0.058156  -0.000819  0  3.935899  0
C  C80  1  0.48090598  0.22166109  0.06226401  1  0  -0.259829  0  3.714592  0  0  -0.238137  0  3.962742  0  0  -0.258858  0  3.985051  0  -0.021256  0  -0.033904  -0.224969  0  3.948205  0
C  C81  1  0.51909328  0.72166203  0.93773599  1  0  -0.259787  0  3.714481  0  0  -0.238142  0  3.962719  0  0  -0.258865  0  3.985033  0  -0.021237  0  -0.033892  -0.224973  0  3.948174  0
C  C82  1  0.01909365  0.72166100  0.56226339  1  0  -0.259847  0  3.714585  0  0  -0.238121  0  3.962729  0  0  -0.258841  0  3.98504  0  -0.021235  0  -0.033902  -0.224954  0  3.94819  0
C  C83  1  0.98090674  0.22166005  0.43773599  1  0  -0.259726  0  3.714463  0  0  -0.238126  0  3.962734  0  0  -0.258846  0  3.985044  0  -0.021241  0  -0.033926  -0.224957  0  3.94819  0
C  C84  1  0.33667697  0.20418518  0.02211184  1  0  0.53953  0  3.830544  0  0  0.491846  0  4.10864  0  0  0.520308  0  4.114139  0  1.279728  0  0.223801  0.473042  0  4.103975  0
C  C85  1  0.66332455  0.70418510  0.97788878  1  0  0.539535  0  3.830452  0  0  0.49178  0  4.10868  0  0  0.520243  0  4.114182  0  1.279754  0  0.223761  0.472976  0  4.104016  0
C  C86  1  0.16332379  0.70418510  0.52211122  1  0  0.539582  0  3.830469  0  0  0.491812  0  4.108671  0  0  0.520273  0  4.114174  0  1.279732  0  0.223777  0.473009  0  4.104006  0
C  C87  1  0.83667660  0.20418518  0.47788878  1  0  0.53949  0  3.830507  0  0  0.491791  0  4.108663  0  0  0.520252  0  4.114165  0  1.279732  0  0.22377  0.472988  0  4.103999  0
C  C88  1  0.50813941  0.17328628  0.14858468  1  0  0.672074  0  3.916141  0  0  0.615573  0  4.215069  0  0  0.651974  0  4.208959  0  1.542927  0  0.203506  0.590736  0  4.219038  0
C  C89  1  0.49186098  0.67328620  0.85141532  1  0  0.672068  0  3.916156  0  0  0.615591  0  4.215076  0  0  0.651991  0  4.20897  0  1.542926  0  0.203499  0.590756  0  4.219044  0
C  C90  1  0.99186061  0.67328620  0.64858468  1  0  0.672048  0  3.916207  0  0  0.615546  0  4.215125  0  0  0.651946  0  4.209018  0  1.542927  0  0.203484  0.590711  0  4.219093  0
C  C91  1  0.00813978  0.17328525  0.35141532  1  0  0.672024  0  3.916238  0  0  0.615567  0  4.215141  0  0  0.651968  0  4.209034  0  1.542867  0  0.203548  0.590731  0  4.219111  0
N  N92  1  0.12766952  0.37787190  0.17344674  1  0  -0.339193  0  3.256554  0  0  -0.266851  0  3.521861  0  0  -0.285678  0  3.541266  0  -1.23307  0  -0.326868  -0.253697  0  3.507498  0
N  N93  1  0.87232861  0.87787079  0.82655326  1  0  -0.339197  0  3.256576  0  0  -0.266864  0  3.521895  0  0  -0.285691  0  3.5413  0  -1.233053  0  -0.326896  -0.253711  0  3.507532  0
N  N94  1  0.37233011  0.87787079  0.67344674  1  0  -0.339151  0  3.256562  0  0  -0.266802  0  3.521868  0  0  -0.28563  0  3.541277  0  -1.233094  0  -0.326866  -0.253649  0  3.507506  0
N  N95  1  0.62767028  0.37786984  0.32655326  1  0  -0.339216  0  3.256658  0  0  -0.266865  0  3.52196  0  0  -0.285693  0  3.541366  0  -1.233067  0  -0.326887  -0.253712  0  3.507597  0
N  N96  1  0.32188292  0.27083574  0.94630830  1  0  -0.357745  0  3.369276  0  0  -0.287195  0  3.598418  0  0  -0.30845  0  3.607835  0  -1.292483  0  -0.370069  -0.273099  0  3.591564  0
N  N97  1  0.67811634  0.77083565  0.05369170  1  0  -0.35771  0  3.369265  0  0  -0.287093  0  3.598442  0  0  -0.308351  0  3.607866  0  -1.292526  0  -0.370038  -0.272997  0  3.591589  0
N  N98  1  0.17811784  0.77083565  0.44630830  1  0  -0.357706  0  3.369202  0  0  -0.287092  0  3.598405  0  0  -0.308345  0  3.607822  0  -1.292519  0  -0.370046  -0.272996  0  3.591552  0
N  N99  1  0.82188368  0.27083677  0.55369108  1  0  -0.357704  0  3.369265  0  0  -0.287131  0  3.598399  0  0  -0.308389  0  3.607826  0  -1.292505  0  -0.370052  -0.273035  0  3.591544  0
O  O100  1  0.91447800  0.12477215  0.10330570  1  0  -0.84699  0  1.874927  0  0  -0.789404  0  2.073889  0  0  -0.813042  0  2.03925  0  -1.256132  0  -0.595687  -0.772879  0  2.098373  0
O  O101  1  0.08551900  0.62477310  0.89669368  1  0  -0.84689  0  1.874987  0  0  -0.789281  0  2.073977  0  0  -0.812921  0  2.03934  0  -1.256304  0  -0.595639  -0.772754  0  2.098455  0
O  O102  1  0.58551976  0.62477206  0.60330632  1  0  -0.846994  0  1.874926  0  0  -0.789396  0  2.073923  0  0  -0.813037  0  2.039284  0  -1.25631  0  -0.595674  -0.772871  0  2.098406  0
O  O103  1  0.41447837  0.12477009  0.39669430  1  0  -0.84693  0  1.874965  0  0  -0.78933  0  2.073942  0  0  -0.81297  0  2.039302  0  -1.256131  0  -0.595654  -0.772802  0  2.098422  0
O  O104  1  0.14041367  0.89495554  0.19779908  1  0  -0.627922  0  1.988263  0  0  -0.564775  0  2.235958  0  0  -0.592345  0  2.222904  0  -1.170623  0  -0.31629  -0.545379  0  2.243259  0
O  O105  1  0.85958672  0.39495769  0.80220092  1  0  -0.627733  0  1.98848  0  0  -0.564555  0  2.236113  0  0  -0.592121  0  2.223061  0  -1.170781  0  -0.3162  -0.545161  0  2.243413  0
O  O106  1  0.35958709  0.39495872  0.69779847  1  0  -0.627743  0  1.988504  0  0  -0.564562  0  2.236147  0  0  -0.59213  0  2.223096  0  -1.170789  0  -0.316204  -0.545167  0  2.243446  0
O  O107  1  0.64041330  0.89495657  0.30220092  1  0  -0.627748  0  1.988534  0  0  -0.564578  0  2.236175  0  0  -0.592145  0  2.223122  0  -1.170723  0  -0.316218  -0.545185  0  2.243476  0
O  O108  1  0.95538683  0.85383097  0.10424409  1  0  -0.62144  0  2.014573  0  0  -0.558966  0  2.230204  0  0  -0.584921  0  2.220272  0  -1.191496  0  -0.302995  -0.540313  0  2.236005  0
O  O109  1  0.04461356  0.35383106  0.89575591  1  0  -0.621634  0  2.014427  0  0  -0.559159  0  2.230016  0  0  -0.585118  0  2.220087  0  -1.191403  0  -0.303069  -0.540505  0  2.235816  0
O  O110  1  0.54461319  0.35383106  0.60424347  1  0  -0.621608  0  2.01447  0  0  -0.559132  0  2.23006  0  0  -0.585087  0  2.22013  0  -1.191415  0  -0.303054  -0.540477  0  2.235859  0
O  O111  1  0.45538720  0.85382994  0.39575591  1  0  -0.621634  0  2.014461  0  0  -0.559137  0  2.230046  0  0  -0.5851  0  2.22012  0  -1.191386  0  -0.303068  -0.540483  0  2.235845  0
O  O112  1  0.22432752  0.13557165  0.04700297  1  0  -0.606037  0  2.036728  0  0  -0.547231  0  2.287219  0  0  -0.573739  0  2.278768  0  -1.164209  0  -0.317324  -0.528277  0  2.291962  0
O  O113  1  0.77567174  0.63557259  0.95299703  1  0  -0.606084  0  2.036776  0  0  -0.547247  0  2.287318  0  0  -0.573749  0  2.278855  0  -1.164225  0  -0.317317  -0.528289  0  2.29206  0
O  O114  1  0.27567211  0.63557259  0.54700297  1  0  -0.606099  0  2.036747  0  0  -0.547264  0  2.287293  0  0  -0.573764  0  2.278824  0  -1.164208  0  -0.317318  -0.528305  0  2.292033  0
O  O115  1  0.72432828  0.13557268  0.45299703  1  0  -0.606067  0  2.036756  0  0  -0.547249  0  2.287279  0  0  -0.573752  0  2.278819  0  -1.164201  0  -0.317319  -0.528292  0  2.29202  0
O  O116  1  0.40100388  0.13962455  0.19644192  1  0  -0.645629  0  2.011263  0  0  -0.582066  0  2.268278  0  0  -0.610533  0  2.255216  0  -1.169672  0  -0.321089  -0.562176  0  2.276535  0
O  O117  1  0.59899538  0.63962550  0.80355808  1  0  -0.645631  0  2.011305  0  0  -0.582068  0  2.268316  0  0  -0.610537  0  2.255255  0  -1.169671  0  -0.32108  -0.562178  0  2.276573  0
O  O118  1  0.09899575  0.63962550  0.69644130  1  0  -0.645611  0  2.011301  0  0  -0.582047  0  2.268319  0  0  -0.610516  0  2.255259  0  -1.169665  0  -0.321079  -0.562157  0  2.276576  0
O  O119  1  0.90100464  0.13962558  0.30355808  1  0  -0.64566  0  2.011344  0  0  -0.582097  0  2.268344  0  0  -0.610564  0  2.255282  0  -1.169609  0  -0.321123  -0.562206  0  2.276601  0
O  O120  1  0.64598844  0.17187545  0.17413460  1  0  -0.669884  0  2.061422  0  0  -0.595202  0  2.307195  0  0  -0.626423  0  2.295974  0  -1.177902  0  -0.323029  -0.573387  0  2.314219  0
O  O121  1  0.35401195  0.67187640  0.82586478  1  0  -0.669865  0  2.06141  0  0  -0.595173  0  2.307174  0  0  -0.626396  0  2.295956  0  -1.17789  0  -0.323019  -0.573356  0  2.314193  0
O  O122  1  0.85401271  0.67187640  0.67413460  1  0  -0.669881  0  2.061462  0  0  -0.595196  0  2.307235  0  0  -0.626417  0  2.296016  0  -1.177888  0  -0.32302  -0.57338  0  2.314256  0
O  O123  1  0.14598881  0.17187649  0.32586478  1  0  -0.669809  0  2.061423  0  0  -0.595148  0  2.307198  0  0  -0.626371  0  2.295978  0  -1.177911  0  -0.323014  -0.573332  0  2.314218  0
