# generated using pymatgen
data_CdH8C5O6
_symmetry_space_group_name_H-M   'P 1'
_cell_length_a   7.09889895
_cell_length_b   7.28496132
_cell_length_c   16.25313348
_cell_angle_alpha   90.00010232
_cell_angle_beta   89.99995912
_cell_angle_gamma   114.48321911
_symmetry_Int_Tables_number   1
_chemical_formula_structural   CdH8C5O6
_chemical_formula_sum   'Cd4 H32 C20 O24'
_cell_volume   764.95554942
_cell_formula_units_Z   4
loop_
 _symmetry_equiv_pos_site_id
 _symmetry_equiv_pos_as_xyz
  1  'x, y, z'
loop_
 _atom_site_type_symbol
 _atom_site_label
 _atom_site_symmetry_multiplicity
 _atom_site_fract_x
 _atom_site_fract_y
 _atom_site_fract_z
 _atom_site_occupancy
 _atom_site_hle17_bader_spin_density
 _atom_site_hle17_ddec_charge
 _atom_site_hle17_ddec_spin_density
 _atom_site_hle17_ddec_sum_bond_order
 _atom_site_hle17_magmom
 _atom_site_hse06_10hf_bader_spin_density
 _atom_site_hse06_10hf_ddec_charge
 _atom_site_hse06_10hf_ddec_spin_density
 _atom_site_hse06_10hf_ddec_sum_bond_order
 _atom_site_hse06_10hf_magmom
 _atom_site_hse06_bader_spin_density
 _atom_site_hse06_ddec_charge
 _atom_site_hse06_ddec_spin_density
 _atom_site_hse06_ddec_sum_bond_order
 _atom_site_hse06_magmom
 _atom_site_pbe_bader_spin_density
 _atom_site_pbe_cm5_charge
 _atom_site_pbe_ddec_charge
 _atom_site_pbe_ddec_spin_density
 _atom_site_pbe_ddec_sum_bond_order
 _atom_site_pbe_magmom
Cd  Cd0  1  0.04935943  0.48229444  0.30615161  1  0  1.292412  0  1.528848  0  0  1.115853  0  1.96645  0  0  1.175511  0  1.905389  0  0  0.783719  1.072727  0  2.008812  0
Cd  Cd1  1  0.45063941  0.01770635  0.80615156  1  0  1.292416  0  1.528846  0  0  1.115859  0  1.966445  0  0  1.175516  0  1.905382  0  0  0.783721  1.072734  0  2.008809  0
Cd  Cd2  1  0.95063661  0.51770759  0.69384842  1  0  1.292423  0  1.528827  0  0  1.115865  0  1.966432  0  0  1.175525  0  1.905368  0  0  0.783728  1.072741  0  2.008795  0
Cd  Cd3  1  0.54936043  0.98229124  0.19384846  1  0  1.2924  0  1.528864  0  0  1.115849  0  1.966481  0  0  1.175511  0  1.905416  0  0  0.783719  1.072721  0  2.008845  0
H  H4  1  0.02964524  0.85151937  0.40421531  1  0  0.121614  0  0.949428  0  0  0.135296  0  1.014176  0  0  0.136764  0  1.01447  0  0  0.109417  0.134227  0  1.014139  0
H  H5  1  0.47035486  0.64848266  0.90421475  1  0  0.121576  0  0.949434  0  0  0.135269  0  1.014193  0  0  0.136739  0  1.014484  0  0  0.109404  0.134198  0  1.014155  0
H  H6  1  0.97035301  0.14848119  0.59578287  1  0  0.121644  0  0.949461  0  0  0.135352  0  1.014178  0  0  0.136824  0  1.014466  0  0  0.109418  0.134275  0  1.014136  0
H  H7  1  0.52964764  0.35151796  0.09578405  1  0  0.121608  0  0.949473  0  0  0.135302  0  1.014212  0  0  0.136771  0  1.014501  0  0  0.109399  0.134233  0  1.014176  0
H  H8  1  0.22829057  0.81867250  0.45776063  1  0  0.128866  0  0.923669  0  0  0.145893  0  0.980222  0  0  0.148235  0  0.979205  0  0  0.111076  0.144137  0  0.981243  0
H  H9  1  0.27171033  0.68132826  0.95776139  1  0  0.128838  0  0.923656  0  0  0.145867  0  0.980213  0  0  0.148215  0  0.979187  0  0  0.111072  0.144107  0  0.981234  0
H  H10  1  0.77170785  0.18132506  0.54223878  1  0  0.128868  0  0.923679  0  0  0.145889  0  0.980233  0  0  0.14823  0  0.979216  0  0  0.111062  0.144128  0  0.981247  0
H  H11  1  0.72828952  0.31866933  0.04223987  1  0  0.12886  0  0.923648  0  0  0.145884  0  0.980206  0  0  0.148224  0  0.979189  0  0  0.111066  0.144128  0  0.98123  0
H  H12  1  0.39049439  0.04715452  0.56554567  1  0  0.122256  0  0.961553  0  0  0.13798  0  1.020661  0  0  0.140164  0  1.020102  0  0  0.098428  0.136367  0  1.021181  0
H  H13  1  0.10950913  0.45284984  0.06554629  1  0  0.122302  0  0.961664  0  0  0.138035  0  1.020729  0  0  0.140221  0  1.020167  0  0  0.09846  0.13642  0  1.021249  0
H  H14  1  0.60950652  0.95284908  0.43445312  1  0  0.122272  0  0.961584  0  0  0.138012  0  1.020654  0  0  0.140198  0  1.020092  0  0  0.098441  0.136395  0  1.021172  0
H  H15  1  0.89049372  0.54714479  0.93445373  1  0  0.122288  0  0.96162  0  0  0.138027  0  1.020687  0  0  0.140213  0  1.020127  0  0  0.098447  0.136411  0  1.021211  0
H  H16  1  0.38082867  0.29751246  0.57308401  1  0  0.142805  0  0.966514  0  0  0.151999  0  1.0323  0  0  0.156263  0  1.028434  0  0  0.102996  0.148873  0  1.035212  0
H  H17  1  0.11916998  0.20249036  0.07308381  1  0  0.142839  0  0.966514  0  0  0.152044  0  1.032284  0  0  0.156308  0  1.028417  0  0  0.103  0.148919  0  1.035197  0
H  H18  1  0.61916958  0.70248810  0.42691355  1  0  0.142827  0  0.966456  0  0  0.152011  0  1.032256  0  0  0.156273  0  1.028392  0  0  0.103007  0.148886  0  1.035166  0
H  H19  1  0.88083412  0.79750729  0.92691375  1  0  0.142882  0  0.966422  0  0  0.152094  0  1.032187  0  0  0.156358  0  1.028321  0  0  0.103033  0.148968  0  1.035099  0
H  H20  1  0.64141368  0.34652521  0.36741165  1  0  0.431793  0  0.863872  0  0  0.398638  0  0.930549  0  0  0.409464  0  0.914932  0  0  0.291125  0.390964  0  0.941605  0
H  H21  1  0.85858638  0.15347356  0.86741113  1  0  0.431815  0  0.863845  0  0  0.398662  0  0.93052  0  0  0.409487  0  0.914903  0  0  0.291128  0.390986  0  0.941576  0
H  H22  1  0.35858661  0.65347688  0.63259083  1  0  0.431797  0  0.863873  0  0  0.398642  0  0.93055  0  0  0.409469  0  0.914931  0  0  0.291116  0.390967  0  0.941606  0
H  H23  1  0.14141488  0.84652405  0.13259013  1  0  0.431812  0  0.863847  0  0  0.398657  0  0.930523  0  0  0.409484  0  0.914904  0  0  0.29113  0.390981  0  0.94158  0
H  H24  1  0.77197301  0.49392129  0.44114516  1  0  0.4354  0  0.8656  0  0  0.40368  0  0.930605  0  0  0.414827  0  0.914594  0  0  0.289118  0.395761  0  0.94196  0
H  H25  1  0.72802705  0.00607778  0.94114395  1  0  0.435437  0  0.865546  0  0  0.403716  0  0.930552  0  0  0.414863  0  0.91454  0  0  0.289129  0.395798  0  0.941907  0
H  H26  1  0.22802586  0.50608078  0.55885732  1  0  0.435423  0  0.865574  0  0  0.403698  0  0.930583  0  0  0.414845  0  0.914577  0  0  0.289129  0.395778  0  0.941939  0
H  H27  1  0.27197279  0.99391981  0.05885669  1  0  0.435411  0  0.865585  0  0  0.403685  0  0.930597  0  0  0.414832  0  0.91459  0  0  0.289117  0.395766  0  0.941952  0
H  H28  1  0.39754346  0.50346008  0.19382307  1  0  0.436818  0  0.862435  0  0  0.40486  0  0.926885  0  0  0.415864  0  0.910907  0  0  0.29205  0.397045  0  0.938205  0
H  H29  1  0.10245662  0.99654108  0.69382351  1  0  0.436843  0  0.862404  0  0  0.404878  0  0.926864  0  0  0.415881  0  0.910888  0  0  0.292054  0.397063  0  0.938183  0
H  H30  1  0.60245497  0.49653748  0.80617696  1  0  0.436866  0  0.86238  0  0  0.404899  0  0.92684  0  0  0.415903  0  0.910862  0  0  0.292063  0.397084  0  0.938159  0
H  H31  1  0.89754145  0.00346247  0.30617775  1  0  0.436815  0  0.862443  0  0  0.404841  0  0.926919  0  0  0.415845  0  0.910941  0  0  0.292043  0.397026  0  0.938238  0
H  H32  1  0.33868135  0.31842674  0.25682686  1  0  0.429439  0  0.853223  0  0  0.399404  0  0.918927  0  0  0.409015  0  0.90495  0  0  0.297897  0.392562  0  0.928886  0
H  H33  1  0.16132032  0.18157388  0.75682703  1  0  0.429445  0  0.853215  0  0  0.399414  0  0.918912  0  0  0.409025  0  0.904936  0  0  0.297899  0.392572  0  0.92887  0
H  H34  1  0.66131690  0.68157382  0.74317440  1  0  0.429425  0  0.853237  0  0  0.399396  0  0.918933  0  0  0.409006  0  0.904959  0  0  0.297884  0.392554  0  0.928891  0
H  H35  1  0.83868281  0.81842825  0.24317484  1  0  0.429474  0  0.853194  0  0  0.399435  0  0.918888  0  0  0.409046  0  0.904913  0  0  0.297904  0.392592  0  0.928848  0
C  C36  1  0.31610332  0.95994351  0.34130251  1  0  0.721749  0  3.813711  0  0  0.669446  0  4.111817  0  0  0.704127  0  4.105057  0  0  0.215788  0.645856  0  4.115512  0
C  C37  1  0.18389739  0.54005977  0.84130257  1  0  0.721787  0  3.81369  0  0  0.669495  0  4.111786  0  0  0.704173  0  4.105024  0  0  0.215844  0.645903  0  4.115481  0
C  C38  1  0.68389635  0.04005707  0.65869751  1  0  0.721787  0  3.813697  0  0  0.669448  0  4.111848  0  0  0.704129  0  4.105086  0  0  0.215791  0.645852  0  4.115542  0
C  C39  1  0.81610369  0.45994083  0.15869807  1  0  0.721731  0  3.813784  0  0  0.669377  0  4.111964  0  0  0.704056  0  4.105201  0  0  0.215767  0.645791  0  4.115662  0
C  C40  1  0.19456089  0.92762259  0.42060108  1  0  -0.320343  0  3.744906  0  0  -0.366402  0  3.983389  0  0  -0.372142  0  3.993636  0  0  -0.167655  -0.362524  0  3.976755  0
C  C41  1  0.30543921  0.57237951  0.92060112  1  0  -0.320185  0  3.744824  0  0  -0.366285  0  3.983344  0  0  -0.372035  0  3.99361  0  0  -0.16761  -0.362394  0  3.976699  0
C  C42  1  0.80543594  0.07237795  0.57939895  1  0  -0.320456  0  3.74484  0  0  -0.366529  0  3.983362  0  0  -0.372279  0  3.993632  0  0  -0.167692  -0.362617  0  3.976692  0
C  C43  1  0.69456454  0.42762413  0.07939952  1  0  -0.320387  0  3.744849  0  0  -0.366433  0  3.983362  0  0  -0.372171  0  3.99362  0  0  -0.167634  -0.36256  0  3.976736  0
C  C44  1  0.34346679  0.15868568  0.53883334  1  0  -0.198662  0  3.51209  0  0  -0.261756  0  3.75404  0  0  -0.259378  0  3.765703  0  0  -0.151592  -0.263032  0  3.746257  0
C  C45  1  0.15653265  0.34131551  0.03883385  1  0  -0.198811  0  3.512231  0  0  -0.261901  0  3.75414  0  0  -0.259529  0  3.76582  0  0  -0.15166  -0.263172  0  3.746354  0
C  C46  1  0.65653430  0.84131492  0.46116669  1  0  -0.198758  0  3.512235  0  0  -0.261836  0  3.754194  0  0  -0.259461  0  3.765862  0  0  -0.151646  -0.263102  0  3.746407  0
C  C47  1  0.84346311  0.65867901  0.96116925  1  0  -0.19892  0  3.512451  0  0  -0.262001  0  3.754367  0  0  -0.259628  0  3.766038  0  0  -0.151683  -0.263269  0  3.746583  0
C  C48  1  0.23902938  0.11845422  0.46763353  1  0  -0.006896  0  3.769339  0  0  0.023735  0  4.007159  0  0  0.014646  0  4.032267  0  0  -0.02879  0.029494  0  3.990411  0
C  C49  1  0.26097009  0.38154873  0.96763321  1  0  -0.006879  0  3.76936  0  0  0.023749  0  4.007182  0  0  0.014659  0  4.032286  0  0  -0.028771  0.029504  0  3.990437  0
C  C50  1  0.76096462  0.88154627  0.53236342  1  0  -0.006744  0  3.769327  0  0  0.02387  0  4.007163  0  0  0.014782  0  4.032267  0  0  -0.028687  0.029619  0  3.990413  0
C  C51  1  0.73904154  0.61845353  0.03236312  1  0  -0.00663  0  3.769374  0  0  0.023973  0  4.007232  0  0  0.014885  0  4.032334  0  0  -0.028695  0.029734  0  3.99048  0
C  C52  1  0.16453705  0.26366371  0.42992271  1  0  0.644419  0  3.893153  0  0  0.590531  0  4.182181  0  0  0.625364  0  4.176729  0  0  0.205701  0.566957  0  4.184929  0
C  C53  1  0.33546038  0.23633756  0.92992226  1  0  0.644465  0  3.893199  0  0  0.590588  0  4.182209  0  0  0.625425  0  4.176753  0  0  0.205779  0.567016  0  4.18496  0
C  C54  1  0.83545899  0.73633832  0.57007608  1  0  0.644484  0  3.893012  0  0  0.590573  0  4.182089  0  0  0.625405  0  4.176637  0  0  0.205738  0.566999  0  4.184841  0
C  C55  1  0.66454371  0.76366009  0.07007715  1  0  0.644597  0  3.892904  0  0  0.590696  0  4.181996  0  0  0.625531  0  4.176541  0  0  0.205824  0.567121  0  4.18475  0
O  O56  1  0.29122329  0.80443777  0.29776070  1  0  -0.687365  0  2.084754  0  0  -0.60261  0  2.353851  0  0  -0.637982  0  2.341399  0  0  -0.324461  -0.577654  0  2.361382  0
O  O57  1  0.20877759  0.69556234  0.79776087  1  0  -0.687363  0  2.084815  0  0  -0.602605  0  2.353902  0  0  -0.637974  0  2.341449  0  0  -0.324463  -0.577653  0  2.361444  0
O  O58  1  0.70877779  0.19556283  0.70223871  1  0  -0.68736  0  2.084779  0  0  -0.602588  0  2.353884  0  0  -0.637959  0  2.341433  0  0  -0.32444  -0.577623  0  2.361395  0
O  O59  1  0.79122349  0.30443827  0.20223977  1  0  -0.687356  0  2.084892  0  0  -0.602586  0  2.354017  0  0  -0.637957  0  2.341566  0  0  -0.324463  -0.577621  0  2.361522  0
O  O60  1  0.44237515  0.13393424  0.31789561  1  0  -0.661703  0  2.005238  0  0  -0.587347  0  2.230435  0  0  -0.615925  0  2.220189  0  0  -0.306138  -0.567225  0  2.236722  0
O  O61  1  0.05762307  0.36606509  0.81789596  1  0  -0.661765  0  2.005181  0  0  -0.587419  0  2.230384  0  0  -0.615996  0  2.220133  0  0  -0.306177  -0.567299  0  2.236672  0
O  O62  1  0.55762390  0.86606484  0.68210380  1  0  -0.661705  0  2.005217  0  0  -0.587349  0  2.230444  0  0  -0.615926  0  2.220198  0  0  -0.30614  -0.567224  0  2.236729  0
O  O63  1  0.94237456  0.63393396  0.18210468  1  0  -0.661724  0  2.005254  0  0  -0.587348  0  2.230475  0  0  -0.615926  0  2.220229  0  0  -0.306123  -0.567216  0  2.236737  0
O  O64  1  0.05471345  0.20229455  0.36393420  1  0  -0.684576  0  2.095571  0  0  -0.598566  0  2.335775  0  0  -0.631674  0  2.326318  0  0  -0.325253  -0.575293  0  2.34142  0
O  O65  1  0.44528477  0.29770496  0.86393438  1  0  -0.684619  0  2.095647  0  0  -0.598603  0  2.335834  0  0  -0.631711  0  2.326374  0  0  -0.325306  -0.575331  0  2.34148  0
O  O66  1  0.94528401  0.79770749  0.63606521  1  0  -0.684671  0  2.095453  0  0  -0.598652  0  2.335665  0  0  -0.631759  0  2.326208  0  0  -0.32533  -0.575378  0  2.34131  0
O  O67  1  0.55471711  0.70229416  0.13606503  1  0  -0.684644  0  2.095412  0  0  -0.598681  0  2.335675  0  0  -0.631793  0  2.326216  0  0  -0.325333  -0.575409  0  2.341322  0
O  O68  1  0.20881192  0.43789867  0.45902055  1  0  -0.642998  0  1.964671  0  0  -0.581569  0  2.191794  0  0  -0.60881  0  2.182373  0  0  -0.315465  -0.562419  0  2.197683  0
O  O69  1  0.29118348  0.06210119  0.95901998  1  0  -0.643042  0  1.964666  0  0  -0.581632  0  2.191814  0  0  -0.608875  0  2.182393  0  0  -0.315511  -0.562473  0  2.197681  0
O  O70  1  0.79118979  0.56210344  0.54098009  1  0  -0.643024  0  1.964635  0  0  -0.581591  0  2.191784  0  0  -0.608831  0  2.182363  0  0  -0.315478  -0.562444  0  2.197676  0
O  O71  1  0.70881636  0.93789639  0.04098066  1  0  -0.643152  0  1.964641  0  0  -0.581715  0  2.191802  0  0  -0.608955  0  2.182379  0  0  -0.315571  -0.562567  0  2.197691  0
O  O72  1  0.76794084  0.46822960  0.38045040  1  0  -0.864674  0  1.859934  0  0  -0.801547  0  2.062736  0  0  -0.824579  0  2.025893  0  0  -0.590663  -0.785169  0  2.088308  0
O  O73  1  0.73205842  0.03177070  0.88044982  1  0  -0.864728  0  1.859886  0  0  -0.801604  0  2.0627  0  0  -0.824632  0  2.025849  0  0  -0.590682  -0.785225  0  2.088267  0
O  O74  1  0.23205661  0.53177244  0.61955086  1  0  -0.864701  0  1.859903  0  0  -0.801555  0  2.062697  0  0  -0.824595  0  2.025858  0  0  -0.590656  -0.785177  0  2.088282  0
O  O75  1  0.26794347  0.96822842  0.11955082  1  0  -0.864694  0  1.859923  0  0  -0.801551  0  2.062723  0  0  -0.824589  0  2.025881  0  0  -0.590661  -0.785177  0  2.088307  0
O  O76  1  0.28393229  0.40177812  0.22641861  1  0  -0.840353  0  1.841787  0  0  -0.777511  0  2.035997  0  0  -0.799741  0  2.002403  0  0  -0.587303  -0.761658  0  2.059403  0
O  O77  1  0.21606797  0.09822235  0.72641870  1  0  -0.840375  0  1.841777  0  0  -0.777528  0  2.035983  0  0  -0.799758  0  2.002392  0  0  -0.587304  -0.761673  0  2.05939  0
O  O78  1  0.71606597  0.59822244  0.77358142  1  0  -0.840385  0  1.841758  0  0  -0.777552  0  2.035989  0  0  -0.799783  0  2.002395  0  0  -0.587306  -0.761698  0  2.059396  0
O  O79  1  0.78393091  0.90177972  0.27358194  1  0  -0.840378  0  1.841792  0  0  -0.777515  0  2.035978  0  0  -0.799747  0  2.002384  0  0  -0.587287  -0.761661  0  2.059383  0
