# generated using pymatgen
data_AgH7C6(NO)2
_symmetry_space_group_name_H-M   'P 1'
_cell_length_a   8.60558216
_cell_length_b   8.60556928
_cell_length_c   9.51203538
_cell_angle_alpha   96.94009543
_cell_angle_beta   96.93997637
_cell_angle_gamma   100.07780268
_symmetry_Int_Tables_number   1
_chemical_formula_structural   AgH7C6(NO)2
_chemical_formula_sum   'Ag4 H28 C24 N8 O8'
_cell_volume   681.16999023
_cell_formula_units_Z   4
loop_
 _symmetry_equiv_pos_site_id
 _symmetry_equiv_pos_as_xyz
  1  'x, y, z'
loop_
 _atom_site_type_symbol
 _atom_site_label
 _atom_site_symmetry_multiplicity
 _atom_site_fract_x
 _atom_site_fract_y
 _atom_site_fract_z
 _atom_site_occupancy
 _atom_site_pbe_bader_charge
 _atom_site_pbe_bader_spin_density
 _atom_site_pbe_cm5_charge
 _atom_site_pbe_ddec_charge
 _atom_site_pbe_ddec_spin_density
 _atom_site_pbe_ddec_sum_bond_order
 _atom_site_pbe_magmom
Ag  Ag0  1  0.00000048  0.99999924  0.00000049  1  0.511623  0  0.481981  0.331574  0  2.289183  0
Ag  Ag1  1  0.99999870  0.99999557  0.49999911  1  0.511681  0  0.481954  0.331504  0  2.289296  0
Ag  Ag2  1  0.88253957  0.11748317  0.25000470  1  0.610511  0  0.383057  0.438779  0  1.852708  0
Ag  Ag3  1  0.11746683  0.88252423  0.74999803  1  0.610463  0  0.38305  0.438776  0  1.852662  0
H  H4  1  0.10951644  0.43535892  0.26366892  1  0.144477  0  0.126594  0.12004  0  1.001153  0
H  H5  1  0.56464967  0.89048109  0.23633381  1  0.144532  0  0.126593  0.120077  0  1.00105  0
H  H6  1  0.89048400  0.56465085  0.73633867  1  0.14466  0  0.126614  0.120075  0  1.001108  0
H  H7  1  0.43535314  0.10951859  0.76366768  1  0.144633  0  0.126615  0.120083  0  1.001039  0
H  H8  1  0.74689431  0.51328958  0.29559893  1  0.061406  0  0.109118  0.129621  0  0.989794  0
H  H9  1  0.48671357  0.25310155  0.20440158  1  0.0615  0  0.109111  0.129632  0  0.989833  0
H  H10  1  0.25310373  0.48671621  0.70439850  1  0.061424  0  0.109136  0.129635  0  0.989854  0
H  H11  1  0.51328686  0.74690002  0.79560407  1  0.061512  0  0.109135  0.129677  0  0.98977  0
H  H12  1  0.87639891  0.64933641  0.43592236  1  0.088634  0  0.10027  0.115011  0  1.020867  0
H  H13  1  0.35066113  0.12359407  0.06407408  1  0.088674  0  0.100292  0.115011  0  1.020862  0
H  H14  1  0.12359436  0.35066613  0.56407420  1  0.08874  0  0.100291  0.115006  0  1.020876  0
H  H15  1  0.64933692  0.87640822  0.93592928  1  0.088647  0  0.100312  0.115027  0  1.020805  0
H  H16  1  0.91183865  0.45162483  0.38701386  1  0.090087  0  0.107056  0.125469  0  1.037978  0
H  H17  1  0.54837444  0.08815488  0.11298371  1  0.090026  0  0.107053  0.12547  0  1.037925  0
H  H18  1  0.08815701  0.54837934  0.61298524  1  0.090036  0  0.107034  0.125431  0  1.037945  0
H  H19  1  0.45162598  0.91184669  0.88701773  1  0.089913  0  0.107044  0.125465  0  1.037913  0
H  H20  1  0.43530976  0.58701734  0.11310100  1  0.057132  0  0.092423  0.130977  0  1.001473  0
H  H21  1  0.41298362  0.56468698  0.38689964  1  0.057282  0  0.092406  0.130956  0  1.001459  0
H  H22  1  0.56468946  0.41297815  0.88689965  1  0.057294  0  0.092412  0.130947  0  1.001518  0
H  H23  1  0.58701322  0.43531156  0.61310003  1  0.057123  0  0.092415  0.130979  0  1.001474  0
H  H24  1  0.31746071  0.39590954  0.11938936  1  0.034559  0  0.092109  0.130502  0  1.033524  0
H  H25  1  0.60409383  0.68253157  0.38061521  1  0.034398  0  0.092118  0.130509  0  1.033531  0
H  H26  1  0.68253256  0.60409183  0.88061654  1  0.034445  0  0.092117  0.130534  0  1.033517  0
H  H27  1  0.39590778  0.31746554  0.61938482  1  0.034387  0  0.092102  0.130501  0  1.033544  0
H  H28  1  0.31589792  0.47897177  0.95666272  1  0.062643  0  0.090906  0.128694  0  1.024364  0
H  H29  1  0.52102654  0.68410159  0.54333987  1  0.062621  0  0.090906  0.128693  0  1.02431  0
H  H30  1  0.68409773  0.52102655  0.04334205  1  0.062599  0  0.090894  0.128708  0  1.024296  0
H  H31  1  0.47897507  0.31589669  0.45666029  1  0.062643  0  0.09092  0.128735  0  1.024265  0
C  C32  1  0.87087200  0.55337269  0.34706213  1  0.259336  0  -0.13454  -0.263604  0  3.876697  0
C  C33  1  0.44662744  0.12912735  0.15293521  1  0.259301  0  -0.134539  -0.263613  0  3.876733  0
C  C34  1  0.12913081  0.44662933  0.65293436  1  0.259191  0  -0.134544  -0.263562  0  3.876751  0
C  C35  1  0.55337418  0.87087210  0.84706823  1  0.259386  0  -0.134579  -0.263666  0  3.876645  0
C  C36  1  0.94016033  0.74219655  0.18167809  1  1.773645  0  0.311561  0.553888  0  4.173655  0
C  C37  1  0.25780247  0.05983274  0.31831538  1  1.77361  0  0.311542  0.553818  0  4.17375  0
C  C38  1  0.05983055  0.25780086  0.81832185  1  1.773726  0  0.311508  0.553776  0  4.173894  0
C  C39  1  0.74219914  0.94016670  0.68167650  1  1.773619  0  0.311563  0.553914  0  4.173726  0
C  C40  1  0.14676245  0.71373079  0.03689922  1  1.25143  0  0.206484  0.451711  0  4.172861  0
C  C41  1  0.28627006  0.85323586  0.46309976  1  1.251151  0  0.20641  0.451488  0  4.173067  0
C  C42  1  0.85324156  0.28627146  0.96310163  1  1.251379  0  0.206445  0.451609  0  4.173099  0
C  C43  1  0.71373036  0.14676337  0.53690247  1  1.251101  0  0.206488  0.451665  0  4.172884  0
C  C44  1  0.18468829  0.58346880  0.10880218  1  0.130169  0  -0.033499  -0.047349  0  4.026677  0
C  C45  1  0.41653583  0.81531143  0.39119515  1  0.130217  0  -0.033464  -0.047214  0  4.026752  0
C  C46  1  0.81531452  0.41653556  0.89119667  1  0.130141  0  -0.033459  -0.047228  0  4.026714  0
C  C47  1  0.58346817  0.18468731  0.60880637  1  0.130198  0  -0.03352  -0.047296  0  4.026679  0
C  C48  1  0.09218705  0.53616610  0.20822633  1  0.274512  0  0.041108  -0.002982  0  3.90315  0
C  C49  1  0.46383224  0.90780176  0.29177442  1  0.274302  0  0.041115  -0.003056  0  3.903257  0
C  C50  1  0.90781099  0.46383501  0.79177690  1  0.274269  0  0.041091  -0.003082  0  3.903386  0
C  C51  1  0.53616459  0.09218976  0.70822554  1  0.274268  0  0.041123  -0.00304  0  3.903218  0
C  C52  1  0.32016423  0.50644438  0.07282307  1  -0.052899  0  -0.2428  -0.381453  0  3.966758  0
C  C53  1  0.49355833  0.67983324  0.42717681  1  -0.052739  0  -0.242814  -0.381463  0  3.966497  0
C  C54  1  0.67983500  0.49355462  0.92717796  1  -0.05276  0  -0.242811  -0.381512  0  3.96667  0
C  C55  1  0.50644329  0.32016504  0.57282545  1  -0.052674  0  -0.242818  -0.381539  0  3.966634  0
N  N56  1  0.97082952  0.61033037  0.24348639  1  -1.225706  0  -0.248773  -0.033944  0  3.701986  0
N  N57  1  0.38967266  0.02916825  0.25650897  1  -1.225624  0  -0.248827  -0.033954  0  3.70192  0
N  N58  1  0.02917210  0.38967493  0.75651138  1  -1.225566  0  -0.248821  -0.033874  0  3.701929  0
N  N59  1  0.61032895  0.97082886  0.74348896  1  -1.225597  0  -0.248809  -0.033911  0  3.701977  0
N  N60  1  0.03028679  0.78992589  0.08094145  1  -1.203925  0  -0.402431  -0.470387  0  3.571544  0
N  N61  1  0.21007058  0.96970564  0.41905130  1  -1.20402  0  -0.402365  -0.470234  0  3.571578  0
N  N62  1  0.96970886  0.21007476  0.91905517  1  -1.204173  0  -0.402381  -0.470327  0  3.571709  0
N  N63  1  0.78992625  0.03028821  0.58094260  1  -1.203993  0  -0.402417  -0.470392  0  3.571707  0
O  O64  1  0.83127701  0.81154831  0.21994712  1  -1.170279  0  -0.327471  -0.574817  0  2.273568  0
O  O65  1  0.18844972  0.16871424  0.28004828  1  -1.1702  0  -0.327445  -0.574742  0  2.273688  0
O  O66  1  0.16871267  0.18845354  0.78004688  1  -1.170303  0  -0.327412  -0.57474  0  2.273742  0
O  O67  1  0.81154473  0.83128033  0.71994965  1  -1.170196  0  -0.327471  -0.574845  0  2.273639  0
O  O68  1  0.21920919  0.75669804  0.93499772  1  -1.136184  0  -0.320635  -0.496581  0  2.29635  0
O  O69  1  0.24330629  0.78078893  0.56500459  1  -1.136169  0  -0.320583  -0.496486  0  2.296396  0
O  O70  1  0.78079601  0.24330444  0.06500329  1  -1.136126  0  -0.320618  -0.49653  0  2.296462  0
O  O71  1  0.75670248  0.21921072  0.43500175  1  -1.136122  0  -0.32063  -0.496545  0  2.296393  0
