# generated using pymatgen
data_CdH6C12Br2(NO2)2
_symmetry_space_group_name_H-M   'P 1'
_cell_length_a   7.90640414
_cell_length_b   7.90643826
_cell_length_c   9.03522682
_cell_angle_alpha   67.98507225
_cell_angle_beta   67.98557050
_cell_angle_gamma   80.66908688
_symmetry_Int_Tables_number   1
_chemical_formula_structural   CdH6C12Br2(NO2)2
_chemical_formula_sum   'Cd1 H6 C12 Br2 N2 O4'
_cell_volume   485.29206494
_cell_formula_units_Z   1
loop_
 _symmetry_equiv_pos_site_id
 _symmetry_equiv_pos_as_xyz
  1  'x, y, z'
loop_
 _atom_site_type_symbol
 _atom_site_label
 _atom_site_symmetry_multiplicity
 _atom_site_fract_x
 _atom_site_fract_y
 _atom_site_fract_z
 _atom_site_occupancy
 _atom_site_hle17_bader_spin_density
 _atom_site_hle17_ddec_charge
 _atom_site_hle17_ddec_spin_density
 _atom_site_hle17_ddec_sum_bond_order
 _atom_site_hle17_magmom
 _atom_site_hse06_10hf_bader_spin_density
 _atom_site_hse06_10hf_ddec_charge
 _atom_site_hse06_10hf_ddec_spin_density
 _atom_site_hse06_10hf_ddec_sum_bond_order
 _atom_site_hse06_10hf_magmom
 _atom_site_hse06_bader_spin_density
 _atom_site_hse06_ddec_charge
 _atom_site_hse06_ddec_spin_density
 _atom_site_hse06_ddec_sum_bond_order
 _atom_site_hse06_magmom
 _atom_site_pbe_bader_spin_density
 _atom_site_pbe_cm5_charge
 _atom_site_pbe_ddec_charge
 _atom_site_pbe_ddec_spin_density
 _atom_site_pbe_ddec_sum_bond_order
 _atom_site_pbe_magmom
Cd  Cd0  1  0.46616604  0.53383385  0.00000208  1  0  1.070257  0  1.682037  0  0  0.860256  0  2.135809  0  0  0.921122  0  2.085198  0  0  0.752881  0.817889  0  2.169649  0
H  H1  1  0.86763810  0.53473453  0.99908829  1  0  0.100514  0  0.924608  0  0  0.1064  0  0.99054  0  0  0.110263  0  0.986129  0  0  0.120611  0.10361  0  0.993709  0
H  H2  1  0.46526580  0.13236352  0.00090802  1  0  0.10053  0  0.924533  0  0  0.106425  0  0.990454  0  0  0.110288  0  0.986044  0  0  0.120631  0.103638  0  0.993625  0
H  H3  1  0.68741036  0.49418279  0.63686381  1  0  0.110951  0  0.962061  0  0  0.117583  0  1.028424  0  0  0.121368  0  1.024019  0  0  0.118107  0.114786  0  1.03162  0
H  H4  1  0.50581871  0.31258665  0.36313736  1  0  0.110978  0  0.962022  0  0  0.117609  0  1.028388  0  0  0.121394  0  1.023983  0  0  0.118127  0.11481  0  1.031583  0
H  H5  1  0.26960567  0.48060325  0.53834087  1  0  0.131675  0  0.938706  0  0  0.137331  0  1.007322  0  0  0.14131  0  1.003388  0  0  0.113574  0.134406  0  1.010162  0
H  H6  1  0.51939721  0.73039517  0.46165991  1  0  0.131724  0  0.938659  0  0  0.137349  0  1.007307  0  0  0.141327  0  1.003375  0  0  0.113591  0.134427  0  1.01014  0
C  C7  1  0.23482320  0.50871863  0.84114596  1  0  0.628627  0  3.961373  0  0  0.58145  0  4.24549  0  0  0.616199  0  4.241131  0  0  0.191814  0.558104  0  4.24737  0
C  C8  1  0.49128246  0.76517447  0.15885536  1  0  0.628786  0  3.961135  0  0  0.581639  0  4.245215  0  0  0.61639  0  4.240851  0  0  0.191894  0.558301  0  4.24709  0
C  C9  1  0.08600994  0.50498489  0.77732101  1  0  -0.07703  0  3.722331  0  0  -0.047237  0  3.952356  0  0  -0.059777  0  3.97518  0  0  -0.006356  -0.039457  0  3.937155  0
C  C10  1  0.49501393  0.91399054  0.22268063  1  0  -0.077045  0  3.72231  0  0  -0.047278  0  3.952341  0  0  -0.059816  0  3.975162  0  0  -0.006383  -0.0395  0  3.937139  0
C  C11  1  0.90328776  0.51928724  0.87588430  1  0  0.120704  0  3.658082  0  0  0.075256  0  3.908336  0  0  0.085487  0  3.924441  0  0  0.051802  0.068263  0  3.898052  0
C  C12  1  0.48071241  0.09671158  0.12411421  1  0  0.120647  0  3.658069  0  0  0.075198  0  3.908319  0  0  0.085428  0  3.924425  0  0  0.051758  0.068197  0  3.898051  0
C  C13  1  0.80386165  0.49817962  0.67203062  1  0  0.07996  0  3.692599  0  0  0.036067  0  3.944279  0  0  0.044853  0  3.959969  0  0  0.041484  0.030646  0  3.933301  0
C  C14  1  0.50182032  0.19613807  0.32796734  1  0  0.07993  0  3.69247  0  0  0.036032  0  3.944154  0  0  0.044816  0  3.959852  0  0  0.041446  0.030611  0  3.933175  0
C  C15  1  0.98339524  0.48601514  0.56619514  1  0  0.033953  0  3.731785  0  0  0.056899  0  3.999404  0  0  0.053479  0  4.022547  0  0  -0.013948  0.058519  0  3.98397  0
C  C16  1  0.51398595  0.01660295  0.43380376  1  0  0.033983  0  3.731684  0  0  0.056927  0  3.999299  0  0  0.053507  0  4.022439  0  0  -0.013889  0.058557  0  3.983846  0
C  C17  1  0.12764041  0.48863898  0.61839172  1  0  -0.054813  0  3.659007  0  0  -0.092384  0  3.901284  0  0  -0.087485  0  3.918629  0  0  -0.06222  -0.09507  0  3.88946  0
C  C18  1  0.51135886  0.87235950  0.38160956  1  0  -0.054877  0  3.659102  0  0  -0.092407  0  3.901377  0  0  -0.087509  0  3.918723  0  0  -0.062257  -0.095108  0  3.889565  0
Br  Br19  1  0.02501545  0.47187385  0.35053296  1  0  -0.021721  0  1.295268  0  0  -0.019867  0  1.524721  0  0  -0.023682  0  1.517141  0  0  0.057154  -0.017129  0  1.530123  0
Br  Br20  1  0.52813100  0.97498260  0.64946630  1  0  -0.021721  0  1.295244  0  0  -0.019866  0  1.524696  0  0  -0.023682  0  1.517118  0  0  0.057139  -0.017131  0  1.530095  0
N  N21  1  0.76609119  0.51527168  0.82384369  1  0  -0.321326  0  3.299899  0  0  -0.238106  0  3.573997  0  0  -0.260686  0  3.593948  0  0  -0.326862  -0.222796  0  3.559689  0
N  N22  1  0.48472817  0.23390675  0.17615464  1  0  -0.321293  0  3.299913  0  0  -0.238062  0  3.573997  0  0  -0.260644  0  3.593949  0  0  -0.326841  -0.222749  0  3.559679  0
O  O23  1  0.39904927  0.49103396  0.75235405  1  0  -0.631662  0  1.951686  0  0  -0.579494  0  2.184661  0  0  -0.607109  0  2.175385  0  0  -0.32528  -0.560266  0  2.190143  0
O  O24  1  0.50896860  0.60094801  0.24764659  1  0  -0.631705  0  1.951689  0  0  -0.579549  0  2.184665  0  0  -0.607166  0  2.17539  0  0  -0.325291  -0.560326  0  2.190149  0
O  O25  1  0.18556202  0.53078006  0.98538288  1  0  -0.634969  0  2.008958  0  0  -0.564034  0  2.252643  0  0  -0.594786  0  2.242213  0  0  -0.336324  -0.542564  0  2.25889  0
O  O26  1  0.46921691  0.81444269  0.01461721  1  0  -0.635058  0  2.008861  0  0  -0.564137  0  2.252542  0  0  -0.594889  0  2.242109  0  0  -0.336361  -0.542668  0  2.258792  0
