# generated using pymatgen
data_CdH10C10N8O7
_symmetry_space_group_name_H-M   'P 1'
_cell_length_a   8.61179127
_cell_length_b   13.57944545
_cell_length_c   15.06612156
_cell_angle_alpha   107.02470488
_cell_angle_beta   90.00018161
_cell_angle_gamma   90.00039351
_symmetry_Int_Tables_number   1
_chemical_formula_structural   CdH10C10N8O7
_chemical_formula_sum   'Cd4 H40 C40 N32 O28'
_cell_volume   1684.67455964
_cell_formula_units_Z   4
loop_
 _symmetry_equiv_pos_site_id
 _symmetry_equiv_pos_as_xyz
  1  'x, y, z'
loop_
 _atom_site_type_symbol
 _atom_site_label
 _atom_site_symmetry_multiplicity
 _atom_site_fract_x
 _atom_site_fract_y
 _atom_site_fract_z
 _atom_site_occupancy
 _atom_site_hle17_bader_spin_density
 _atom_site_hle17_ddec_charge
 _atom_site_hle17_ddec_spin_density
 _atom_site_hle17_ddec_sum_bond_order
 _atom_site_hle17_magmom
 _atom_site_hse06_10hf_bader_spin_density
 _atom_site_hse06_10hf_ddec_charge
 _atom_site_hse06_10hf_ddec_spin_density
 _atom_site_hse06_10hf_ddec_sum_bond_order
 _atom_site_hse06_10hf_magmom
 _atom_site_hse06_bader_spin_density
 _atom_site_hse06_ddec_charge
 _atom_site_hse06_ddec_spin_density
 _atom_site_hse06_ddec_sum_bond_order
 _atom_site_hse06_magmom
 _atom_site_pbe_bader_spin_density
 _atom_site_pbe_cm5_charge
 _atom_site_pbe_ddec_charge
 _atom_site_pbe_ddec_spin_density
 _atom_site_pbe_ddec_sum_bond_order
 _atom_site_pbe_magmom
Cd  Cd0  1  0.69610285  0.99923511  0.24146972  1  0  1.047957  0  1.743054  0  0  0.841123  0  2.187375  0  0  0.898432  0  2.137359  0  0  0.794516  0.800202  0  2.221811  0
Cd  Cd1  1  0.19607541  0.50076842  0.75852760  1  0  1.048064  0  1.74295  0  0  0.84127  0  2.187227  0  0  0.898561  0  2.137238  0  0  0.794584  0.800363  0  2.22164  0
Cd  Cd2  1  0.30390158  0.00076907  0.75852416  1  0  1.047943  0  1.743046  0  0  0.841145  0  2.18735  0  0  0.898453  0  2.137333  0  0  0.794559  0.800223  0  2.221788  0
Cd  Cd3  1  0.80392205  0.49923314  0.24147882  1  0  1.047999  0  1.743063  0  0  0.841191  0  2.187352  0  0  0.8985  0  2.137336  0  0  0.794531  0.800271  0  2.221789  0
H  H4  1  0.38465699  0.71489937  0.98491270  1  0  0.131419  0  0.934564  0  0  0.133973  0  1.011799  0  0  0.137027  0  1.009361  0  0  0.124728  0.131763  0  1.013557  0
H  H5  1  0.88463795  0.78509823  0.01508396  1  0  0.131379  0  0.934782  0  0  0.133921  0  1.012015  0  0  0.136973  0  1.009582  0  0  0.124726  0.131715  0  1.013768  0
H  H6  1  0.61535325  0.28510782  0.01508534  1  0  0.131396  0  0.934765  0  0  0.134022  0  1.011877  0  0  0.137077  0  1.009441  0  0  0.124764  0.131812  0  1.013636  0
H  H7  1  0.11535604  0.21489644  0.98491853  1  0  0.131414  0  0.934797  0  0  0.134004  0  1.011935  0  0  0.137058  0  1.009499  0  0  0.124748  0.131794  0  1.013692  0
H  H8  1  0.21973905  0.75382944  0.05846817  1  0  0.128539  0  0.931777  0  0  0.13771  0  0.994986  0  0  0.140707  0  0.992429  0  0  0.128571  0.13554  0  0.996818  0
H  H9  1  0.71972322  0.74616484  0.94153256  1  0  0.128433  0  0.931761  0  0  0.137589  0  0.995002  0  0  0.140585  0  0.99245  0  0  0.128507  0.135419  0  0.996837  0
H  H10  1  0.78026190  0.24617698  0.94152966  1  0  0.128536  0  0.931771  0  0  0.137662  0  0.995013  0  0  0.140658  0  0.992461  0  0  0.128524  0.135498  0  0.996837  0
H  H11  1  0.28026844  0.25383066  0.05846816  1  0  0.128566  0  0.93178  0  0  0.137677  0  0.995024  0  0  0.140676  0  0.992465  0  0  0.128529  0.135504  0  0.996861  0
H  H12  1  0.29939214  0.80676619  0.20456798  1  0  0.297303  0  0.928272  0  0  0.275679  0  0.997512  0  0  0.284714  0  0.990344  0  0  0.316291  0.269136  0  1.002792  0
H  H13  1  0.79936917  0.69323716  0.79542815  1  0  0.297237  0  0.928296  0  0  0.275638  0  0.99756  0  0  0.284667  0  0.990381  0  0  0.316274  0.269092  0  1.002829  0
H  H14  1  0.70061113  0.19323647  0.79542481  1  0  0.297356  0  0.928252  0  0  0.275739  0  0.997542  0  0  0.284782  0  0.990367  0  0  0.316287  0.269175  0  1.002857  0
H  H15  1  0.20062830  0.30675904  0.20457543  1  0  0.297317  0  0.928103  0  0  0.275688  0  0.997408  0  0  0.284728  0  0.990227  0  0  0.316268  0.269142  0  1.002692  0
H  H16  1  0.42761550  0.79767336  0.34928376  1  0  0.10487  0  0.889464  0  0  0.121808  0  0.938403  0  0  0.124551  0  0.935171  0  0  0.136429  0.119684  0  0.940973  0
H  H17  1  0.92759304  0.70233912  0.65071650  1  0  0.104954  0  0.889036  0  0  0.121833  0  0.93805  0  0  0.124576  0  0.93482  0  0  0.136472  0.119714  0  0.940621  0
H  H18  1  0.57239126  0.20232997  0.65071386  1  0  0.104824  0  0.889193  0  0  0.121725  0  0.938191  0  0  0.124467  0  0.934961  0  0  0.136424  0.119594  0  0.940758  0
H  H19  1  0.07241372  0.29766019  0.34928663  1  0  0.104974  0  0.88911  0  0  0.121853  0  0.93812  0  0  0.124597  0  0.934888  0  0  0.136486  0.119727  0  0.940689  0
H  H20  1  0.87297219  0.09367776  0.44319293  1  0  0.088071  0  0.927783  0  0  0.098368  0  0.987108  0  0  0.100705  0  0.984993  0  0  0.119391  0.096588  0  0.988742  0
H  H21  1  0.37295395  0.40633952  0.55681176  1  0  0.088028  0  0.92802  0  0  0.098364  0  0.987316  0  0  0.100678  0  0.985229  0  0  0.119399  0.096602  0  0.988931  0
H  H22  1  0.12702411  0.90633027  0.55680203  1  0  0.08803  0  0.92787  0  0  0.098351  0  0.987188  0  0  0.100672  0  0.985091  0  0  0.119399  0.096572  0  0.988822  0
H  H23  1  0.62704351  0.59365409  0.44320304  1  0  0.088069  0  0.927638  0  0  0.098425  0  0.986938  0  0  0.100749  0  0.984836  0  0  0.119346  0.096644  0  0.988576  0
H  H24  1  0.54591082  0.82325609  0.50325902  1  0  0.113216  0  0.944668  0  0  0.121502  0  1.007555  0  0  0.124291  0  1.00686  0  0  0.110504  0.119442  0  1.008268  0
H  H25  1  0.04590137  0.67674752  0.49673274  1  0  0.11325  0  0.944441  0  0  0.121501  0  1.007389  0  0  0.124289  0  1.006695  0  0  0.110489  0.11944  0  1.008104  0
H  H26  1  0.45409245  0.17674277  0.49673071  1  0  0.113263  0  0.944495  0  0  0.121528  0  1.007407  0  0  0.124316  0  1.006713  0  0  0.11051  0.119468  0  1.008119  0
H  H27  1  0.95411120  0.32325017  0.50327325  1  0  0.113378  0  0.944592  0  0  0.12171  0  1.007431  0  0  0.124491  0  1.006741  0  0  0.110559  0.119642  0  1.008142  0
H  H28  1  0.88432200  0.06607191  0.59958647  1  0  0.114864  0  0.975013  0  0  0.118519  0  1.044535  0  0  0.121894  0  1.043269  0  0  0.10525  0.116051  0  1.045607  0
H  H29  1  0.38432299  0.43394155  0.40041850  1  0  0.114706  0  0.974959  0  0  0.118301  0  1.044578  0  0  0.121668  0  1.043329  0  0  0.105148  0.115845  0  1.04565  0
H  H30  1  0.11566734  0.93393605  0.40041179  1  0  0.114874  0  0.974877  0  0  0.118524  0  1.044471  0  0  0.121899  0  1.043202  0  0  0.105194  0.116057  0  1.04554  0
H  H31  1  0.61568492  0.56604515  0.59959304  1  0  0.114831  0  0.974951  0  0  0.118548  0  1.044404  0  0  0.121904  0  1.043159  0  0  0.10523  0.116085  0  1.045475  0
H  H32  1  0.71966998  0.92545638  0.63008150  1  0  0.110619  0  0.938547  0  0  0.120585  0  0.996616  0  0  0.124096  0  0.993178  0  0  0.109088  0.117948  0  0.999245  0
H  H33  1  0.21967153  0.57455258  0.36992072  1  0  0.110611  0  0.938476  0  0  0.120512  0  0.99665  0  0  0.124022  0  0.993211  0  0  0.10906  0.117881  0  0.999271  0
H  H34  1  0.28032748  0.07454455  0.36991877  1  0  0.110626  0  0.938552  0  0  0.120592  0  0.99662  0  0  0.124101  0  0.993185  0  0  0.109082  0.117958  0  0.999245  0
H  H35  1  0.78034568  0.42543813  0.63008530  1  0  0.110696  0  0.938423  0  0  0.120612  0  0.996548  0  0  0.124121  0  0.993112  0  0  0.109063  0.117974  0  0.999182  0
H  H36  1  0.45502258  0.84547226  0.87978547  1  0  0.12078  0  0.938232  0  0  0.125082  0  1.008143  0  0  0.129135  0  1.002063  0  0  0.144075  0.122003  0  1.01259  0
H  H37  1  0.95502007  0.65452189  0.12020968  1  0  0.1208  0  0.938305  0  0  0.125086  0  1.00826  0  0  0.129137  0  1.002186  0  0  0.144067  0.122006  0  1.01271  0
H  H38  1  0.54497837  0.15452646  0.12021019  1  0  0.120778  0  0.938306  0  0  0.125059  0  1.008234  0  0  0.12911  0  1.002163  0  0  0.144063  0.121984  0  1.012682  0
H  H39  1  0.04497391  0.34547205  0.87979127  1  0  0.120728  0  0.938228  0  0  0.124977  0  1.008212  0  0  0.129032  0  1.002131  0  0  0.144026  0.121902  0  1.01266  0
H  H40  1  0.00414616  0.96977623  0.90547752  1  0  0.094264  0  0.952862  0  0  0.098668  0  1.02147  0  0  0.100996  0  1.018682  0  0  0.131699  0.096914  0  1.023496  0
H  H41  1  0.50414217  0.53022151  0.09452379  1  0  0.094302  0  0.953051  0  0  0.098706  0  1.021649  0  0  0.101035  0  1.01886  0  0  0.131693  0.096951  0  1.023674  0
H  H42  1  0.99585943  0.03023027  0.09451701  1  0  0.094251  0  0.952851  0  0  0.098659  0  1.021457  0  0  0.10099  0  1.018667  0  0  0.131692  0.096907  0  1.023475  0
H  H43  1  0.49584949  0.46978012  0.90547999  1  0  0.09431  0  0.952746  0  0  0.098704  0  1.021374  0  0  0.101032  0  1.018586  0  0  0.131717  0.096944  0  1.02341  0
C  C44  1  0.32064032  0.78163547  0.02874901  1  0  -0.168083  0  3.625997  0  0  -0.243061  0  3.870813  0  0  -0.24362  0  3.876504  0  0  -0.043728  -0.242285  0  3.866797  0
C  C45  1  0.82063363  0.71835714  0.97124746  1  0  -0.168005  0  3.626236  0  0  -0.242922  0  3.871004  0  0  -0.243484  0  3.876706  0  0  -0.043649  -0.242147  0  3.866987  0
C  C46  1  0.67935483  0.21836708  0.97124840  1  0  -0.168433  0  3.626341  0  0  -0.243289  0  3.871109  0  0  -0.243858  0  3.876814  0  0  -0.043802  -0.242518  0  3.867085  0
C  C47  1  0.17936384  0.28163751  0.02875635  1  0  -0.168449  0  3.626448  0  0  -0.243307  0  3.871256  0  0  -0.243862  0  3.876944  0  0  -0.043763  -0.242524  0  3.86724  0
C  C48  1  0.50907733  0.85312595  0.33489516  1  0  0.076089  0  3.614244  0  0  0.0291  0  3.878544  0  0  0.039474  0  3.887949  0  0  0.088125  0.022067  0  3.872341  0
C  C49  1  0.00906493  0.64688102  0.66511009  1  0  0.075828  0  3.614525  0  0  0.02896  0  3.878773  0  0  0.039327  0  3.888188  0  0  0.088135  0.021919  0  3.872577  0
C  C50  1  0.49092014  0.14687242  0.66511501  1  0  0.076095  0  3.615082  0  0  0.02914  0  3.879322  0  0  0.039509  0  3.888734  0  0  0.088206  0.022121  0  3.873101  0
C  C51  1  0.99094298  0.35311491  0.33490471  1  0  0.076  0  3.613345  0  0  0.02913  0  3.877655  0  0  0.039502  0  3.887065  0  0  0.088178  0.022099  0  3.871448  0
C  C52  1  0.43324227  0.84186819  0.10287582  1  0  0.554167  0  3.770806  0  0  0.508531  0  4.070135  0  0  0.536902  0  4.07136  0  0  0.248584  0.489437  0  4.068474  0
C  C53  1  0.93323686  0.65812891  0.89712079  1  0  0.554456  0  3.770619  0  0  0.508833  0  4.069986  0  0  0.537192  0  4.071223  0  0  0.248735  0.489732  0  4.068333  0
C  C54  1  0.56675055  0.15813897  0.89712355  1  0  0.554539  0  3.770156  0  0  0.508734  0  4.069799  0  0  0.537095  0  4.071042  0  0  0.248657  0.489648  0  4.068118  0
C  C55  1  0.06675712  0.34186491  0.10288544  1  0  0.554634  0  3.770291  0  0  0.508811  0  4.069923  0  0  0.537172  0  4.071156  0  0  0.248671  0.48971  0  4.068261  0
C  C56  1  0.80249993  0.03441894  0.45920454  1  0  0.149512  0  3.690262  0  0  0.115969  0  3.94682  0  0  0.123034  0  3.965712  0  0  0.054994  0.111357  0  3.93402  0
C  C57  1  0.30248690  0.46559631  0.54080410  1  0  0.149669  0  3.690456  0  0  0.116059  0  3.947028  0  0  0.123142  0  3.96592  0  0  0.054927  0.111434  0  3.934227  0
C  C58  1  0.19750218  0.96558587  0.54079549  1  0  0.14958  0  3.690483  0  0  0.116009  0  3.947048  0  0  0.123085  0  3.96594  0  0  0.054886  0.111398  0  3.934248  0
C  C59  1  0.69751521  0.53439967  0.45920872  1  0  0.149453  0  3.69057  0  0  0.115817  0  3.947219  0  0  0.122889  0  3.966111  0  0  0.054866  0.111207  0  3.934417  0
C  C60  1  0.61629708  0.90701961  0.40825950  1  0  0.194028  0  3.819503  0  0  0.194624  0  4.067143  0  0  0.19934  0  4.088769  0  0  0.114301  0.191488  0  4.052539  0
C  C61  1  0.11628140  0.59298735  0.59173798  1  0  0.194215  0  3.819888  0  0  0.194865  0  4.067283  0  0  0.199585  0  4.088911  0  0  0.114407  0.191731  0  4.052679  0
C  C62  1  0.38370502  0.09298061  0.59173791  1  0  0.193869  0  3.819638  0  0  0.19458  0  4.067036  0  0  0.199299  0  4.08866  0  0  0.114293  0.191444  0  4.052435  0
C  C63  1  0.88371955  0.40701041  0.40826538  1  0  0.194458  0  3.819562  0  0  0.194968  0  4.067198  0  0  0.199683  0  4.08883  0  0  0.114482  0.191838  0  4.052588  0
C  C64  1  0.61887272  0.88459715  0.49303984  1  0  -0.111255  0  3.666319  0  0  -0.138737  0  3.925047  0  0  -0.144128  0  3.945282  0  0  -0.070099  -0.135386  0  3.911643  0
C  C65  1  0.11886265  0.61540832  0.50695589  1  0  -0.111338  0  3.666734  0  0  -0.138836  0  3.925435  0  0  -0.144223  0  3.945663  0  0  -0.070137  -0.135489  0  3.912036  0
C  C66  1  0.38113287  0.11540162  0.50695385  1  0  -0.111262  0  3.666549  0  0  -0.138746  0  3.925184  0  0  -0.144136  0  3.94542  0  0  -0.070148  -0.135396  0  3.911779  0
C  C67  1  0.88114759  0.38458780  0.49305099  1  0  -0.111655  0  3.66701  0  0  -0.139169  0  3.925697  0  0  -0.144545  0  3.945926  0  0  -0.070253  -0.135808  0  3.912281  0
C  C68  1  0.80860913  0.01823894  0.54651529  1  0  -0.110445  0  3.702098  0  0  -0.126727  0  3.961161  0  0  -0.133826  0  3.983064  0  0  -0.079478  -0.12218  0  3.946505  0
C  C69  1  0.30860163  0.48177184  0.45348746  1  0  -0.110331  0  3.701797  0  0  -0.126543  0  3.960831  0  0  -0.133639  0  3.982727  0  0  -0.079323  -0.122013  0  3.946193  0
C  C70  1  0.19138950  0.98176442  0.45348102  1  0  -0.110457  0  3.702062  0  0  -0.126693  0  3.961065  0  0  -0.13379  0  3.982965  0  0  -0.079319  -0.122143  0  3.946406  0
C  C71  1  0.69140048  0.51821804  0.54652099  1  0  -0.110406  0  3.701925  0  0  -0.126682  0  3.960926  0  0  -0.133763  0  3.982833  0  0  -0.079359  -0.122142  0  3.946273  0
C  C72  1  0.71717099  0.94092985  0.56312024  1  0  0.004438  0  3.69009  0  0  -0.016645  0  3.946092  0  0  -0.013576  0  3.963731  0  0  -0.064171  -0.018439  0  3.934157  0
C  C73  1  0.21716691  0.55907988  0.43688218  1  0  0.004403  0  3.690766  0  0  -0.016594  0  3.946716  0  0  -0.013522  0  3.964357  0  0  -0.064158  -0.018387  0  3.934777  0
C  C74  1  0.28283344  0.05907263  0.43688046  1  0  0.004292  0  3.690606  0  0  -0.016813  0  3.946585  0  0  -0.013747  0  3.96423  0  0  -0.064269  -0.018605  0  3.934646  0
C  C75  1  0.78283868  0.44091232  0.56312691  1  0  0.004407  0  3.690399  0  0  -0.016658  0  3.946356  0  0  -0.013589  0  3.963993  0  0  -0.064171  -0.018449  0  3.934412  0
C  C76  1  0.33820735  0.86939561  0.90342634  1  0  0.212207  0  3.590929  0  0  0.125775  0  3.860336  0  0  0.143408  0  3.86744  0  0  0.172193  0.114508  0  3.855251  0
C  C77  1  0.83821607  0.63059714  0.09656820  1  0  0.212188  0  3.590928  0  0  0.125751  0  3.860422  0  0  0.143379  0  3.867528  0  0  0.172162  0.11448  0  3.855342  0
C  C78  1  0.66179127  0.13060399  0.09656492  1  0  0.212248  0  3.590922  0  0  0.125854  0  3.860378  0  0  0.143475  0  3.86749  0  0  0.172265  0.11458  0  3.8553  0
C  C79  1  0.16179532  0.36939988  0.90343362  1  0  0.212322  0  3.591152  0  0  0.125916  0  3.860618  0  0  0.143553  0  3.867718  0  0  0.172287  0.114642  0  3.855542  0
C  C80  1  0.10714429  0.92935807  0.91714662  1  0  0.203803  0  3.715426  0  0  0.149943  0  4.000867  0  0  0.162705  0  4.013923  0  0  0.144259  0.141731  0  3.991662  0
C  C81  1  0.60713835  0.57063554  0.08285638  1  0  0.203658  0  3.71561  0  0  0.149796  0  4.001048  0  0  0.162556  0  4.014113  0  0  0.144236  0.141589  0  3.991838  0
C  C82  1  0.89286130  0.07065083  0.08284461  1  0  0.203818  0  3.715515  0  0  0.149943  0  4.000963  0  0  0.162699  0  4.014029  0  0  0.144249  0.141735  0  3.991753  0
C  C83  1  0.39284866  0.42936211  0.91715160  1  0  0.203756  0  3.715493  0  0  0.149901  0  4.000918  0  0  0.162667  0  4.013973  0  0  0.144239  0.14169  0  3.991714  0
N  N84  1  0.70924442  0.98000847  0.39153965  1  0  -0.36323  0  3.249988  0  0  -0.2933  0  3.509901  0  0  -0.314079  0  3.531542  0  0  -0.32415  -0.27908  0  3.494984  0
N  N85  1  0.20922803  0.52000281  0.60846055  1  0  -0.363509  0  3.250803  0  0  -0.293586  0  3.510712  0  0  -0.314365  0  3.532343  0  0  -0.324221  -0.279367  0  3.495803  0
N  N86  1  0.29075420  0.01999413  0.60845578  1  0  -0.363149  0  3.250335  0  0  -0.29331  0  3.510306  0  0  -0.31409  0  3.531944  0  0  -0.324072  -0.27909  0  3.495391  0
N  N87  1  0.79076712  0.47999562  0.39154699  1  0  -0.363433  0  3.250459  0  0  -0.293417  0  3.51036  0  0  -0.314195  0  3.531998  0  0  -0.324135  -0.279201  0  3.495445  0
N  N88  1  0.51225660  0.87342480  0.25654274  1  0  -0.135965  0  3.258283  0  0  -0.081552  0  3.532251  0  0  -0.0927  0  3.55022  0  0  -0.212756  -0.074157  0  3.520033  0
N  N89  1  0.01223394  0.62658104  0.74344560  1  0  -0.135701  0  3.258691  0  0  -0.081352  0  3.53277  0  0  -0.092499  0  3.550739  0  0  -0.212795  -0.07396  0  3.520554  0
N  N90  1  0.48774435  0.12658041  0.74344081  1  0  -0.135939  0  3.25891  0  0  -0.081463  0  3.532912  0  0  -0.092608  0  3.550876  0  0  -0.212908  -0.074067  0  3.520692  0
N  N91  1  0.98776469  0.37341768  0.25655006  1  0  -0.136063  0  3.257814  0  0  -0.081673  0  3.531893  0  0  -0.092822  0  3.549863  0  0  -0.212891  -0.074278  0  3.519676  0
N  N92  1  0.26408111  0.84243700  0.97112374  1  0  0.07397  0  3.558918  0  0  0.195878  0  3.741232  0  0  0.185743  0  3.763958  0  0  -0.130783  0.201238  0  3.727964  0
N  N93  1  0.76407816  0.65755307  0.02886859  1  0  0.074043  0  3.558915  0  0  0.195898  0  3.741295  0  0  0.185799  0  3.76396  0  0  -0.130745  0.201261  0  3.728019  0
N  N94  1  0.73591636  0.15755873  0.02886710  1  0  0.07434  0  3.558825  0  0  0.196103  0  3.741238  0  0  0.186023  0  3.763869  0  0  -0.13067  0.201462  0  3.727972  0
N  N95  1  0.23591234  0.34244403  0.97112993  1  0  0.074097  0  3.559082  0  0  0.195942  0  3.741352  0  0  0.185803  0  3.764084  0  0  -0.130759  0.201302  0  3.728085  0
N  N96  1  0.41003586  0.82810777  0.18842472  1  0  -0.301338  0  3.366456  0  0  -0.25163  0  3.608446  0  0  -0.273636  0  3.623628  0  0  -0.285704  -0.236442  0  3.597715  0
N  N97  1  0.91001042  0.67189773  0.81157155  1  0  -0.301505  0  3.365882  0  0  -0.251908  0  3.608069  0  0  -0.273902  0  3.623252  0  0  -0.285799  -0.23671  0  3.597341  0
N  N98  1  0.58996973  0.17190096  0.81157376  1  0  -0.301343  0  3.36539  0  0  -0.251775  0  3.607662  0  0  -0.273782  0  3.62283  0  0  -0.2857  -0.236577  0  3.59696  0
N  N99  1  0.08998472  0.32809923  0.18843291  1  0  -0.301487  0  3.365847  0  0  -0.251819  0  3.60807  0  0  -0.273827  0  3.623264  0  0  -0.28574  -0.236625  0  3.597341  0
N  N100  1  0.24110233  0.92489001  0.86813446  1  0  -0.393836  0  3.235117  0  0  -0.310775  0  3.521076  0  0  -0.335162  0  3.534366  0  0  -0.351071  -0.294211  0  3.511339  0
N  N101  1  0.74110366  0.57510446  0.13186305  1  0  -0.393761  0  3.235064  0  0  -0.310701  0  3.52108  0  0  -0.33509  0  3.534379  0  0  -0.351034  -0.294137  0  3.511339  0
N  N102  1  0.75890442  0.07511194  0.13185547  1  0  -0.393907  0  3.235072  0  0  -0.310838  0  3.52106  0  0  -0.335227  0  3.534358  0  0  -0.351075  -0.294273  0  3.511322  0
N  N103  1  0.25889032  0.42489175  0.86814054  1  0  -0.393908  0  3.23526  0  0  -0.310851  0  3.52124  0  0  -0.335244  0  3.534533  0  0  -0.351145  -0.294287  0  3.511504  0
N  N104  1  0.59240954  0.20361837  0.34543876  1  0  0.695412  0  4.126554  0  0  0.73804  0  4.403876  0  0  0.767532  0  4.409259  0  0  0.08989  0.718099  0  4.399686  0
N  N105  1  0.09244518  0.29636788  0.65456731  1  0  0.695464  0  4.126471  0  0  0.737968  0  4.403972  0  0  0.767458  0  4.409352  0  0  0.089992  0.718031  0  4.399783  0
N  N106  1  0.40759489  0.79638187  0.65455800  1  0  0.695144  0  4.126616  0  0  0.737943  0  4.403712  0  0  0.767434  0  4.409101  0  0  0.089931  0.718004  0  4.399521  0
N  N107  1  0.90755693  0.70362980  0.34543935  1  0  0.721447  0  4.090745  0  0  0.737996  0  4.404032  0  0  0.767485  0  4.409412  0  0  0.089954  0.718057  0  4.399843  0
N  N108  1  0.00706657  0.87306118  0.21079945  1  0  0.731269  0  4.093984  0  0  0.740591  0  4.420125  0  0  0.770112  0  4.425267  0  0  0.101843  0.720697  0  4.416171  0
N  N109  1  0.50705794  0.62693991  0.78919152  1  0  0.730815  0  4.094197  0  0  0.740158  0  4.420328  0  0  0.769676  0  4.425487  0  0  0.101721  0.720268  0  4.416365  0
N  N110  1  0.99293321  0.12693755  0.78919555  1  0  0.731112  0  4.094212  0  0  0.74044  0  4.420322  0  0  0.769963  0  4.425467  0  0  0.101774  0.72055  0  4.416364  0
N  N111  1  0.49293952  0.37306027  0.21080787  1  0  0.730882  0  4.094241  0  0  0.740201  0  4.420392  0  0  0.76972  0  4.425542  0  0  0.10167  0.720313  0  4.416427  0
N  N112  1  0.11613767  0.88039061  0.98141293  1  0  -0.288244  0  2.858283  0  0  -0.286077  0  3.125264  0  0  -0.296284  0  3.139556  0  0  -0.225272  -0.279042  0  3.115718  0
N  N113  1  0.61613658  0.61959935  0.01858241  1  0  -0.288222  0  2.858232  0  0  -0.286034  0  3.125215  0  0  -0.296249  0  3.139507  0  0  -0.225275  -0.278997  0  3.115666  0
N  N114  1  0.88386095  0.11961213  0.01857656  1  0  -0.288366  0  2.858233  0  0  -0.286142  0  3.125207  0  0  -0.296363  0  3.139501  0  0  -0.225354  -0.279107  0  3.115664  0
N  N115  1  0.38385624  0.38040147  0.98142247  1  0  -0.288209  0  2.858345  0  0  -0.286006  0  3.125294  0  0  -0.296212  0  3.139584  0  0  -0.22524  -0.278968  0  3.115747  0
O  O116  1  0.54160903  0.89255009  0.08471020  1  0  -0.528203  0  1.935797  0  0  -0.483491  0  2.160547  0  0  -0.507271  0  2.155578  0  0  -0.283005  -0.466966  0  2.16337  0
O  O117  1  0.04160215  0.60745367  0.91527429  1  0  -0.528281  0  1.936111  0  0  -0.483527  0  2.160846  0  0  -0.5073  0  2.155878  0  0  -0.283023  -0.467004  0  2.163676  0
O  O118  1  0.45837450  0.10746572  0.91528363  1  0  -0.528229  0  1.935561  0  0  -0.483414  0  2.160379  0  0  -0.507191  0  2.155418  0  0  -0.282925  -0.466894  0  2.163196  0
O  O119  1  0.95838718  0.39254256  0.08472798  1  0  -0.528295  0  1.935756  0  0  -0.483472  0  2.16058  0  0  -0.507248  0  2.155612  0  0  -0.282968  -0.466946  0  2.163407  0
O  O120  1  0.50121081  0.13222797  0.29778740  1  0  -0.50062  0  1.760452  0  0  -0.484327  0  1.983214  0  0  -0.503891  0  1.974226  0  0  -0.215355  -0.470324  0  1.988959  0
O  O121  1  0.00121845  0.36775046  0.70220102  1  0  -0.500473  0  1.760302  0  0  -0.484112  0  1.983064  0  0  -0.503678  0  1.974088  0  0  -0.215189  -0.470114  0  1.98881  0
O  O122  1  0.49879594  0.86777157  0.70220650  1  0  -0.500525  0  1.760491  0  0  -0.484294  0  1.983187  0  0  -0.503857  0  1.974198  0  0  -0.215351  -0.470292  0  1.988932  0
O  O123  1  0.99878599  0.63224876  0.29780607  1  0  -0.509015  0  1.750634  0  0  -0.484109  0  1.983169  0  0  -0.503676  0  1.974194  0  0  -0.21518  -0.47011  0  1.988916  0
O  O124  1  0.05493525  0.96279691  0.24806075  1  0  -0.45709  0  1.690231  0  0  -0.442625  0  1.896204  0  0  -0.456136  0  1.889498  0  0  -0.182799  -0.433115  0  1.900653  0
O  O125  1  0.55492893  0.53720514  0.75193390  1  0  -0.456962  0  1.690302  0  0  -0.442476  0  1.896253  0  0  -0.45599  0  1.889553  0  0  -0.182759  -0.432955  0  1.900676  0
O  O126  1  0.94506686  0.03720264  0.75193249  1  0  -0.457075  0  1.690395  0  0  -0.442619  0  1.896376  0  0  -0.456133  0  1.889674  0  0  -0.182793  -0.433096  0  1.900799  0
O  O127  1  0.44507086  0.46279496  0.24806879  1  0  -0.456981  0  1.690288  0  0  -0.442505  0  1.896245  0  0  -0.456018  0  1.889545  0  0  -0.182754  -0.432983  0  1.900666  0
O  O128  1  0.73829197  0.18596430  0.34108490  1  0  -0.490202  0  1.766039  0  0  -0.478937  0  1.983271  0  0  -0.497821  0  1.977791  0  0  -0.203284  -0.465442  0  1.986669  0
O  O129  1  0.23831622  0.31405162  0.65891385  1  0  -0.490371  0  1.766214  0  0  -0.479088  0  1.983514  0  0  -0.497964  0  1.97803  0  0  -0.203385  -0.4656  0  1.986916  0
O  O130  1  0.26171478  0.81403681  0.65890811  1  0  -0.490091  0  1.766083  0  0  -0.478904  0  1.983262  0  0  -0.497785  0  1.977782  0  0  -0.20334  -0.465411  0  1.98666  0
O  O131  1  0.76168473  0.68594150  0.34108887  1  0  -0.499087  0  1.756108  0  0  -0.479142  0  1.983467  0  0  -0.498023  0  1.977983  0  0  -0.203386  -0.465648  0  1.986866  0
O  O132  1  0.86535707  0.85689106  0.18407771  1  0  -0.496355  0  1.818477  0  0  -0.466857  0  2.06807  0  0  -0.487812  0  2.060784  0  0  -0.199818  -0.451957  0  2.072593  0
O  O133  1  0.36535007  0.64310817  0.81591141  1  0  -0.496174  0  1.818582  0  0  -0.466713  0  2.068219  0  0  -0.487638  0  2.06088  0  0  -0.19977  -0.451814  0  2.072734  0
O  O134  1  0.13464155  0.14311002  0.81591662  1  0  -0.496291  0  1.818534  0  0  -0.466819  0  2.068141  0  0  -0.487763  0  2.060838  0  0  -0.199792  -0.451919  0  2.072662  0
O  O135  1  0.63464740  0.35689127  0.18408645  1  0  -0.496237  0  1.818622  0  0  -0.466759  0  2.068238  0  0  -0.487701  0  2.060929  0  0  -0.199762  -0.451861  0  2.072755  0
O  O136  1  0.09505477  0.79493980  0.19778441  1  0  -0.473004  0  1.789415  0  0  -0.455784  0  2.011492  0  0  -0.471288  0  2.003232  0  0  -0.18193  -0.444955  0  2.01714  0
O  O137  1  0.59504707  0.70506410  0.80220685  1  0  -0.472801  0  1.789283  0  0  -0.455601  0  2.011355  0  0  -0.471108  0  2.003098  0  0  -0.181903  -0.444776  0  2.017001  0
O  O138  1  0.90494269  0.20505887  0.80221323  1  0  -0.472979  0  1.789491  0  0  -0.455693  0  2.011519  0  0  -0.471202  0  2.003258  0  0  -0.181896  -0.444863  0  2.017172  0
O  O139  1  0.40495040  0.29493613  0.19779056  1  0  -0.472838  0  1.789315  0  0  -0.455562  0  2.01135  0  0  -0.471073  0  2.003098  0  0  -0.181862  -0.444738  0  2.017002  0
O  O140  1  0.53808461  0.28673399  0.39496137  1  0  -0.428869  0  1.74255  0  0  -0.430943  0  1.947745  0  0  -0.443565  0  1.942527  0  0  -0.181369  -0.421935  0  1.951166  0
O  O141  1  0.03815624  0.21322667  0.60506527  1  0  -0.429044  0  1.74285  0  0  -0.430995  0  1.948027  0  0  -0.443632  0  1.942827  0  0  -0.181504  -0.42197  0  1.951411  0
O  O142  1  0.46191982  0.71326233  0.60503694  1  0  -0.428818  0  1.742409  0  0  -0.430954  0  1.947553  0  0  -0.443581  0  1.942336  0  0  -0.181374  -0.421944  0  1.950969  0
O  O143  1  0.96183891  0.78677260  0.39493984  1  0  -0.43781  0  1.732154  0  0  -0.430948  0  1.947973  0  0  -0.443584  0  1.942771  0  0  -0.181478  -0.421922  0  1.951355  0
