# generated using pymatgen
data_ZnSiH12C24N8(O4F3)2
_symmetry_space_group_name_H-M   'P 1'
_cell_length_a   7.69537766
_cell_length_b   14.03299468
_cell_length_c   14.03311037
_cell_angle_alpha   89.90903825
_cell_angle_beta   90.03466035
_cell_angle_gamma   90.03473665
_symmetry_Int_Tables_number   1
_chemical_formula_structural   ZnSiH12C24N8(O4F3)2
_chemical_formula_sum   'Zn1 Si1 H12 C24 N8 O8 F6'
_cell_volume   1515.42181046
_cell_formula_units_Z   1
loop_
 _symmetry_equiv_pos_site_id
 _symmetry_equiv_pos_as_xyz
  1  'x, y, z'
loop_
 _atom_site_type_symbol
 _atom_site_label
 _atom_site_symmetry_multiplicity
 _atom_site_fract_x
 _atom_site_fract_y
 _atom_site_fract_z
 _atom_site_occupancy
 _atom_site_pbe_bader_charge
 _atom_site_pbe_bader_spin_density
 _atom_site_pbe_cm5_charge
 _atom_site_pbe_ddec_charge
 _atom_site_pbe_ddec_spin_density
 _atom_site_pbe_ddec_sum_bond_order
 _atom_site_pbe_magmom
Zn  Zn0  1  0.50001093  0.50103638  0.49897317  1  1.293999  0  0.70519  0.744088  0  2.34284  0
Si  Si1  1  0.00001723  0.49967663  0.50032721  1  3.184866  0  0.258437  1.707398  0  3.969637  0
H  H2  1  0.23146309  0.66541597  0.50094489  1  0.190227  0  0.123435  0.109599  0  1.027798  0
H  H3  1  0.22371146  0.84210847  0.50345282  1  0.171776  0  0.119222  0.135498  0  1.008859  0
H  H4  1  0.77364881  0.66293135  0.49021588  1  0.1749  0  0.127355  0.119117  0  1.040314  0
H  H5  1  0.22649243  0.33827792  0.48956411  1  0.219818  0  0.125998  0.118254  0  1.04448  0
H  H6  1  0.76856062  0.33557727  0.50141258  1  0.182928  0  0.122147  0.108601  0  1.032482  0
H  H7  1  0.77607471  0.15892486  0.50399611  1  0.179578  0  0.119101  0.135931  0  1.007885  0
H  H8  1  0.23147932  0.49873794  0.66442878  1  0.182709  0  0.122058  0.108867  0  1.032249  0
H  H9  1  0.22395458  0.49608811  0.84107265  1  0.180056  0  0.119152  0.135843  0  1.007872  0
H  H10  1  0.77355262  0.51037578  0.66173808  1  0.219835  0  0.125989  0.117997  0  1.044683  0
H  H11  1  0.22633687  0.50979151  0.33706609  1  0.174772  0  0.127309  0.119238  0  1.039973  0
H  H12  1  0.76852775  0.49899989  0.33460842  1  0.190506  0  0.123518  0.109373  0  1.028172  0
H  H13  1  0.77631338  0.49649552  0.15791310  1  0.171901  0  0.119354  0.135607  0  1.008652  0
C  C14  1  0.35200226  0.70618347  0.50083900  1  0.438398  0  0.065383  0.114271  0  3.868621  0
C  C15  1  0.34804987  0.80508631  0.50337723  1  0.019149  0  -0.055436  -0.128518  0  3.839754  0
C  C16  1  0.50481262  0.85684260  0.50491540  1  0.111758  0  0.034716  0.131156  0  4.078986  0
C  C17  1  0.65842249  0.80242508  0.50003769  1  0.225642  0  0.095134  -0.006417  0  3.877089  0
C  C18  1  0.65337077  0.70369377  0.49499590  1  0.553648  0  0.06658  0.058451  0  3.884831  0
C  C19  1  0.50417578  0.95722072  0.50701689  1  -0.176715  0  -0.011448  -0.05078  0  4.041865  0
C  C20  1  0.49541522  0.04383945  0.50698364  1  0.035384  0  -0.013359  -0.052145  0  4.041678  0
C  C21  1  0.49499174  0.14422312  0.50483236  1  0.058357  0  0.03552  0.133281  0  4.077669  0
C  C22  1  0.34160116  0.19881473  0.49959960  1  0.181042  0  0.094036  -0.007602  0  3.878732  0
C  C23  1  0.34679155  0.29756685  0.49461652  1  0.599382  0  0.065217  0.056469  0  3.888823  0
C  C24  1  0.64794461  0.29493481  0.50107441  1  0.408929  0  0.063709  0.112333  0  3.872005  0
C  C25  1  0.65176337  0.19598941  0.50364554  1  0.057601  0  -0.056031  -0.130578  0  3.840451  0
C  C26  1  0.35207966  0.49902913  0.70507231  1  0.408772  0  0.063906  0.112498  0  3.871796  0
C  C27  1  0.34826856  0.49641807  0.80401551  1  0.057714  0  -0.056187  -0.130518  0  3.840289  0
C  C28  1  0.50501671  0.49516002  0.85578920  1  0.058719  0  0.035532  0.133177  0  4.076712  0
C  C29  1  0.65843592  0.50035157  0.80119731  1  0.180572  0  0.093899  -0.007905  0  3.878614  0
C  C30  1  0.65323786  0.50535107  0.70244884  1  0.598888  0  0.065156  0.056497  0  3.889307  0
C  C31  1  0.50458790  0.49298876  0.95618203  1  0.035714  0  -0.013536  -0.052502  0  4.0425  0
C  C32  1  0.49588037  0.49296269  0.04278193  1  -0.177222  0  -0.011347  -0.050364  0  4.042229  0
C  C33  1  0.49522784  0.49506489  0.14317348  1  0.111516  0  0.034917  0.131364  0  4.078598  0
C  C34  1  0.34159712  0.49996540  0.19757918  1  0.225021  0  0.095067  -0.006782  0  3.877317  0
C  C35  1  0.34662404  0.50500579  0.29631110  1  0.553382  0  0.066552  0.058571  0  3.884286  0
C  C36  1  0.64800293  0.49912142  0.29383131  1  0.438107  0  0.065202  0.114139  0  3.868732  0
C  C37  1  0.65197362  0.49657391  0.19492787  1  0.019383  0  -0.055588  -0.128674  0  3.839883  0
N  N38  1  0.50183261  0.65604256  0.49755706  1  -1.213554  0  -0.308268  -0.21524  0  3.495696  0
N  N39  1  0.49828083  0.34529994  0.49753020  1  -1.25581  0  -0.306825  -0.214438  0  3.487564  0
N  N40  1  0.50176687  0.50251429  0.65470403  1  -1.25462  0  -0.306752  -0.214463  0  3.487538  0
N  N41  1  0.49815694  0.50242685  0.34396473  1  -1.213583  0  -0.308045  -0.2149  0  3.495023  0
N  N42  1  0.82980221  0.84822877  0.50126302  1  0.395148  0  0.063373  0.521322  0  4.222166  0
N  N43  1  0.17007320  0.15308988  0.50047064  1  0.38345  0  0.063975  0.521653  0  4.221775  0
N  N44  1  0.82994301  0.49942212  0.84693672  1  0.385292  0  0.064001  0.522266  0  4.221834  0
N  N45  1  0.17022135  0.49876209  0.15176380  1  0.413  0  0.063242  0.521152  0  4.222538  0
O  O46  1  0.85511959  0.91053286  0.56194841  1  -0.420946  0  -0.114868  -0.312474  0  1.887449  0
O  O47  1  0.93697095  0.81985781  0.44176538  1  -0.43386  0  -0.112251  -0.309159  0  1.888277  0
O  O48  1  0.14383887  0.09126964  0.56170855  1  -0.422649  0  -0.115392  -0.312441  0  1.887499  0
O  O49  1  0.06373298  0.18106009  0.44016988  1  -0.44043  0  -0.113232  -0.310151  0  1.886465  0
O  O50  1  0.85611475  0.43812960  0.90868878  1  -0.424487  0  -0.114903  -0.312143  0  1.88823  0
O  O51  1  0.93630286  0.55973978  0.81901586  1  -0.440704  0  -0.113604  -0.310765  0  1.885784  0
O  O52  1  0.14488320  0.43809116  0.08945238  1  -0.438628  0  -0.114911  -0.312431  0  1.888024  0
O  O53  1  0.06306825  0.55826731  0.18013599  1  -0.433436  0  -0.112178  -0.309085  0  1.888029  0
F  F54  1  0.22935571  0.50035305  0.50106630  1  -0.808033  0  -0.193987  -0.493878  0  1.365592  0
F  F55  1  0.77066095  0.49893266  0.49964999  1  -0.80821  0  -0.194025  -0.490414  0  1.361399  0
F  F56  1  0.00001474  0.58504695  0.41496970  1  -0.827062  0  -0.226706  -0.525972  0  1.130063  0
F  F57  1  0.00000413  0.41398253  0.58600493  1  -0.826213  0  -0.239599  -0.53412  0  1.086257  0
F  F58  1  0.99827779  0.58505670  0.58570977  1  -0.827975  0  -0.232453  -0.529556  0  1.110044  0
F  F59  1  0.00175187  0.41430032  0.41494019  1  -0.827706  0  -0.232448  -0.529594  0  1.11014  0
