# generated using pymatgen
data_ZnH11C17N3O4
_symmetry_space_group_name_H-M   'P 1'
_cell_length_a   7.69764629
_cell_length_b   9.23350044
_cell_length_c   10.53546195
_cell_angle_alpha   90.00008238
_cell_angle_beta   95.95964824
_cell_angle_gamma   89.99998555
_symmetry_Int_Tables_number   1
_chemical_formula_structural   ZnH11C17N3O4
_chemical_formula_sum   'Zn2 H22 C34 N6 O8'
_cell_volume   744.77363721
_cell_formula_units_Z   2
loop_
 _symmetry_equiv_pos_site_id
 _symmetry_equiv_pos_as_xyz
  1  'x, y, z'
loop_
 _atom_site_type_symbol
 _atom_site_label
 _atom_site_symmetry_multiplicity
 _atom_site_fract_x
 _atom_site_fract_y
 _atom_site_fract_z
 _atom_site_occupancy
 _atom_site_hle17_bader_spin_density
 _atom_site_hle17_ddec_charge
 _atom_site_hle17_ddec_spin_density
 _atom_site_hle17_ddec_sum_bond_order
 _atom_site_hle17_magmom
 _atom_site_hse06_10hf_bader_spin_density
 _atom_site_hse06_10hf_ddec_charge
 _atom_site_hse06_10hf_ddec_spin_density
 _atom_site_hse06_10hf_ddec_sum_bond_order
 _atom_site_hse06_10hf_magmom
 _atom_site_hse06_bader_spin_density
 _atom_site_hse06_ddec_charge
 _atom_site_hse06_ddec_spin_density
 _atom_site_hse06_ddec_sum_bond_order
 _atom_site_hse06_magmom
 _atom_site_pbe_bader_spin_density
 _atom_site_pbe_cm5_charge
 _atom_site_pbe_ddec_charge
 _atom_site_pbe_ddec_spin_density
 _atom_site_pbe_ddec_sum_bond_order
 _atom_site_pbe_magmom
Zn  Zn0  1  0.45391100  0.25725361  0.23308254  1  0  0.95976  0  1.922217  0  0  0.767181  0  2.380869  0  0  0.814365  0  2.331028  0  0  0.691088  0.734355  0  2.414718  0
Zn  Zn1  1  0.95390974  0.74274699  0.73308270  1  0  0.959731  0  1.922244  0  0  0.767157  0  2.380878  0  0  0.814341  0  2.331037  0  0  0.69108  0.734328  0  2.414728  0
H  H2  1  0.44930633  0.34066459  0.94049977  1  0  0.097334  0  0.957587  0  0  0.100066  0  1.028708  0  0  0.103155  0  1.026019  0  0  0.117218  0.097942  0  1.030516  0
H  H3  1  0.94930697  0.65933526  0.44050055  1  0  0.097372  0  0.957624  0  0  0.100087  0  1.028763  0  0  0.103177  0  1.026073  0  0  0.117238  0.097962  0  1.030572  0
H  H4  1  0.42352400  0.20890508  0.73273987  1  0  0.097126  0  0.959855  0  0  0.106736  0  1.020597  0  0  0.108509  0  1.022306  0  0  0.102493  0.105025  0  1.020406  0
H  H5  1  0.92352463  0.79109336  0.23273891  1  0  0.097112  0  0.959867  0  0  0.106712  0  1.020618  0  0  0.108489  0  1.022311  0  0  0.10248  0.105003  0  1.020425  0
H  H6  1  0.38867055  0.93444574  0.73540203  1  0  0.111108  0  0.934206  0  0  0.122857  0  0.990123  0  0  0.125888  0  0.987602  0  0  0.11129  0.120868  0  0.991374  0
H  H7  1  0.88867518  0.06555379  0.23540142  1  0  0.111121  0  0.934168  0  0  0.122873  0  0.990086  0  0  0.125903  0  0.987565  0  0  0.111296  0.120885  0  0.991338  0
H  H8  1  0.37790075  0.81066404  0.93990334  1  0  0.11488  0  0.971208  0  0  0.12078  0  1.03894  0  0  0.124449  0  1.037111  0  0  0.109315  0.118318  0  1.040177  0
H  H9  1  0.87790275  0.18933691  0.43990268  1  0  0.114887  0  0.971171  0  0  0.120836  0  1.038859  0  0  0.124508  0  1.037025  0  0  0.109324  0.118374  0  1.040096  0
H  H10  1  0.35475589  0.72169819  0.11994683  1  0  0.113892  0  0.971664  0  0  0.12022  0  1.040423  0  0  0.123561  0  1.038588  0  0  0.109382  0.118075  0  1.041563  0
H  H11  1  0.85475338  0.27830116  0.61994631  1  0  0.113884  0  0.971657  0  0  0.120229  0  1.040389  0  0  0.12357  0  1.038557  0  0  0.10939  0.118084  0  1.041528  0
H  H12  1  0.34769727  0.63062998  0.33794887  1  0  0.101838  0  0.953035  0  0  0.110757  0  1.013752  0  0  0.112326  0  1.014231  0  0  0.10853  0.10929  0  1.014133  0
H  H13  1  0.84769867  0.36937081  0.83794876  1  0  0.101812  0  0.952937  0  0  0.11068  0  1.013716  0  0  0.112242  0  1.014192  0  0  0.108518  0.109212  0  1.014103  0
H  H14  1  0.40129421  0.80460749  0.52446863  1  0  0.119681  0  0.965259  0  0  0.123913  0  1.032705  0  0  0.127611  0  1.030915  0  0  0.107729  0.121277  0  1.033949  0
H  H15  1  0.90129360  0.19539278  0.02446872  1  0  0.119669  0  0.965278  0  0  0.123901  0  1.032723  0  0  0.127599  0  1.030935  0  0  0.107725  0.121268  0  1.033967  0
H  H16  1  0.45172255  0.06640419  0.47517192  1  0  0.072945  0  0.9407  0  0  0.082503  0  1.001488  0  0  0.084516  0  1.000479  0  0  0.114478  0.080743  0  1.002711  0
H  H17  1  0.95172257  0.93359572  0.97517242  1  0  0.072935  0  0.940726  0  0  0.082494  0  1.001515  0  0  0.084506  0  1.000506  0  0  0.11447  0.080734  0  1.002739  0
H  H18  1  0.68277187  0.41251558  0.45111239  1  0  0.094243  0  1.004359  0  0  0.09671  0  1.07694  0  0  0.10109  0  1.072624  0  0  0.114785  0.093538  0  1.079872  0
H  H19  1  0.18276990  0.58748435  0.95111277  1  0  0.094212  0  1.004387  0  0  0.096668  0  1.076957  0  0  0.101048  0  1.072641  0  0  0.114754  0.093496  0  1.079892  0
H  H20  1  0.09127327  0.43511173  0.58745717  1  0  0.129477  0  0.948862  0  0  0.137777  0  1.010052  0  0  0.142007  0  1.007899  0  0  0.112541  0.134557  0  1.012042  0
H  H21  1  0.59127262  0.56488870  0.08745678  1  0  0.129465  0  0.948844  0  0  0.137767  0  1.010033  0  0  0.141997  0  1.007882  0  0  0.112524  0.134546  0  1.012023  0
H  H22  1  0.16243392  0.28505689  0.40241041  1  0  0.090883  0  0.969249  0  0  0.096562  0  1.037239  0  0  0.09961  0  1.034803  0  0  0.115843  0.094299  0  1.039049  0
H  H23  1  0.66243267  0.71494297  0.90240959  1  0  0.090874  0  0.969241  0  0  0.096555  0  1.037224  0  0  0.099604  0  1.034788  0  0  0.115842  0.094293  0  1.039034  0
C  C24  1  0.43522504  0.22301907  0.93735906  1  0  0.141186  0  3.674112  0  0  0.109605  0  3.925665  0  0  0.116257  0  3.943115  0  0  0.054224  0.105247  0  3.913269  0
C  C25  1  0.93522697  0.77697970  0.43735819  1  0  0.141127  0  3.674127  0  0  0.109534  0  3.925694  0  0  0.116181  0  3.943148  0  0  0.054152  0.105175  0  3.913295  0
C  C26  1  0.41983558  0.14860624  0.82133517  1  0  -0.12006  0  3.725473  0  0  -0.131395  0  3.975682  0  0  -0.138599  0  3.998464  0  0  -0.082907  -0.126148  0  3.960372  0
C  C27  1  0.91983751  0.85139342  0.32133439  1  0  -0.119989  0  3.725396  0  0  -0.131302  0  3.975592  0  0  -0.138501  0  3.998377  0  0  -0.082837  -0.126056  0  3.960283  0
C  C28  1  0.40037232  0.99857751  0.82265003  1  0  0.011429  0  3.689868  0  0  -0.009336  0  3.940586  0  0  -0.005222  0  3.958043  0  0  -0.063744  -0.011837  0  3.928372  0
C  C29  1  0.90037435  0.00142108  0.32265103  1  0  0.011406  0  3.689813  0  0  -0.009363  0  3.940538  0  0  -0.00525  0  3.957998  0  0  -0.06375  -0.011867  0  3.928327  0
C  C30  1  0.39495821  0.92775506  0.93916123  1  0  -0.140445  0  3.682353  0  0  -0.158874  0  3.93363  0  0  -0.166585  0  3.955186  0  0  -0.07883  -0.15454  0  3.919775  0
C  C31  1  0.89495631  0.07224589  0.43916012  1  0  -0.140433  0  3.682272  0  0  -0.158911  0  3.933541  0  0  -0.166628  0  3.955095  0  0  -0.078841  -0.154576  0  3.919686  0
C  C32  1  0.41051676  0.00936373  0.05163767  1  0  0.168889  0  3.763235  0  0  0.164863  0  3.998313  0  0  0.170698  0  4.019914  0  0  0.118409  0.160821  0  3.984168  0
C  C33  1  0.91051677  0.99063550  0.55163824  1  0  0.168873  0  3.763322  0  0  0.16485  0  3.998408  0  0  0.17069  0  4.01998  0  0  0.118402  0.160806  0  3.984262  0
C  C34  1  0.40521448  0.94450973  0.18013857  1  0  0.181838  0  3.748865  0  0  0.179492  0  3.981726  0  0  0.186197  0  4.002305  0  0  0.122916  0.174776  0  3.967927  0
C  C35  1  0.90521331  0.05548971  0.68013787  1  0  0.181805  0  3.748912  0  0  0.179405  0  3.981841  0  0  0.186143  0  4.002366  0  0  0.122896  0.174691  0  3.968038  0
C  C36  1  0.37563642  0.79695790  0.19954544  1  0  -0.147828  0  3.695572  0  0  -0.167015  0  3.942718  0  0  -0.17446  0  3.964328  0  0  -0.078328  -0.161829  0  3.927537  0
C  C37  1  0.87563261  0.20304157  0.69954567  1  0  -0.147785  0  3.695646  0  0  -0.166959  0  3.942775  0  0  -0.174417  0  3.964373  0  0  -0.078293  -0.16177  0  3.927591  0
C  C38  1  0.37219451  0.74532428  0.32345853  1  0  0.010261  0  3.697392  0  0  -0.007583  0  3.945546  0  0  -0.004355  0  3.965422  0  0  -0.061571  -0.008971  0  3.931582  0
C  C39  1  0.87219201  0.25467540  0.82345703  1  0  0.01026  0  3.697356  0  0  -0.007546  0  3.945532  0  0  -0.004307  0  3.965401  0  0  -0.0616  -0.008935  0  3.931572  0
C  C40  1  0.39991407  0.84098689  0.42605960  1  0  -0.108159  0  3.697982  0  0  -0.121702  0  3.950169  0  0  -0.128241  0  3.971045  0  0  -0.077982  -0.117263  0  3.935391  0
C  C41  1  0.89991418  0.15901403  0.92605913  1  0  -0.108147  0  3.697985  0  0  -0.121688  0  3.950157  0  0  -0.128229  0  3.971032  0  0  -0.077982  -0.117252  0  3.935386  0
C  C42  1  0.42888354  0.98606619  0.39936009  1  0  0.139408  0  3.708938  0  0  0.107713  0  3.961588  0  0  0.114308  0  3.980229  0  0  0.051504  0.103797  0  3.94844  0
C  C43  1  0.92888237  0.01393468  0.89936029  1  0  0.139396  0  3.708969  0  0  0.107699  0  3.961616  0  0  0.114292  0  3.980264  0  0  0.051508  0.103783  0  3.948472  0
C  C44  1  0.55386781  0.41684117  0.48578045  1  0  0.101405  0  3.669419  0  0  0.060999  0  3.92385  0  0  0.07081  0  3.936152  0  0  0.041246  0.05441  0  3.916653  0
C  C45  1  0.05386714  0.58315992  0.98578187  1  0  0.101375  0  3.669481  0  0  0.061067  0  3.923831  0  0  0.07088  0  3.936131  0  0  0.041288  0.054477  0  3.916633  0
C  C46  1  0.52567128  0.50505049  0.58914827  1  0  -0.118837  0  3.722382  0  0  -0.101138  0  3.957979  0  0  -0.111606  0  3.978141  0  0  -0.010456  -0.094915  0  3.944838  0
C  C47  1  0.02567120  0.49494996  0.08915115  1  0  -0.1188  0  3.722372  0  0  -0.101176  0  3.958012  0  0  -0.111646  0  3.978175  0  0  -0.010408  -0.094952  0  3.944874  0
C  C48  1  0.35739638  0.51106885  0.62933439  1  0  0.003489  0  3.689601  0  0  0.011862  0  3.92347  0  0  0.014969  0  3.938492  0  0  0.015749  0.009934  0  3.913607  0
C  C49  1  0.85739573  0.48893268  0.12933486  1  0  0.003481  0  3.689721  0  0  0.011875  0  3.923552  0  0  0.014983  0  3.938572  0  0  0.0157  0.009949  0  3.913689  0
C  C50  1  0.22488055  0.42961757  0.56231854  1  0  -0.13698  0  3.690396  0  0  -0.156312  0  3.941732  0  0  -0.162699  0  3.9585  0  0  -0.081171  -0.152774  0  3.931619  0
C  C51  1  0.72487989  0.57038171  0.06231911  1  0  -0.136968  0  3.690391  0  0  -0.156311  0  3.941724  0  0  -0.1627  0  3.958494  0  0  -0.081144  -0.152773  0  3.93161  0
C  C52  1  0.26364158  0.34558110  0.45955430  1  0  0.12869  0  3.688888  0  0  0.092193  0  3.949146  0  0  0.101882  0  3.962487  0  0  0.04165  0.085614  0  3.941582  0
C  C53  1  0.76364163  0.65441883  0.95955445  1  0  0.128736  0  3.688833  0  0  0.092249  0  3.949107  0  0  0.101939  0  3.96245  0  0  0.041683  0.08567  0  3.941542  0
C  C54  1  0.66917401  0.60126647  0.64745353  1  0  0.635952  0  3.926046  0  0  0.585776  0  4.218957  0  0  0.619739  0  4.21283  0  0  0.19802  0.562946  0  4.222039  0
C  C55  1  0.16917264  0.39873404  0.14745525  1  0  0.635997  0  3.926127  0  0  0.58583  0  4.21904  0  0  0.619792  0  4.212912  0  0  0.198057  0.563001  0  4.222125  0
C  C56  1  0.31876700  0.59827639  0.74398007  1  0  0.667424  0  3.926052  0  0  0.612876  0  4.229737  0  0  0.647531  0  4.218133  0  0  0.213826  0.589155  0  4.236919  0
C  C57  1  0.81876636  0.40172534  0.24397948  1  0  0.667366  0  3.926156  0  0  0.612889  0  4.229707  0  0  0.647544  0  4.218102  0  0  0.213841  0.589166  0  4.236888  0
N  N58  1  0.42539841  0.33927467  0.42089994  1  0  -0.338814  0  3.286242  0  0  -0.260297  0  3.561265  0  0  -0.277998  0  3.574167  0  0  -0.330179  -0.249446  0  3.554677  0
N  N59  1  0.92539716  0.66072516  0.92089999  1  0  -0.338781  0  3.286231  0  0  -0.26032  0  3.561278  0  0  -0.278022  0  3.574178  0  0  -0.330202  -0.249465  0  3.554686  0
N  N60  1  0.43113667  0.15450261  0.04898166  1  0  -0.336645  0  3.280019  0  0  -0.261445  0  3.533398  0  0  -0.279113  0  3.550146  0  0  -0.315654  -0.249128  0  3.521581  0
N  N61  1  0.93113671  0.84549769  0.54898110  1  0  -0.336655  0  3.280094  0  0  -0.261421  0  3.533435  0  0  -0.279093  0  3.550182  0  0  -0.315648  -0.249103  0  3.521616  0
N  N62  1  0.43033299  0.03651180  0.28021801  1  0  -0.348443  0  3.294933  0  0  -0.273304  0  3.55923  0  0  -0.291501  0  3.575042  0  0  -0.318487  -0.260615  0  3.548196  0
N  N63  1  0.93033170  0.96348671  0.78021750  1  0  -0.348396  0  3.294924  0  0  -0.273233  0  3.559228  0  0  -0.291444  0  3.575033  0  0  -0.318457  -0.260543  0  3.548192  0
O  O64  1  0.62947217  0.72610432  0.68388470  1  0  -0.614788  0  1.943658  0  0  -0.565571  0  2.176902  0  0  -0.590764  0  2.170056  0  0  -0.312659  -0.548043  0  2.181171  0
O  O65  1  0.12947081  0.27389518  0.18388436  1  0  -0.614823  0  1.943648  0  0  -0.565598  0  2.176891  0  0  -0.59079  0  2.170044  0  0  -0.312662  -0.548066  0  2.181159  0
O  O66  1  0.82681423  0.55341029  0.65496388  1  0  -0.628416  0  1.98941  0  0  -0.559668  0  2.237601  0  0  -0.588063  0  2.227965  0  0  -0.318658  -0.539503  0  2.243124  0
O  O67  1  0.32681285  0.44659021  0.15496661  1  0  -0.628441  0  1.989491  0  0  -0.559704  0  2.237697  0  0  -0.5881  0  2.228062  0  0  -0.318717  -0.539539  0  2.243221  0
O  O68  1  0.20863408  0.70170520  0.72140475  1  0  -0.659975  0  2.082917  0  0  -0.592207  0  2.367772  0  0  -0.61967  0  2.350965  0  0  -0.338238  -0.572671  0  2.378202  0
O  O69  1  0.70863346  0.29829651  0.22140498  1  0  -0.659937  0  2.082977  0  0  -0.592187  0  2.367784  0  0  -0.619648  0  2.350976  0  0  -0.338213  -0.572658  0  2.378228  0
O  O70  1  0.39251392  0.56099808  0.85032162  1  0  -0.593732  0  1.941111  0  0  -0.54559  0  2.166748  0  0  -0.570602  0  2.159226  0  0  -0.303375  -0.527302  0  2.170833  0
O  O71  1  0.89251328  0.43900272  0.35032203  1  0  -0.593759  0  1.941096  0  0  -0.545643  0  2.166702  0  0  -0.570657  0  2.159183  0  0  -0.303408  -0.527353  0  2.170786  0
