# generated using pymatgen
data_ZnH6C6N5O3
_symmetry_space_group_name_H-M   'P 1'
_cell_length_a   9.44103929
_cell_length_b   10.15310705
_cell_length_c   26.23881327
_cell_angle_alpha   90.97233226
_cell_angle_beta   89.99985971
_cell_angle_gamma   89.99990356
_symmetry_Int_Tables_number   1
_chemical_formula_structural   ZnH6C6N5O3
_chemical_formula_sum   'Zn8 H48 C48 N40 O24'
_cell_volume   2514.78243875
_cell_formula_units_Z   8
loop_
 _symmetry_equiv_pos_site_id
 _symmetry_equiv_pos_as_xyz
  1  'x, y, z'
loop_
 _atom_site_type_symbol
 _atom_site_label
 _atom_site_symmetry_multiplicity
 _atom_site_fract_x
 _atom_site_fract_y
 _atom_site_fract_z
 _atom_site_occupancy
 _atom_site_pbe_bader_charge
 _atom_site_pbe_bader_spin_density
 _atom_site_pbe_cm5_charge
 _atom_site_pbe_ddec_charge
 _atom_site_pbe_ddec_spin_density
 _atom_site_pbe_ddec_sum_bond_order
 _atom_site_pbe_magmom
Zn  Zn0  1  0.57721918  0.16540113  0.30055293  1  1.225206  0  0.726765  0.736018  0  2.491698  0
Zn  Zn1  1  0.07722080  0.33460460  0.69944718  1  1.225133  0  0.726787  0.7361  0  2.4917  0
Zn  Zn2  1  0.42278084  0.83460236  0.69945039  1  1.225152  0  0.72674  0.736009  0  2.491738  0
Zn  Zn3  1  0.92278134  0.66539991  0.30055120  1  1.225197  0  0.726733  0.73592  0  2.491684  0
Zn  Zn4  1  0.42241328  0.37441008  0.20461842  1  1.226846  0  0.726051  0.735976  0  2.486087  0
Zn  Zn5  1  0.92241150  0.12559113  0.79538211  1  1.226866  0  0.726089  0.735967  0  2.486082  0
Zn  Zn6  1  0.57758674  0.62558749  0.79538523  1  1.226883  0  0.726107  0.736034  0  2.486125  0
Zn  Zn7  1  0.07758958  0.87441339  0.20461665  1  1.22692  0  0.726121  0.736062  0  2.486005  0
H  H8  1  0.75226496  0.19789684  0.47272130  1  0.647245  0  0.301417  0.349344  0  0.975719  0
H  H9  1  0.25228160  0.30210858  0.52728095  1  0.647187  0  0.301445  0.349536  0  0.975683  0
H  H10  1  0.24772129  0.80211353  0.52728360  1  0.647176  0  0.301389  0.349431  0  0.975752  0
H  H11  1  0.74772902  0.69788116  0.47271655  1  0.647219  0  0.301418  0.349507  0  0.975692  0
H  H12  1  0.22763872  0.33864379  0.03647873  1  0.643129  0  0.301735  0.349658  0  0.975127  0
H  H13  1  0.72764526  0.16135575  0.96352425  1  0.643209  0  0.301745  0.349781  0  0.975135  0
H  H14  1  0.77236236  0.66134786  0.96352641  1  0.643211  0  0.301709  0.349664  0  0.975308  0
H  H15  1  0.27237489  0.83863992  0.03647177  1  0.64316  0  0.301715  0.349678  0  0.975301  0
H  H16  1  0.29964756  0.81614199  0.27729066  1  0.48104  0  0.308766  0.309557  0  0.965952  0
H  H17  1  0.79963877  0.68385855  0.72270797  1  0.481045  0  0.308764  0.309479  0  0.965943  0
H  H18  1  0.70036305  0.18385465  0.72270803  1  0.481009  0  0.308753  0.309501  0  0.965793  0
H  H19  1  0.20035701  0.31614204  0.27728885  1  0.480951  0  0.308748  0.309559  0  0.965937  0
H  H20  1  0.44663546  0.88550982  0.30612639  1  0.490634  0  0.301658  0.305813  0  0.994157  0
H  H21  1  0.94662274  0.61448260  0.69387053  1  0.490713  0  0.301655  0.305781  0  0.994181  0
H  H22  1  0.55337727  0.11447894  0.69387187  1  0.490737  0  0.301708  0.305855  0  0.994114  0
H  H23  1  0.05336880  0.38551603  0.30612513  1  0.490557  0  0.301684  0.305878  0  0.994093  0
H  H24  1  0.18979725  0.25150785  0.14330958  1  0.52822  0  0.29341  0.321923  0  0.99975  0
H  H25  1  0.68980438  0.24849373  0.85669307  1  0.528152  0  0.293473  0.322042  0  0.999588  0
H  H26  1  0.81020171  0.74849168  0.85669638  1  0.528296  0  0.293547  0.322037  0  0.999597  0
H  H27  1  0.31020623  0.75150979  0.14330606  1  0.528345  0  0.293485  0.322041  0  0.999517  0
H  H28  1  0.09919612  0.10520481  0.14510226  1  0.485891  0  0.302892  0.307044  0  0.97985  0
H  H29  1  0.59919559  0.39479596  0.85489817  1  0.485874  0  0.302862  0.307031  0  0.979909  0
H  H30  1  0.90080708  0.89479768  0.85490220  1  0.485897  0  0.302875  0.307034  0  0.979816  0
H  H31  1  0.40081079  0.60520657  0.14510209  1  0.485918  0  0.3029  0.307066  0  0.979857  0
H  H32  1  0.55411041  0.65563995  0.19988773  1  0.500712  0  0.299302  0.303638  0  0.999224  0
H  H33  1  0.05411345  0.84436588  0.80011573  1  0.500275  0  0.299308  0.303702  0  0.99912  0
H  H34  1  0.44588537  0.34436255  0.80011634  1  0.500355  0  0.299316  0.303726  0  0.999062  0
H  H35  1  0.94588657  0.15564156  0.19988648  1  0.500434  0  0.299294  0.303591  0  0.999248  0
H  H36  1  0.70171901  0.72366524  0.22870187  1  0.465535  0  0.307071  0.307057  0  0.969452  0
H  H37  1  0.20172024  0.77633543  0.77130028  1  0.465587  0  0.307064  0.307074  0  0.969459  0
H  H38  1  0.29827572  0.27633530  0.77130029  1  0.465735  0  0.307047  0.307037  0  0.969511  0
H  H39  1  0.79827766  0.22366710  0.22870037  1  0.465498  0  0.307125  0.307103  0  0.969498  0
H  H40  1  0.80166872  0.29059852  0.36418631  1  0.523252  0  0.292873  0.320972  0  0.995907  0
H  H41  1  0.30167099  0.20940485  0.63581511  1  0.523226  0  0.292896  0.320995  0  0.995859  0
H  H42  1  0.19833554  0.70940598  0.63581397  1  0.523199  0  0.292851  0.320963  0  0.995841  0
H  H43  1  0.69832903  0.79059769  0.36418363  1  0.523282  0  0.29282  0.320929  0  0.995982  0
H  H44  1  0.89860497  0.43295315  0.36113049  1  0.476522  0  0.30135  0.303165  0  0.991197  0
H  H45  1  0.39860323  0.06704613  0.63886929  1  0.476524  0  0.301371  0.303241  0  0.991085  0
H  H46  1  0.10140353  0.56704644  0.63886784  1  0.476524  0  0.301403  0.303298  0  0.991016  0
H  H47  1  0.60139785  0.93295739  0.36113061  1  0.476486  0  0.301356  0.303221  0  0.991061  0
H  H48  1  0.63524267  0.02309578  0.58094402  1  0.131973  0  0.108264  0.131336  0  0.993466  0
H  H49  1  0.13525445  0.47690098  0.41905673  1  0.13194  0  0.108263  0.131358  0  0.993487  0
H  H50  1  0.36473617  0.97691854  0.41906015  1  0.1319  0  0.108212  0.131341  0  0.993517  0
H  H51  1  0.86474663  0.52308188  0.58093995  1  0.13209  0  0.108199  0.131223  0  0.993618  0
H  H52  1  0.64074546  0.53328449  0.07925038  1  0.104116  0  0.108466  0.131719  0  0.991627  0
H  H53  1  0.14075593  0.96671434  0.92074761  1  0.104024  0  0.108443  0.131598  0  0.991672  0
H  H54  1  0.35924079  0.46671014  0.92075135  1  0.103806  0  0.108501  0.131621  0  0.991564  0
H  H55  1  0.85926315  0.03328428  0.07924843  1  0.104263  0  0.108492  0.131723  0  0.991625  0
C  C56  1  0.59247350  0.13562146  0.41020324  1  1.508772  0  0.211931  0.5852  0  4.183515  0
C  C57  1  0.09248112  0.36437734  0.58979832  1  1.509224  0  0.21188  0.58509  0  4.183904  0
C  C58  1  0.40751804  0.86438795  0.58979898  1  1.508646  0  0.211797  0.585005  0  4.184035  0
C  C59  1  0.90752207  0.63560943  0.41020220  1  1.508799  0  0.211817  0.585073  0  4.183813  0
C  C60  1  0.62138106  0.08260617  0.50298859  1  0.503822  0  0.082222  0.293645  0  4.077239  0
C  C61  1  0.12139771  0.41739260  0.49701143  1  0.50386  0  0.082272  0.293657  0  4.07738  0
C  C62  1  0.37859142  0.91741306  0.49701715  1  0.504078  0  0.082274  0.293644  0  4.077362  0
C  C63  1  0.87860020  0.58258929  0.50298372  1  0.503846  0  0.082269  0.293609  0  4.077179  0
C  C64  1  0.54413868  0.06791680  0.45662215  1  0.003135  0  -0.033982  -0.159832  0  4.006047  0
C  C65  1  0.04414968  0.43207915  0.54337715  1  0.002595  0  -0.034127  -0.159965  0  4.006189  0
C  C66  1  0.45584016  0.93209062  0.54338235  1  0.002237  0  -0.034132  -0.159998  0  4.00602  0
C  C67  1  0.95585034  0.56790175  0.45661761  1  0.00276  0  -0.034069  -0.159797  0  4.005891  0
C  C68  1  0.57557246  0.01382436  0.54553985  1  -0.003438  0  -0.100511  -0.194511  0  3.946624  0
C  C69  1  0.07558398  0.48617546  0.45446098  1  -0.003467  0  -0.10055  -0.194619  0  3.94674  0
C  C70  1  0.42440214  0.98619094  0.45446547  1  -0.003529  0  -0.10049  -0.194553  0  3.94688  0
C  C71  1  0.92441074  0.51380445  0.54553416  1  -0.003358  0  -0.100435  -0.194296  0  3.946769  0
C  C72  1  0.39871179  0.39970103  0.09537270  1  1.501439  0  0.211079  0.583857  0  4.184022  0
C  C73  1  0.89872837  0.10030415  0.90462865  1  1.501723  0  0.211031  0.583889  0  4.183571  0
C  C74  1  0.60128929  0.60029657  0.90462829  1  1.501711  0  0.210965  0.583492  0  4.183772  0
C  C75  1  0.10129707  0.89969738  0.09537314  1  1.501552  0  0.211023  0.58376  0  4.183464  0
C  C76  1  0.45066276  0.45020960  0.04628138  1  -0.022384  0  -0.033666  -0.160448  0  4.01055  0
C  C77  1  0.95066427  0.04979547  0.95372221  1  -0.0225  0  -0.033665  -0.160467  0  4.010336  0
C  C78  1  0.54933408  0.54978499  0.95372568  1  -0.02221  0  -0.033646  -0.160522  0  4.010075  0
C  C79  1  0.04934317  0.95021004  0.04627541  1  -0.022275  0  -0.03374  -0.160586  0  4.010009  0
C  C80  1  0.36966020  0.42996269  0.00100516  1  0.535784  0  0.083048  0.294546  0  4.074548  0
C  C81  1  0.86966983  0.07002676  0.99899838  1  0.535481  0  0.083112  0.294797  0  4.074554  0
C  C82  1  0.63033240  0.57003089  0.99900419  1  0.535647  0  0.083173  0.294949  0  4.074319  0
C  C83  1  0.13034396  0.92996400  0.00099646  1  0.53581  0  0.083219  0.294989  0  4.073858  0
C  C84  1  0.57897697  0.51948957  0.04451578  1  0.02664  0  -0.099299  -0.192719  0  3.949237  0
C  C85  1  0.07898294  0.98050937  0.95548265  1  0.026609  0  -0.099266  -0.19255  0  3.948886  0
C  C86  1  0.42101669  0.48050208  0.95548973  1  0.027068  0  -0.09917  -0.192178  0  3.948695  0
C  C87  1  0.92102661  0.01949716  0.04451041  1  0.026836  0  -0.09925  -0.192525  0  3.949032  0
C  C88  1  0.75784631  0.40891345  0.30493031  1  1.535064  0  0.324458  0.535327  0  4.139029  0
C  C89  1  0.25784203  0.09108804  0.69506885  1  1.535053  0  0.324473  0.535299  0  4.139015  0
C  C90  1  0.24216006  0.59108811  0.69506805  1  1.53509  0  0.324446  0.535225  0  4.139206  0
C  C91  1  0.74215693  0.90891846  0.30492802  1  1.53514  0  0.324366  0.535075  0  4.139137  0
C  C92  1  0.66658314  0.53532947  0.24816256  1  1.543696  0  0.328005  0.551222  0  4.127844  0
C  C93  1  0.16658736  0.96467619  0.75183852  1  1.54367  0  0.327971  0.551205  0  4.127884  0
C  C94  1  0.33341370  0.46467304  0.75183923  1  1.543653  0  0.327976  0.551248  0  4.127815  0
C  C95  1  0.83341266  0.03532929  0.24816253  1  1.543667  0  0.328007  0.551053  0  4.127798  0
C  C96  1  0.33389985  0.00447502  0.25733422  1  1.556265  0  0.329404  0.552404  0  4.129723  0
C  C97  1  0.83389568  0.49552833  0.74266450  1  1.555355  0  0.329355  0.552238  0  4.130087  0
C  C98  1  0.66610652  0.99552849  0.74266720  1  1.555125  0  0.32927  0.552413  0  4.129782  0
C  C99  1  0.16609904  0.50447423  0.25733271  1  1.555534  0  0.329318  0.552334  0  4.129876  0
C  C100  1  0.23984991  0.13077460  0.20116506  1  1.515242  0  0.324509  0.533294  0  4.139721  0
C  C101  1  0.73984557  0.36922397  0.79883448  1  1.515153  0  0.324567  0.533466  0  4.139516  0
C  C102  1  0.76015435  0.86922396  0.79883861  1  1.514996  0  0.324651  0.533571  0  4.13917  0
C  C103  1  0.26015445  0.63077660  0.20116425  1  1.515261  0  0.324564  0.533445  0  4.139336  0
N  N104  1  0.35310449  0.89915232  0.28753817  1  -1.295918  0  -0.580913  -0.637721  0  3.285777  0
N  N105  1  0.85308956  0.60083927  0.71245958  1  -1.295973  0  -0.580827  -0.637458  0  3.286041  0
N  N106  1  0.64691036  0.10083250  0.71246005  1  -1.296019  0  -0.580861  -0.637617  0  3.285778  0
N  N107  1  0.14690411  0.39915837  0.28753760  1  -1.295754  0  -0.580827  -0.63767  0  3.2859  0
N  N108  1  0.22734073  0.00987528  0.22225024  1  -1.230246  0  -0.382133  -0.529255  0  3.416946  0
N  N109  1  0.72733209  0.49012332  0.77774815  1  -1.229632  0  -0.382103  -0.529256  0  3.416885  0
N  N110  1  0.77266777  0.99012232  0.77775113  1  -1.229322  0  -0.382123  -0.52942  0  3.416936  0
N  N111  1  0.27266475  0.50987627  0.22224980  1  -1.229627  0  -0.382091  -0.52933  0  3.416939  0
N  N112  1  0.14757837  0.17844676  0.16604729  1  -1.292143  0  -0.585825  -0.664376  0  3.260489  0
N  N113  1  0.64758023  0.32155393  0.83395386  1  -1.292046  0  -0.585908  -0.664632  0  3.260531  0
N  N114  1  0.85241741  0.82155476  0.83395678  1  -1.292268  0  -0.585921  -0.664527  0  3.260479  0
N  N115  1  0.35242509  0.67844566  0.16604524  1  -1.292405  0  -0.58592  -0.664593  0  3.260368  0
N  N116  1  0.34776587  0.19856935  0.22192668  1  -0.865401  0  -0.29973  -0.348688  0  3.495326  0
N  N117  1  0.84776285  0.30142905  0.77807199  1  -0.865394  0  -0.299672  -0.348598  0  3.495244  0
N  N118  1  0.65223204  0.80142726  0.77807582  1  -0.865351  0  -0.299759  -0.348722  0  3.495216  0
N  N119  1  0.15223611  0.69857351  0.22192485  1  -0.865551  0  -0.29978  -0.348676  0  3.495208  0
N  N120  1  0.40916477  0.11613761  0.25848787  1  -0.859505  0  -0.300072  -0.339645  0  3.447558  0
N  N121  1  0.90915657  0.38385872  0.74150959  1  -0.859005  0  -0.300172  -0.339716  0  3.447692  0
N  N122  1  0.59084266  0.88385605  0.74151271  1  -0.858908  0  -0.300134  -0.339804  0  3.447683  0
N  N123  1  0.09084028  0.61614187  0.25848685  1  -0.859163  0  -0.300119  -0.339704  0  3.447642  0
N  N124  1  0.65076077  0.34137659  0.28350375  1  -0.875524  0  -0.301213  -0.350098  0  3.500925  0
N  N125  1  0.15075941  0.15862607  0.71649628  1  -0.875604  0  -0.301118  -0.349942  0  3.500917  0
N  N126  1  0.34924136  0.65862495  0.71649804  1  -0.875575  0  -0.301136  -0.349899  0  3.500907  0
N  N127  1  0.84923532  0.84137748  0.28350019  1  -0.875497  0  -0.301078  -0.349797  0  3.500558  0
N  N128  1  0.59110214  0.42374557  0.24656248  1  -0.829223  0  -0.298553  -0.3386  0  3.441851  0
N  N129  1  0.09109749  0.07625425  0.75343605  1  -0.829235  0  -0.298642  -0.338656  0  3.442124  0
N  N130  1  0.40889893  0.57625498  0.75343892  1  -0.829257  0  -0.298562  -0.338629  0  3.442003  0
N  N131  1  0.90889300  0.92374734  0.24655887  1  -0.829329  0  -0.298639  -0.338661  0  3.441847  0
N  N132  1  0.77185745  0.52973227  0.28381209  1  -1.243825  0  -0.381394  -0.52909  0  3.408865  0
N  N133  1  0.27185555  0.97026929  0.71618695  1  -1.243773  0  -0.381465  -0.529249  0  3.408952  0
N  N134  1  0.22814575  0.47026929  0.71618626  1  -1.24373  0  -0.381475  -0.529265  0  3.408914  0
N  N135  1  0.72814447  0.02973522  0.28381180  1  -1.243844  0  -0.381311  -0.528891  0  3.408925  0
N  N136  1  0.64842413  0.64089145  0.21798096  1  -1.301333  0  -0.581921  -0.638092  0  3.282952  0
N  N137  1  0.14842409  0.85911326  0.78201974  1  -1.300952  0  -0.581853  -0.638107  0  3.282886  0
N  N138  1  0.35157059  0.35911403  0.78201971  1  -1.301164  0  -0.581868  -0.638111  0  3.283011  0
N  N139  1  0.85157381  0.14089815  0.21797869  1  -1.301058  0  -0.581987  -0.63805  0  3.282742  0
N  N140  1  0.84724740  0.36042114  0.34080158  1  -1.286118  0  -0.586802  -0.666225  0  3.264451  0
N  N141  1  0.34724964  0.13958119  0.65919827  1  -1.286069  0  -0.586872  -0.666331  0  3.264292  0
N  N142  1  0.15275685  0.63957944  0.65919714  1  -1.286066  0  -0.586857  -0.66634  0  3.264199  0
N  N143  1  0.65275144  0.86042529  0.34080127  1  -1.286019  0  -0.586784  -0.666228  0  3.264274  0
O  O144  1  0.51950818  0.11288188  0.36887755  1  -1.185382  0  -0.338084  -0.557609  0  2.368547  0
O  O145  1  0.01951336  0.38711706  0.63112217  1  -1.18564  0  -0.338098  -0.557602  0  2.368577  0
O  O146  1  0.48048548  0.88711966  0.63112423  1  -1.185266  0  -0.338075  -0.557552  0  2.368671  0
O  O147  1  0.98048984  0.61288154  0.36887615  1  -1.18544  0  -0.338042  -0.557519  0  2.368549  0
O  O148  1  0.70260008  0.20701503  0.41148831  1  -1.182821  0  -0.302292  -0.536194  0  2.176855  0
O  O149  1  0.20261101  0.29298851  0.58851320  1  -1.182885  0  -0.302229  -0.536149  0  2.1772  0
O  O150  1  0.29738511  0.79299634  0.58851507  1  -1.182753  0  -0.302191  -0.536058  0  2.177171  0
O  O151  1  0.79739324  0.70700124  0.41148354  1  -1.182865  0  -0.30227  -0.536248  0  2.177081  0
O  O152  1  0.73744977  0.16018474  0.50733377  1  -1.160636  0  -0.364021  -0.452344  0  2.256706  0
O  O153  1  0.23746869  0.33982267  0.49266926  1  -1.160737  0  -0.363955  -0.452453  0  2.256987  0
O  O154  1  0.26253224  0.83983645  0.49267312  1  -1.160661  0  -0.363826  -0.452281  0  2.257117  0
O  O155  1  0.76253556  0.66016511  0.50732784  1  -1.160634  0  -0.363909  -0.452438  0  2.257028  0
O  O156  1  0.47724960  0.42291233  0.13533541  1  -1.184494  0  -0.337149  -0.55672  0  2.354244  0
O  O157  1  0.97725908  0.07709862  0.86466744  1  -1.184559  0  -0.337106  -0.55664  0  2.354217  0
O  O158  1  0.52274195  0.57707938  0.86466363  1  -1.184475  0  -0.337168  -0.556657  0  2.35408  0
O  O159  1  0.02274941  0.92291965  0.13533523  1  -1.184353  0  -0.337172  -0.556765  0  2.354074  0
O  O160  1  0.28058501  0.34043572  0.09738038  1  -1.182136  0  -0.303019  -0.538766  0  2.191759  0
O  O161  1  0.78059303  0.15957064  0.90262261  1  -1.182234  0  -0.303081  -0.538957  0  2.191333  0
O  O162  1  0.71942031  0.65955590  0.90262895  1  -1.182295  0  -0.302923  -0.538535  0  2.191654  0
O  O163  1  0.21943135  0.84043981  0.09737353  1  -1.18224  0  -0.302934  -0.538677  0  2.19151  0
O  O164  1  0.24505745  0.36415531  0.00035009  1  -1.159473  0  -0.364242  -0.452063  0  2.252638  0
O  O165  1  0.74507120  0.13584126  0.99965247  1  -1.1593  0  -0.36424  -0.452205  0  2.252636  0
O  O166  1  0.75493092  0.63583633  0.99965695  1  -1.159451  0  -0.36423  -0.45214  0  2.252741  0
O  O167  1  0.25494788  0.86414950  0.00034160  1  -1.159604  0  -0.364216  -0.452168  0  2.252402  0
