# generated using pymatgen
data_CuH17C21N3O5
_symmetry_space_group_name_H-M   'P 1'
_cell_length_a   7.30071214
_cell_length_b   11.55691700
_cell_length_c   23.60072608
_cell_angle_alpha   89.99948052
_cell_angle_beta   90.00002503
_cell_angle_gamma   95.60248631
_symmetry_Int_Tables_number   1
_chemical_formula_structural   CuH17C21N3O5
_chemical_formula_sum   'Cu4 H68 C84 N12 O20'
_cell_volume   1981.76913063
_cell_formula_units_Z   4
loop_
 _symmetry_equiv_pos_site_id
 _symmetry_equiv_pos_as_xyz
  1  'x, y, z'
loop_
 _atom_site_type_symbol
 _atom_site_label
 _atom_site_symmetry_multiplicity
 _atom_site_fract_x
 _atom_site_fract_y
 _atom_site_fract_z
 _atom_site_occupancy
 _atom_site_pbe_bader_charge
 _atom_site_pbe_bader_spin_density
 _atom_site_pbe_cm5_charge
 _atom_site_pbe_ddec_charge
 _atom_site_pbe_ddec_spin_density
 _atom_site_pbe_ddec_sum_bond_order
 _atom_site_pbe_magmom
Cu  Cu0  1  0.67762566  0.96813662  0.11159029  1  1.054718  0.558117  0.760729  0.722812  0.737414  2.377953  0.556
Cu  Cu1  1  0.82232562  0.03187055  0.61159327  1  1.054708  0.558124  0.760656  0.722622  0.73739  2.378234  0.556
Cu  Cu2  1  0.32235072  0.03187516  0.88840690  1  1.054691  -0.558107  0.760688  0.722673  -0.785141  2.378181  -0.556
Cu  Cu3  1  0.17765044  0.96813080  0.38840731  1  1.054712  0.558093  0.760703  0.722788  0.737358  2.377985  0.556
H  H4  1  0.69318846  0.95568496  0.95258778  1  0.57163  0.000683  0.309612  0.287462  0.000623  1.011796  0.001
H  H5  1  0.80682812  0.04433102  0.45258665  1  0.571503  0.000673  0.309693  0.287637  0.000684  1.011679  0.001
H  H6  1  0.30679835  0.04433201  0.04741195  1  0.571655  -0.000676  0.309701  0.287656  -0.000665  1.011753  -0.001
H  H7  1  0.19316578  0.95567897  0.54741392  1  0.571466  0.000666  0.309647  0.287556  0.000681  1.011798  0.001
H  H8  1  0.97685273  0.28376682  0.04358164  1  0.132502  0.00032  0.109084  0.116783  0.000269  0.990715  0.0
H  H9  1  0.52309147  0.71628849  0.54358999  1  0.132423  0.000326  0.109108  0.11681  0.000281  0.990604  0.0
H  H10  1  0.02307038  0.71627123  0.95641173  1  0.132398  -0.000321  0.109004  0.116668  -0.000285  0.990743  0.0
H  H11  1  0.47689963  0.28373804  0.45641355  1  0.132434  0.000325  0.109033  0.116716  0.00028  0.990722  0.0
H  H12  1  0.12069392  0.43830718  0.97930702  1  0.077084  4e-06  0.103804  0.100977  -6e-06  1.016036  0.0
H  H13  1  0.37921175  0.56174161  0.47932660  1  0.077772  -8e-06  0.103818  0.100976  -1.3e-05  1.015884  0.0
H  H14  1  0.87920440  0.56173007  0.02068339  1  0.07775  -4e-06  0.103819  0.100962  7e-06  1.015934  0.0
H  H15  1  0.62073072  0.43828072  0.52068499  1  0.07757  -7e-06  0.103775  0.100954  -1.2e-05  1.015987  0.0
H  H16  1  0.13753358  0.40194000  0.87619312  1  0.07687  1.6e-05  0.101734  0.092733  6e-06  1.005265  0.0
H  H17  1  0.36242288  0.59808085  0.37620913  1  0.076023  -3e-06  0.101666  0.092695  0.0  1.005496  0.0
H  H18  1  0.86240549  0.59808669  0.12380068  1  0.076194  -1.4e-05  0.101688  0.092674  -5e-06  1.005302  0.0
H  H19  1  0.63754279  0.40192401  0.62380247  1  0.075964  -5e-06  0.101624  0.092642  -1e-06  1.005501  0.0
H  H20  1  0.01003269  0.21038281  0.83631530  1  0.091405  0.000232  0.103873  0.104118  0.000122  1.001168  0.0
H  H21  1  0.48996549  0.78961714  0.33631567  1  0.091171  0.000175  0.103895  0.104165  8e-05  1.00114  0.0
H  H22  1  0.98996352  0.78962457  0.16368315  1  0.091252  -0.00023  0.103867  0.104208  -0.000135  1.001136  0.0
H  H23  1  0.51002762  0.21037111  0.66368575  1  0.09147  0.000173  0.103848  0.104192  8.5e-05  1.001043  0.0
H  H24  1  0.86489987  0.05797492  0.89962449  1  0.102058  0.000155  0.105085  0.107111  0.00011  1.045887  0.0
H  H25  1  0.63509878  0.94203776  0.39961846  1  0.10156  1.5e-05  0.105006  0.107082  -1.5e-05  1.045795  0.0
H  H26  1  0.13510824  0.94202981  0.10037778  1  0.101845  -0.000118  0.105055  0.107125  -8.5e-05  1.045801  0.0
H  H27  1  0.36487415  0.05796969  0.60037703  1  0.101845  -2.2e-05  0.105017  0.107085  -4.7e-05  1.045851  0.0
H  H28  1  0.57560325  0.77884718  0.97591260  1  0.160951  0.009769  0.129741  0.111675  0.005166  0.989819  0.007
H  H29  1  0.92438091  0.22117601  0.47591761  1  0.160877  0.009754  0.129798  0.111688  0.005165  0.989797  0.007
H  H30  1  0.42434621  0.22117599  0.02408459  1  0.161014  -0.009772  0.129824  0.111664  -0.005492  0.989789  -0.007
H  H31  1  0.07559674  0.77884360  0.52408678  1  0.160978  0.009751  0.129738  0.11165  0.005168  0.989841  0.007
H  H32  1  0.29295193  0.46284239  0.15755224  1  0.10547  0.001251  0.1  0.114702  0.000649  1.039405  0.001
H  H33  1  0.20705376  0.53712445  0.65757448  1  0.105813  0.001242  0.099991  0.114774  0.00063  1.039473  0.001
H  H34  1  0.70710180  0.53713959  0.84244071  1  0.105953  -0.001238  0.100008  0.11483  -0.000675  1.039201  -0.001
H  H35  1  0.79297487  0.46284630  0.34243711  1  0.105357  0.001256  0.100009  0.11467  0.000645  1.039433  0.001
H  H36  1  0.30453780  0.43334573  0.05560709  1  0.110975  -6e-05  0.096927  0.101011  -5.9e-05  1.033585  0.0
H  H37  1  0.19537028  0.56668053  0.55563141  1  0.11144  5.5e-05  0.096767  0.100612  5.6e-05  1.033523  0.0
H  H38  1  0.69539457  0.56668186  0.94438290  1  0.111363  6e-05  0.096939  0.10104  5.5e-05  1.033543  0.0
H  H39  1  0.80455955  0.43333140  0.44438442  1  0.111257  5.6e-05  0.096801  0.10076  5.4e-05  1.033533  0.0
H  H40  1  0.42326145  0.59647241  0.99140138  1  0.077029  0.000592  0.098926  0.100734  0.000345  1.029441  0.0
H  H41  1  0.07665819  0.40355812  0.49141581  1  0.077411  0.000561  0.098911  0.10059  0.000316  1.029295  0.0
H  H42  1  0.57667337  0.40355342  0.00859369  1  0.076985  -0.00059  0.099008  0.100835  -0.000365  1.029329  0.0
H  H43  1  0.92325870  0.59646689  0.50859282  1  0.077084  0.00056  0.098934  0.100671  0.000315  1.029442  0.0
H  H44  1  0.15860745  0.56001666  0.22847769  1  0.046852  6.7e-05  0.097173  0.095142  2e-05  1.023662  0.0
H  H45  1  0.34155429  0.43985093  0.72846288  1  0.04699  5.8e-05  0.097563  0.095762  3.1e-05  1.023437  0.0
H  H46  1  0.84158702  0.43990399  0.77155042  1  0.044929  -5.9e-05  0.09744  0.095658  -3.4e-05  1.023422  0.0
H  H47  1  0.65860467  0.56006200  0.27152032  1  0.046634  6.6e-05  0.097153  0.09511  2e-05  1.023681  0.0
H  H48  1  0.28405581  0.62522057  0.28731261  1  0.08173  2.3e-05  0.105196  0.112561  2e-06  1.009867  0.0
H  H49  1  0.21619355  0.37462711  0.78730739  1  0.083226  5.5e-05  0.105542  0.11305  2.1e-05  1.010228  0.0
H  H50  1  0.71622170  0.37468853  0.71270195  1  0.082232  -4e-05  0.105476  0.112922  -9e-06  1.0102  0.0
H  H51  1  0.78404180  0.62528385  0.21268513  1  0.081791  1e-05  0.105309  0.112636  -9e-06  1.010136  0.0
H  H52  1  0.36961172  0.50590874  0.24985423  1  0.056202  3e-05  0.092326  0.083583  1.7e-05  1.015731  0.0
H  H53  1  0.13062790  0.49399197  0.74989477  1  0.056758  -2.2e-05  0.092348  0.083494  -2.3e-05  1.016508  0.0
H  H54  1  0.63063593  0.49402742  0.75012897  1  0.056303  2.1e-05  0.092326  0.083543  2e-05  1.016412  0.0
H  H55  1  0.86958563  0.50593646  0.25012699  1  0.056778  2.8e-05  0.092214  0.083313  1.6e-05  1.015908  0.0
H  H56  1  0.80300255  0.19988661  0.15994166  1  0.121821  0.001563  0.124502  0.105076  0.000736  0.977862  0.001
H  H57  1  0.69690919  0.80014349  0.65994061  1  0.122082  0.001566  0.124392  0.104979  0.000735  0.978202  0.001
H  H58  1  0.19692945  0.80012184  0.84005595  1  0.122057  -0.001555  0.12445  0.105091  -0.000782  0.977909  -0.001
H  H59  1  0.30303447  0.19986927  0.34005446  1  0.121968  0.001556  0.124485  0.105154  0.000731  0.977997  0.001
H  H60  1  0.85758857  0.28080863  0.25861190  1  0.070841  0.001049  0.10744  0.11176  0.000545  1.010322  0.001
H  H61  1  0.64233612  0.71920516  0.75861345  1  0.071101  0.001052  0.107443  0.111767  0.00054  1.010092  0.001
H  H62  1  0.14231265  0.71920426  0.74138783  1  0.071018  -0.00103  0.107433  0.11172  -0.000564  1.01019  -0.001
H  H63  1  0.35758286  0.28079897  0.24138374  1  0.070975  0.001029  0.107432  0.111753  0.000539  1.010344  0.001
H  H64  1  0.79577206  0.92877051  0.32017470  1  0.102999  0.000615  0.110395  0.125146  0.000354  1.036846  0.0
H  H65  1  0.70424913  0.07123793  0.82018500  1  0.10274  0.000642  0.110466  0.125234  0.000277  1.036717  0.0
H  H66  1  0.20427330  0.07123585  0.67981909  1  0.102594  -0.000632  0.110395  0.125063  -0.000303  1.037058  0.0
H  H67  1  0.29573160  0.92876689  0.17981685  1  0.102775  0.000606  0.110404  0.125156  0.000357  1.036966  0.0
H  H68  1  0.71537858  0.86351967  0.22133554  1  0.165559  0.001628  0.12033  0.098222  0.000853  1.022995  0.002
H  H69  1  0.78463528  0.13648942  0.72134337  1  0.16532  0.001631  0.120355  0.09818  0.000853  1.023188  0.002
H  H70  1  0.28465814  0.13648410  0.77865613  1  0.165498  -0.001613  0.120304  0.098151  -0.00091  1.022944  -0.002
H  H71  1  0.21538568  0.86351006  0.27866059  1  0.165471  0.001625  0.120338  0.098213  0.000852  1.022972  0.002
C  C72  1  0.81840528  0.07629683  0.01547553  1  1.280504  0.000375  0.233933  0.42673  0.001386  4.09146  -0.001
C  C73  1  0.68156685  0.92372638  0.51547114  1  1.2802  0.000358  0.233946  0.426557  0.001353  4.091561  -0.001
C  C74  1  0.18156769  0.92371932  0.98452547  1  1.280154  -0.000373  0.233906  0.426623  -0.001721  4.091095  0.001
C  C75  1  0.31842062  0.07628624  0.48452774  1  1.280473  0.000357  0.233816  0.426426  0.001353  4.091467  -0.001
C  C76  1  0.90954570  0.16187757  0.97585422  1  -0.048376  0.006226  -0.019054  -0.028145  0.004522  4.005616  0.005
C  C77  1  0.59042243  0.83814830  0.47585183  1  -0.04718  0.005858  -0.019119  -0.028217  0.004291  4.006071  0.005
C  C78  1  0.09042195  0.83813947  0.02414678  1  -0.04785  -0.006219  -0.019175  -0.028381  -0.004802  4.006103  -0.005
C  C79  1  0.40955778  0.16186174  0.52414789  1  -0.048048  0.005857  -0.01905  -0.028219  0.004291  4.006181  0.005
C  C80  1  0.98422513  0.26911649  0.99808552  1  -0.058541  0.000264  -0.07837  -0.08351  0.000248  3.92787  0.0
C  C81  1  0.51572333  0.73092184  0.49809120  1  -0.05932  -0.00027  -0.078157  -0.08327  -0.000122  3.927653  0.0
C  C82  1  0.01571573  0.73091280  0.00190997  1  -0.059391  -0.000255  -0.078056  -0.083003  -0.000283  3.927755  0.0
C  C83  1  0.48425691  0.26909690  0.50191150  1  -0.058712  -0.000278  -0.078103  -0.083077  -0.000128  3.927669  0.0
C  C84  1  0.06480828  0.35475680  0.96210546  1  -0.051175  0.000283  -0.084787  -0.076483  0.000152  3.992147  0.0
C  C85  1  0.43512330  0.64528091  0.46211438  1  -0.052406  -2.2e-05  -0.084958  -0.076603  -8e-05  3.991984  0.0
C  C86  1  0.93512342  0.64527514  0.03788749  1  -0.052283  -0.000277  -0.085009  -0.076728  -0.000157  3.99218  0.0
C  C87  1  0.56483887  0.35473614  0.53788916  1  -0.052389  -2.9e-05  -0.084852  -0.076615  -8.4e-05  3.992157  0.0
C  C88  1  0.07392800  0.33409263  0.90392644  1  -0.008888  -9e-06  -0.078905  -0.05477  -1.7e-05  3.980411  0.0
C  C89  1  0.42602651  0.66592721  0.40393342  1  -0.007188  -0.00075  -0.07882  -0.05478  -0.000537  3.98077  0.0
C  C90  1  0.92602297  0.66593141  0.09607117  1  -0.007206  1.1e-05  -0.078878  -0.054811  7e-06  3.980663  0.0
C  C91  1  0.57393793  0.33407852  0.59607309  1  -0.007275  -0.000749  -0.07883  -0.054737  -0.000535  3.980854  0.0
C  C92  1  0.00328792  0.22691267  0.88173278  1  -0.050276  0.000763  -0.090502  -0.095009  0.000622  4.019521  0.0
C  C93  1  0.49669325  0.77309555  0.38173650  1  -0.049743  -7.4e-05  -0.090428  -0.094957  -0.000174  4.019638  0.0
C  C94  1  0.99669435  0.77310171  0.11826483  1  -0.049785  -0.000747  -0.090384  -0.095001  -0.000647  4.019769  0.0
C  C95  1  0.50329074  0.22690403  0.61826577  1  -0.050335  -9e-05  -0.090448  -0.095087  -0.000187  4.019572  0.0
C  C96  1  0.92152493  0.14070362  0.91744507  1  -0.079127  0.0011  -0.087238  -0.117326  0.000836  3.978871  0.001
C  C97  1  0.57846471  0.85931310  0.41744382  1  -0.078789  0.000352  -0.087241  -0.11733  6.5e-05  3.97912  0.001
C  C98  1  0.07846830  0.85931073  0.08255169  1  -0.079132  -0.001053  -0.087202  -0.117289  -0.00087  3.979298  -0.001
C  C99  1  0.42151616  0.14069259  0.58255210  1  -0.078629  0.000309  -0.0872  -0.117275  2.8e-05  3.978964  0.001
C  C100  1  0.57264479  0.80158673  0.02109091  1  0.512195  -0.005257  0.071226  0.067287  -0.003476  3.905754  -0.004
C  C101  1  0.92734336  0.19842909  0.52109737  1  0.511497  -0.00536  0.071383  0.06755  -0.003581  3.905835  -0.004
C  C102  1  0.42732767  0.19843464  0.97890628  1  0.511659  0.005246  0.071266  0.067349  0.002979  3.906056  0.004
C  C103  1  0.07263685  0.80158095  0.47890702  1  0.512256  -0.005365  0.071435  0.067622  -0.003586  3.90581  -0.004
C  C104  1  0.49069153  0.71721044  0.05984403  1  0.050729  0.007172  -0.038121  -0.06951  0.004888  4.074722  0.007
C  C105  1  0.00930467  0.28279177  0.55985565  1  0.051591  0.007096  -0.038309  -0.069855  0.00483  4.075038  0.007
C  C106  1  0.50928811  0.28279612  0.94015316  1  0.051567  -0.007119  -0.038073  -0.069411  -0.005185  4.074732  -0.007
C  C107  1  0.99069098  0.71721213  0.44014916  1  0.05062  0.007136  -0.038276  -0.069927  0.004856  4.075038  0.007
C  C108  1  0.48584481  0.73659322  0.11967672  1  0.673605  0.000447  0.087286  0.21807  0.002393  4.084623  -0.002
C  C109  1  0.01416341  0.26339358  0.61968580  1  0.673315  0.000354  0.087411  0.218199  0.002327  4.085033  -0.002
C  C110  1  0.51416411  0.26340803  0.88032258  1  0.673801  -0.000431  0.087265  0.218123  -0.002856  4.084717  0.002
C  C111  1  0.98585953  0.73659284  0.38031901  1  0.673405  0.000361  0.087405  0.218338  0.002331  4.084678  -0.002
C  C112  1  0.40604308  0.64295172  0.15445317  1  0.441533  0.014361  0.061234  0.122992  0.010046  4.034598  0.012
C  C113  1  0.09398214  0.35701614  0.65446314  1  0.441161  0.014169  0.061238  0.123018  0.009924  4.034224  0.012
C  C114  1  0.59401820  0.35703458  0.84554740  1  0.441199  -0.014256  0.061151  0.122865  -0.010609  4.034054  -0.012
C  C115  1  0.90606881  0.64295715  0.34554082  1  0.43999  0.014278  0.061152  0.122908  0.009988  4.03486  0.012
C  C116  1  0.34586584  0.53590418  0.13124494  1  -0.061489  -0.001634  -0.110908  -0.194312  -0.001147  4.03276  -0.001
C  C117  1  0.15413074  0.46407666  0.63126814  1  -0.062113  -0.001602  -0.111037  -0.19461  -0.001135  4.033245  -0.001
C  C118  1  0.65416658  0.46409004  0.86874800  1  -0.061958  0.001652  -0.11093  -0.194371  0.001028  4.032656  0.001
C  C119  1  0.84588905  0.53590716  0.36874261  1  -0.059697  -0.001587  -0.110895  -0.194198  -0.00112  4.033402  -0.001
C  C120  1  0.35263582  0.51868404  0.07222830  1  -0.079603  -3.4e-05  -0.113997  -0.101447  -7e-05  4.082351  0.0
C  C121  1  0.14731688  0.48131660  0.57225536  1  -0.080231  -7.9e-05  -0.113726  -0.100912  -9.3e-05  4.082099  0.0
C  C122  1  0.64733904  0.48132689  0.92776253  1  -0.080452  0.000121  -0.114063  -0.101579  0.000111  4.082617  0.0
C  C123  1  0.85265219  0.51868390  0.42775835  1  -0.080195  3e-06  -0.113939  -0.101263  -3.9e-05  4.08256  0.0
C  C124  1  0.41979104  0.60813761  0.03721689  1  -0.069799  -0.002489  -0.102359  -0.137451  -0.001653  4.043599  -0.002
C  C125  1  0.08016819  0.39186712  0.53723375  1  -0.069692  -0.002482  -0.102424  -0.137327  -0.001678  4.043263  -0.002
C  C126  1  0.58017495  0.39187769  0.96277860  1  -0.069873  0.002539  -0.102382  -0.137518  0.001575  4.043546  0.002
C  C127  1  0.91979653  0.60814035  0.46277530  1  -0.069168  -0.002434  -0.102314  -0.13727  -0.001644  4.043348  -0.002
C  C128  1  0.29670524  0.58480102  0.24576339  1  0.36559  -7.2e-05  -0.138668  -0.17538  -0.000117  3.929946  0.0
C  C129  1  0.20348198  0.41508186  0.74577357  1  0.363825  -8.3e-05  -0.139546  -0.176788  -0.000114  3.931731  0.0
C  C130  1  0.70350927  0.41513350  0.75424311  1  0.366951  9.7e-05  -0.139355  -0.176509  0.000121  3.931495  0.0
C  C131  1  0.79669977  0.58484493  0.25423166  1  0.365508  -8.5e-05  -0.138691  -0.175098  -0.000127  3.930756  0.0
C  C132  1  0.79780835  0.14385548  0.19716397  1  0.489951  0.00034  0.044751  0.08566  0.00101  3.929576  0.001
C  C133  1  0.70211978  0.85615465  0.69716516  1  0.489233  0.000273  0.044973  0.085802  0.000963  3.929549  0.001
C  C134  1  0.20214517  0.85615899  0.80283491  1  0.489386  -0.000231  0.044904  0.085686  -0.00118  3.929745  -0.001
C  C135  1  0.29782205  0.14384681  0.30283075  1  0.489787  0.00032  0.044704  0.085493  0.000988  3.929922  0.001
C  C136  1  0.82965117  0.18758132  0.25154083  1  -0.015067  0.004857  -0.078042  -0.141498  0.003292  3.963136  0.004
C  C137  1  0.67029323  0.81243550  0.75154090  1  -0.014423  0.004968  -0.078071  -0.14156  0.00337  3.963326  0.004
C  C138  1  0.17028810  0.81242972  0.74845679  1  -0.014226  -0.004976  -0.077975  -0.141312  -0.0036  3.963186  -0.004
C  C139  1  0.32964071  0.18757641  0.24845502  1  -0.015946  0.004861  -0.077951  -0.141371  0.003301  3.963343  0.004
C  C140  1  0.82548227  0.11091373  0.29751864  1  -0.006692  -0.002348  0.004065  0.019982  -0.001671  3.918256  -0.001
C  C141  1  0.67449127  0.88909900  0.79752169  1  -0.007001  -0.002388  0.003965  0.019998  -0.001685  3.91825  -0.002
C  C142  1  0.17449859  0.88909195  0.70247770  1  -0.007037  0.003372  0.003984  0.019732  0.002246  3.918226  0.002
C  C143  1  0.32545126  0.11090680  0.20247423  1  -0.00591  -0.00331  0.003962  0.019765  -0.002357  3.918086  -0.002
C  C144  1  0.79038908  0.99208851  0.28633389  1  0.001975  0.004881  -0.078568  -0.132632  0.003402  3.920361  0.004
C  C145  1  0.70961137  0.00791359  0.78633892  1  0.0017  0.005032  -0.078545  -0.132723  0.003462  3.920048  0.004
C  C146  1  0.20963055  0.00791967  0.71366033  1  0.002135  -0.005077  -0.078502  -0.132444  -0.003723  3.920134  -0.004
C  C147  1  0.29035851  0.99208343  0.21365912  1  0.001909  0.004927  -0.078625  -0.132709  0.003436  3.920165  0.004
C  C148  1  0.75297738  0.95470273  0.23135931  1  0.417487  -0.000454  0.044682  0.090268  -3.6e-05  3.925229  0.0
C  C149  1  0.74701571  0.04531531  0.73136348  1  0.417692  -0.000544  0.044675  0.090383  -0.000113  3.925164  0.0
C  C150  1  0.24704003  0.04530024  0.76863449  1  0.417475  0.000647  0.044616  0.090333  -4.6e-05  3.924911  0.0
C  C151  1  0.25297285  0.95469557  0.26863752  1  0.417543  -0.000539  0.044725  0.090399  -9.6e-05  3.925034  0.0
C  C152  1  0.85370747  0.15319516  0.35825934  1  1.597234  -0.000169  0.195117  0.563334  -5.7e-05  4.247803  0.0
C  C153  1  0.64629019  0.84679859  0.85826242  1  1.596991  0.00056  0.195146  0.563444  0.000477  4.247769  0.001
C  C154  1  0.14627676  0.84679747  0.64173869  1  1.597356  -0.000679  0.195205  0.56361  -0.00048  4.247469  -0.001
C  C155  1  0.35367024  0.15319933  0.14173095  1  1.596693  -5e-05  0.195264  0.563623  -9.3e-05  4.247653  0.0
N  N156  1  0.72813007  0.97719077  0.99572580  1  -0.877677  0.008139  -0.289575  -0.231348  0.004842  3.591044  0.005
N  N157  1  0.77185813  0.02283629  0.49572649  1  -0.877557  0.007908  -0.289716  -0.231559  0.004694  3.591658  0.005
N  N158  1  0.27185088  0.02283231  0.00427308  1  -0.87759  -0.008115  -0.28972  -0.231699  -0.00521  3.591406  -0.005
N  N159  1  0.22812840  0.97717895  0.50427578  1  -0.877369  0.007899  -0.289607  -0.23134  0.004689  3.59115  0.005
N  N160  1  0.64821269  0.90409115  0.03647618  1  -0.792293  0.089944  -0.283216  -0.140616  0.062546  3.656907  0.08
N  N161  1  0.85176333  0.09592366  0.53647555  1  -0.792349  0.089943  -0.283247  -0.14068  0.06252  3.657559  0.08
N  N162  1  0.35177029  0.09592758  0.96352312  1  -0.792346  -0.089931  -0.283236  -0.14052  -0.066582  3.657406  -0.08
N  N163  1  0.14821522  0.90408464  0.46352545  1  -0.792279  0.089952  -0.283311  -0.140783  0.062525  3.657303  0.08
N  N164  1  0.75600357  0.02917218  0.18737995  1  -1.230006  0.06906  -0.355595  -0.23565  0.047044  3.635767  0.059
N  N165  1  0.74396249  0.97084980  0.68738411  1  -1.229649  0.069234  -0.355757  -0.235837  0.04717  3.635418  0.059
N  N166  1  0.24398414  0.97083349  0.81261893  1  -1.229983  -0.069236  -0.355635  -0.23577  -0.050214  3.635722  -0.059
N  N167  1  0.25602017  0.02915848  0.31261731  1  -1.229708  0.069115  -0.355629  -0.235709  0.047082  3.635722  0.059
O  O168  1  0.82368096  0.09550967  0.06880146  1  -1.081405  0.088464  -0.301733  -0.48188  0.058551  2.338384  0.081
O  O169  1  0.67627926  0.90451778  0.56879956  1  -1.081683  0.088367  -0.301746  -0.481778  0.058496  2.338396  0.08
O  O170  1  0.17629711  0.90451255  0.93119700  1  -1.081154  -0.088454  -0.301735  -0.481801  -0.062379  2.338175  -0.081
O  O171  1  0.32369220  0.09549751  0.43120017  1  -1.081649  0.088356  -0.301736  -0.481801  0.058489  2.338103  0.08
O  O172  1  0.54706855  0.83279036  0.14543351  1  -1.081595  0.140503  -0.322083  -0.476891  0.091601  2.490643  0.127
O  O173  1  0.95294084  0.16719172  0.64543567  1  -1.08171  0.140094  -0.321966  -0.476631  0.091329  2.49058  0.127
O  O174  1  0.45292983  0.16721353  0.85456749  1  -1.081842  -0.140182  -0.322012  -0.476824  -0.09735  2.490727  -0.127
O  O175  1  0.04708442  0.83279209  0.35456405  1  -1.081719  0.140381  -0.322093  -0.476969  0.091519  2.490681  0.127
O  O176  1  0.39542284  0.67016969  0.21097426  1  -1.072342  0.001266  -0.192418  -0.14814  0.000764  2.589757  0.0
O  O177  1  0.10465568  0.32976633  0.71097925  1  -1.072329  0.001054  -0.192327  -0.147782  0.000617  2.589208  0.0
O  O178  1  0.60471608  0.32978854  0.78902886  1  -1.072172  -0.001077  -0.192265  -0.14785  -0.000679  2.589246  0.0
O  O179  1  0.89545279  0.67018155  0.28902301  1  -1.07299  0.001229  -0.192311  -0.148175  0.000741  2.590351  0.0
O  O180  1  0.83013997  0.25616839  0.36961687  1  -1.167619  0.001534  -0.329478  -0.539904  0.00101  2.081489  0.001
O  O181  1  0.66988685  0.74383493  0.86961394  1  -1.167713  0.001657  -0.329471  -0.539894  0.001032  2.08165  0.001
O  O182  1  0.16983798  0.74382773  0.63038582  1  -1.167709  0.002482  -0.329487  -0.539889  0.001651  2.081489  0.002
O  O183  1  0.33006494  0.25616040  0.13037265  1  -1.167864  -0.002603  -0.329549  -0.540022  -0.001781  2.081438  -0.002
O  O184  1  0.89784181  0.07465953  0.39346584  1  -1.205437  0.000683  -0.345561  -0.62396  0.000387  2.322143  0.002
O  O185  1  0.60215667  0.92533269  0.89346986  1  -1.205091  0.003159  -0.345548  -0.624019  0.002032  2.322093  0.002
O  O186  1  0.10213846  0.92533398  0.60652880  1  -1.205538  0.000601  -0.345638  -0.624146  0.000333  2.321944  0.002
O  O187  1  0.39783705  0.07466774  0.10652902  1  -1.20476  -0.003075  -0.345517  -0.623927  -0.002097  2.322263  -0.002
