# generated using pymatgen
data_CdH11C15(NO)5
_symmetry_space_group_name_H-M   'P 1'
_cell_length_a   10.20186667
_cell_length_b   10.20486855
_cell_length_c   18.61466529
_cell_angle_alpha   101.01664784
_cell_angle_beta   99.84551574
_cell_angle_gamma   109.76114013
_symmetry_Int_Tables_number   1
_chemical_formula_structural   CdH11C15(NO)5
_chemical_formula_sum   'Cd4 H44 C60 N20 O20'
_cell_volume   1731.01028718
_cell_formula_units_Z   4
loop_
 _symmetry_equiv_pos_site_id
 _symmetry_equiv_pos_as_xyz
  1  'x, y, z'
loop_
 _atom_site_type_symbol
 _atom_site_label
 _atom_site_symmetry_multiplicity
 _atom_site_fract_x
 _atom_site_fract_y
 _atom_site_fract_z
 _atom_site_occupancy
 _atom_site_hle17_bader_spin_density
 _atom_site_hle17_ddec_charge
 _atom_site_hle17_ddec_spin_density
 _atom_site_hle17_ddec_sum_bond_order
 _atom_site_hle17_magmom
 _atom_site_hse06_10hf_bader_spin_density
 _atom_site_hse06_10hf_ddec_charge
 _atom_site_hse06_10hf_ddec_spin_density
 _atom_site_hse06_10hf_ddec_sum_bond_order
 _atom_site_hse06_10hf_magmom
 _atom_site_hse06_bader_spin_density
 _atom_site_hse06_ddec_charge
 _atom_site_hse06_ddec_spin_density
 _atom_site_hse06_ddec_sum_bond_order
 _atom_site_hse06_magmom
 _atom_site_pbe_bader_spin_density
 _atom_site_pbe_cm5_charge
 _atom_site_pbe_ddec_charge
 _atom_site_pbe_ddec_spin_density
 _atom_site_pbe_ddec_sum_bond_order
 _atom_site_pbe_magmom
Cd  Cd0  1  0.08001072  0.99047858  0.82967033  1  0  1.063417  0  1.745185  0  0  0.852749  0  2.196288  0  0  0.91047  0  2.147855  0  0  0.770654  0.810401  0  2.230569  0
Cd  Cd1  1  0.16067250  0.74983167  0.67034156  1  0  1.062812  0  1.746847  0  0  0.851565  0  2.198686  0  0  0.909291  0  2.150215  0  0  0.770108  0.809225  0  2.232983  0
Cd  Cd2  1  0.91999327  0.00952153  0.17032886  1  0  1.063388  0  1.745274  0  0  0.852709  0  2.196393  0  0  0.91044  0  2.147946  0  0  0.77063  0.810365  0  2.230714  0
Cd  Cd3  1  0.83932428  0.25016524  0.32965931  1  0  1.062828  0  1.746837  0  0  0.851573  0  2.198687  0  0  0.909301  0  2.150216  0  0  0.770109  0.809234  0  2.232984  0
H  H4  1  0.75889736  0.81092658  0.73445861  1  0  0.090401  0  0.953977  0  0  0.09951  0  1.016255  0  0  0.102196  0  1.014036  0  0  0.118506  0.09751  0  1.017979  0
H  H5  1  0.07577242  0.52422166  0.76571708  1  0  0.089242  0  0.952771  0  0  0.097845  0  1.015765  0  0  0.100505  0  1.013561  0  0  0.117041  0.095895  0  1.017445  0
H  H6  1  0.24110464  0.18907355  0.26554093  1  0  0.090365  0  0.954019  0  0  0.099472  0  1.016307  0  0  0.102157  0  1.014088  0  0  0.118484  0.097475  0  1.018038  0
H  H7  1  0.92422107  0.47577960  0.23428500  1  0  0.089234  0  0.952732  0  0  0.097839  0  1.015731  0  0  0.1005  0  1.013525  0  0  0.117037  0.09589  0  1.017409  0
H  H8  1  0.78313750  0.53718192  0.92349505  1  0  0.123404  0  0.927809  0  0  0.137244  0  0.977755  0  0  0.140639  0  0.976481  0  0  0.118178  0.13462  0  0.979163  0
H  H9  1  0.61313813  0.36019644  0.57688578  1  0  0.123143  0  0.927413  0  0  0.137133  0  0.977188  0  0  0.140545  0  0.975876  0  0  0.118194  0.134498  0  0.97862  0
H  H10  1  0.21686790  0.46281926  0.07650330  1  0  0.123375  0  0.927827  0  0  0.137227  0  0.977771  0  0  0.140622  0  0.976499  0  0  0.118174  0.134603  0  0.979174  0
H  H11  1  0.38685526  0.63979940  0.42311305  1  0  0.123165  0  0.927291  0  0  0.137151  0  0.977078  0  0  0.140556  0  0.975762  0  0  0.11818  0.134515  0  0.978512  0
H  H12  1  0.53959930  0.59718059  0.72610072  1  0  0.121189  0  0.978402  0  0  0.123659  0  1.050377  0  0  0.128116  0  1.047428  0  0  0.107756  0.120309  0  1.052849  0
H  H13  1  0.87037415  0.31329512  0.77408710  1  0  0.120682  0  0.980283  0  0  0.123654  0  1.051772  0  0  0.128073  0  1.048844  0  0  0.107473  0.120212  0  1.054366  0
H  H14  1  0.46040297  0.40282279  0.27390025  1  0  0.121179  0  0.978418  0  0  0.123661  0  1.05038  0  0  0.128119  0  1.047431  0  0  0.107754  0.120309  0  1.052855  0
H  H15  1  0.12961981  0.68669961  0.22590952  1  0  0.120718  0  0.980258  0  0  0.123659  0  1.051757  0  0  0.128106  0  1.048803  0  0  0.107488  0.120212  0  1.054406  0
H  H16  1  0.98751974  0.75234786  0.92465896  1  0  0.081964  0  0.958351  0  0  0.086728  0  1.027335  0  0  0.089262  0  1.025022  0  0  0.114265  0.08491  0  1.028959  0
H  H17  1  0.82715687  0.56340900  0.57570642  1  0  0.082538  0  0.956942  0  0  0.087057  0  1.026313  0  0  0.089595  0  1.024  0  0  0.114643  0.085246  0  1.027884  0
H  H18  1  0.01248492  0.24765659  0.07534127  1  0  0.081993  0  0.958376  0  0  0.08674  0  1.027374  0  0  0.089274  0  1.025062  0  0  0.114265  0.084925  0  1.028964  0
H  H19  1  0.17283635  0.43658900  0.42429262  1  0  0.082529  0  0.956976  0  0  0.087046  0  1.026327  0  0  0.089589  0  1.024017  0  0  0.114636  0.085235  0  1.027899  0
H  H20  1  0.20795883  0.14122389  0.02161826  1  0  0.095448  0  0.967023  0  0  0.10285  0  1.031351  0  0  0.105375  0  1.030209  0  0  0.118053  0.100964  0  1.032228  0
H  H21  1  0.12006980  0.68584754  0.47837961  1  0  0.096301  0  0.966069  0  0  0.103081  0  1.030745  0  0  0.105572  0  1.029688  0  0  0.118774  0.101218  0  1.031581  0
H  H22  1  0.79205701  0.85878374  0.97838067  1  0  0.095472  0  0.96706  0  0  0.102821  0  1.031441  0  0  0.105343  0  1.030306  0  0  0.118045  0.100941  0  1.032355  0
H  H23  1  0.87992434  0.31414507  0.52162379  1  0  0.096361  0  0.966017  0  0  0.103141  0  1.030676  0  0  0.105631  0  1.029622  0  0  0.118818  0.101278  0  1.031511  0
H  H24  1  0.39722503  0.76209272  0.99075105  1  0  0.095286  0  0.924304  0  0  0.101008  0  0.986143  0  0  0.104938  0  0.983579  0  0  0.120333  0.098078  0  0.988176  0
H  H25  1  0.77200602  0.90649742  0.50916647  1  0  0.095441  0  0.922633  0  0  0.10128  0  0.984589  0  0  0.105164  0  0.982093  0  0  0.120307  0.098399  0  0.986558  0
H  H26  1  0.60277865  0.23791173  0.00924910  1  0  0.095277  0  0.924302  0  0  0.101009  0  0.986128  0  0  0.104941  0  0.983562  0  0  0.120305  0.09808  0  0.988159  0
H  H27  1  0.22798654  0.09349625  0.49083313  1  0  0.095467  0  0.922671  0  0  0.101303  0  0.984619  0  0  0.105186  0  0.982124  0  0  0.120323  0.098425  0  0.986586  0
H  H28  1  0.41731578  0.09794441  0.86351372  1  0  0.072049  0  0.998861  0  0  0.069588  0  1.083185  0  0  0.072491  0  1.080555  0  0  0.107831  0.067559  0  1.084919  0
H  H29  1  0.23382139  0.05330819  0.63650640  1  0  0.071079  0  0.999685  0  0  0.068527  0  1.084229  0  0  0.07144  0  1.081611  0  0  0.106811  0.066467  0  1.086018  0
H  H30  1  0.58268424  0.90205570  0.13648402  1  0  0.072041  0  0.998825  0  0  0.069577  0  1.08315  0  0  0.07248  0  1.080518  0  0  0.107826  0.067549  0  1.084884  0
H  H31  1  0.76617366  0.94669197  0.36349303  1  0  0.071073  0  0.999616  0  0  0.068529  0  1.084162  0  0  0.071442  0  1.081543  0  0  0.106774  0.06647  0  1.085953  0
H  H32  1  0.14767514  0.29169397  0.78109148  1  0  0.080505  0  0.941109  0  0  0.090777  0  1.001279  0  0  0.092774  0  0.999954  0  0  0.117253  0.089325  0  1.002291  0
H  H33  1  0.51037380  0.86624640  0.71864462  1  0  0.080315  0  0.940661  0  0  0.090716  0  1.000856  0  0  0.092731  0  0.9995  0  0  0.115905  0.08926  0  1.001879  0
H  H34  1  0.85233177  0.70831374  0.21891306  1  0  0.080517  0  0.941077  0  0  0.090782  0  1.001265  0  0  0.092781  0  0.999936  0  0  0.117282  0.089325  0  1.002309  0
H  H35  1  0.48962167  0.13375484  0.28135550  1  0  0.080277  0  0.940723  0  0  0.090716  0  1.000879  0  0  0.09273  0  0.999521  0  0  0.115927  0.089259  0  1.001901  0
H  H36  1  0.63456468  0.30006041  0.86584377  1  0  0.1172  0  0.950429  0  0  0.123633  0  1.01751  0  0  0.127017  0  1.016097  0  0  0.110508  0.121145  0  1.01882  0
H  H37  1  0.43351570  0.26855920  0.63438947  1  0  0.117376  0  0.950419  0  0  0.124232  0  1.017025  0  0  0.127616  0  1.015606  0  0  0.110263  0.121749  0  1.018329  0
H  H38  1  0.36543738  0.69993210  0.13415124  1  0  0.117244  0  0.950392  0  0  0.12364  0  1.017508  0  0  0.127023  0  1.016094  0  0  0.110508  0.121149  0  1.018837  0
H  H39  1  0.56647778  0.73144204  0.36560992  1  0  0.117381  0  0.950448  0  0  0.124255  0  1.01703  0  0  0.12764  0  1.015611  0  0  0.110256  0.121773  0  1.018332  0
H  H40  1  0.35596629  0.50512628  0.77822103  1  0  0.13354  0  0.972954  0  0  0.138476  0  1.039577  0  0  0.142699  0  1.0367  0  0  0.110896  0.135473  0  1.041853  0
H  H41  1  0.72654180  0.07772983  0.72170678  1  0  0.133174  0  0.972853  0  0  0.138541  0  1.038989  0  0  0.142731  0  1.036132  0  0  0.110376  0.135572  0  1.041214  0
H  H42  1  0.64404236  0.49487817  0.22178334  1  0  0.133527  0  0.972915  0  0  0.138457  0  1.039547  0  0  0.142678  0  1.036678  0  0  0.110884  0.135454  0  1.041822  0
H  H43  1  0.27345309  0.92227248  0.27829232  1  0  0.133251  0  0.972845  0  0  0.138574  0  1.039028  0  0  0.142765  0  1.03617  0  0  0.110395  0.135606  0  1.041283  0
H  H44  1  0.36144116  0.10804957  0.13390172  1  0  0.083047  0  0.942687  0  0  0.090157  0  1.006871  0  0  0.0925  0  1.0065  0  0  0.116483  0.088416  0  1.007303  0
H  H45  1  0.97525000  0.72773855  0.36608821  1  0  0.082802  0  0.943507  0  0  0.090181  0  1.007442  0  0  0.092488  0  1.007135  0  0  0.116418  0.088381  0  1.007934  0
H  H46  1  0.63856930  0.89195701  0.86609874  1  0  0.082999  0  0.942683  0  0  0.090144  0  1.006834  0  0  0.092488  0  1.00646  0  0  0.116456  0.088407  0  1.007253  0
H  H47  1  0.02475482  0.27226374  0.63391343  1  0  0.082713  0  0.94356  0  0  0.0901  0  1.007483  0  0  0.092402  0  1.007182  0  0  0.116384  0.088298  0  1.007977  0
C  C48  1  0.51455717  0.42266749  0.82302930  1  0  0.09395  0  3.751165  0  0  0.10688  0  3.977652  0  0  0.109802  0  3.999865  0  0  0.015078  0.105089  0  3.962377  0
C  C49  1  0.59905811  0.19148877  0.67708169  1  0  0.095294  0  3.751515  0  0  0.109064  0  3.977242  0  0  0.11201  0  3.99947  0  0  0.015835  0.107263  0  3.961948  0
C  C50  1  0.48544798  0.57733045  0.17696977  1  0  0.093913  0  3.751152  0  0  0.106812  0  3.977667  0  0  0.109736  0  3.999874  0  0  0.015071  0.105026  0  3.962384  0
C  C51  1  0.40093537  0.80851246  0.32291609  1  0  0.095516  0  3.751323  0  0  0.109153  0  3.977332  0  0  0.112098  0  3.999562  0  0  0.015966  0.10735  0  3.962038  0
C  C52  1  0.75858707  0.74677097  0.77525345  1  0  0.121547  0  3.700163  0  0  0.090787  0  3.951907  0  0  0.097521  0  3.970921  0  0  0.041774  0.086137  0  3.939089  0
C  C53  1  0.97083332  0.48330719  0.72497787  1  0  0.122352  0  3.700988  0  0  0.091899  0  3.952824  0  0  0.098649  0  3.971835  0  0  0.043335  0.087214  0  3.940005  0
C  C54  1  0.24141692  0.25322915  0.22474628  1  0  0.121505  0  3.700242  0  0  0.090737  0  3.952011  0  0  0.097471  0  3.971027  0  0  0.041723  0.086085  0  3.939199  0
C  C55  1  0.02916488  0.51669079  0.27502163  1  0  0.12228  0  3.70109  0  0  0.091817  0  3.952931  0  0  0.098566  0  3.971947  0  0  0.04327  0.087133  0  3.940111  0
C  C56  1  0.64179004  0.54822395  0.82455942  1  0  0.102998  0  3.745931  0  0  0.114874  0  3.974141  0  0  0.118976  0  3.996237  0  0  0.017986  0.112232  0  3.959017  0
C  C57  1  0.72303277  0.31738895  0.67568898  1  0  0.100129  0  3.747215  0  0  0.111786  0  3.975701  0  0  0.115811  0  3.9979  0  0  0.015393  0.109195  0  3.960488  0
C  C58  1  0.35821453  0.45177507  0.17543918  1  0  0.102922  0  3.74594  0  0  0.114829  0  3.974135  0  0  0.118931  0  3.996231  0  0  0.017865  0.112186  0  3.95901  0
C  C59  1  0.27696144  0.68260904  0.32430853  1  0  0.100093  0  3.747067  0  0  0.111622  0  3.975838  0  0  0.115647  0  3.998041  0  0  0.015328  0.109033  0  3.960623  0
C  C60  1  0.77161123  0.59299177  0.87986192  1  0  -0.152538  0  3.685135  0  0  -0.170535  0  3.929195  0  0  -0.177621  0  3.948781  0  0  -0.075409  -0.165648  0  3.915967  0
C  C61  1  0.71256909  0.39215208  0.62046742  1  0  -0.150383  0  3.685374  0  0  -0.16854  0  3.929281  0  0  -0.175599  0  3.948904  0  0  -0.073272  -0.163664  0  3.916005  0
C  C62  1  0.22839485  0.40701374  0.12013748  1  0  -0.152441  0  3.685106  0  0  -0.170472  0  3.929165  0  0  -0.17756  0  3.948754  0  0  -0.075384  -0.165582  0  3.915927  0
C  C63  1  0.28742596  0.60784806  0.37953094  1  0  -0.150434  0  3.685071  0  0  -0.168542  0  3.92904  0  0  -0.175591  0  3.948654  0  0  -0.0733  -0.163667  0  3.915766  0
C  C64  1  0.63697424  0.62777763  0.77101863  1  0  -0.155441  0  3.674868  0  0  -0.171717  0  3.922492  0  0  -0.179563  0  3.942871  0  0  -0.08003  -0.166552  0  3.9091  0
C  C65  1  0.85604888  0.36595714  0.72923657  1  0  -0.15342  0  3.676274  0  0  -0.169911  0  3.922948  0  0  -0.177665  0  3.943376  0  0  -0.078757  -0.16472  0  3.909597  0
C  C66  1  0.36302959  0.37222465  0.22898130  1  0  -0.155424  0  3.674887  0  0  -0.171709  0  3.922483  0  0  -0.179555  0  3.942862  0  0  -0.079983  -0.166543  0  3.909092  0
C  C67  1  0.14394508  0.63403760  0.27076166  1  0  -0.153448  0  3.676405  0  0  -0.16983  0  3.923114  0  0  -0.177611  0  3.943526  0  0  -0.078723  -0.164643  0  3.909792  0
C  C68  1  0.88789890  0.71391310  0.88048044  1  0  0.131448  0  3.714286  0  0  0.100201  0  3.970364  0  0  0.107521  0  3.988374  0  0  0.044632  0.095393  0  3.957913  0
C  C69  1  0.83287282  0.50784282  0.61985906  1  0  0.131396  0  3.714981  0  0  0.100244  0  3.971334  0  0  0.107547  0  3.989367  0  0  0.044683  0.095459  0  3.958824  0
C  C70  1  0.11210436  0.28609027  0.11951955  1  0  0.131329  0  3.714361  0  0  0.100111  0  3.970445  0  0  0.107435  0  3.988451  0  0  0.044607  0.095305  0  3.957971  0
C  C71  1  0.16712182  0.49215625  0.38014022  1  0  0.131416  0  3.714977  0  0  0.100288  0  3.97129  0  0  0.107582  0  3.989329  0  0  0.044753  0.095501  0  3.958782  0
C  C72  1  0.28152849  0.87312779  0.93594718  1  0  0.05288  0  3.72239  0  0  0.058606  0  3.965293  0  0  0.056658  0  3.984788  0  0  0.116734  0.059422  0  3.952568  0
C  C73  1  0.93765081  0.84537195  0.56397323  1  0  0.051637  0  3.722433  0  0  0.057986  0  3.964806  0  0  0.056144  0  3.984122  0  0  0.11629  0.058756  0  3.952158  0
C  C74  1  0.71847493  0.12687343  0.06405529  1  0  0.052798  0  3.722409  0  0  0.058619  0  3.965229  0  0  0.056673  0  3.984722  0  0  0.116727  0.059441  0  3.952489  0
C  C75  1  0.06234299  0.15462498  0.43602682  1  0  0.051849  0  3.722296  0  0  0.058222  0  3.964621  0  0  0.056383  0  3.983936  0  0  0.116413  0.058993  0  3.951972  0
C  C76  1  0.26043270  0.78470431  0.85637055  1  0  0.611852  0  3.96398  0  0  0.558034  0  4.266521  0  0  0.591605  0  4.259739  0  0  0.200983  0.535336  0  4.270059  0
C  C77  1  0.92883040  0.90404118  0.64355645  1  0  0.61069  0  3.964007  0  0  0.556647  0  4.266515  0  0  0.590178  0  4.259751  0  0  0.199195  0.533974  0  4.270043  0
C  C78  1  0.73957040  0.21530125  0.14363288  1  0  0.61184  0  3.964089  0  0  0.557948  0  4.266693  0  0  0.591518  0  4.25991  0  0  0.200979  0.53525  0  4.270229  0
C  C79  1  0.07117094  0.09595463  0.35644419  1  0  0.610626  0  3.964099  0  0  0.556552  0  4.266641  0  0  0.59008  0  4.259879  0  0  0.19913  0.533879  0  4.270171  0
C  C80  1  0.25378025  0.05890385  0.01535031  1  0  0.093111  0  3.65576  0  0  0.064088  0  3.908217  0  0  0.067072  0  3.925381  0  0  0.058434  0.061873  0  3.896802  0
C  C81  1  0.04404111  0.73801195  0.48460647  1  0  0.087659  0  3.657477  0  0  0.059586  0  3.909655  0  0  0.062569  0  3.926762  0  0  0.054105  0.057374  0  3.898227  0
C  C82  1  0.74623120  0.94110273  0.98465024  1  0  0.093019  0  3.655796  0  0  0.064023  0  3.908317  0  0  0.067008  0  3.925481  0  0  0.058409  0.0618  0  3.896907  0
C  C83  1  0.95595866  0.26198495  0.51539521  1  0  0.087556  0  3.657601  0  0  0.059482  0  3.909773  0  0  0.062465  0  3.926876  0  0  0.054057  0.057271  0  3.898341  0
C  C84  1  0.35784822  0.84951515  0.99881796  1  0  0.074617  0  3.674576  0  0  0.041767  0  3.932839  0  0  0.043917  0  3.94963  0  0  0.059398  0.040316  0  3.921858  0
C  C85  1  0.85132212  0.85895877  0.50109242  1  0  0.077974  0  3.672606  0  0  0.044719  0  3.930864  0  0  0.046904  0  3.947663  0  0  0.062036  0.043237  0  3.919854  0
C  C86  1  0.64215728  0.15049147  0.00118473  1  0  0.074593  0  3.674404  0  0  0.041703  0  3.932671  0  0  0.043853  0  3.949461  0  0  0.059397  0.040253  0  3.921674  0
C  C87  1  0.14867242  0.14103490  0.49890683  1  0  0.077759  0  3.672705  0  0  0.044506  0  3.930943  0  0  0.046691  0  3.94774  0  0  0.06193  0.043023  0  3.919936  0
C  C88  1  0.40685639  0.19067238  0.84615736  1  0  0.1253  0  3.725276  0  0  0.093551  0  3.982362  0  0  0.099977  0  4.001836  0  0  0.036198  0.089293  0  3.968824  0
C  C89  1  0.34395371  0.06033566  0.65387913  1  0  0.125966  0  3.727853  0  0  0.094435  0  3.984697  0  0  0.100849  0  4.004206  0  0  0.03784  0.090186  0  3.971135  0
C  C90  1  0.59314718  0.80932664  0.15384006  1  0  0.125351  0  3.725253  0  0  0.093614  0  3.982323  0  0  0.10004  0  4.001795  0  0  0.03622  0.089354  0  3.968789  0
C  C91  1  0.65603993  0.93966342  0.34611951  1  0  0.126068  0  3.727699  0  0  0.094516  0  3.98455  0  0  0.100931  0  4.004058  0  0  0.037905  0.090265  0  3.970987  0
C  C92  1  0.25792286  0.29870155  0.79892802  1  0  0.141056  0  3.691417  0  0  0.1113  0  3.938557  0  0  0.118023  0  3.957558  0  0  0.049413  0.106775  0  3.92557  0
C  C93  1  0.49942046  0.95871453  0.70093687  1  0  0.137596  0  3.692898  0  0  0.1078  0  3.940506  0  0  0.1145  0  3.959564  0  0  0.048754  0.103293  0  3.927478  0
C  C94  1  0.74207957  0.70129966  0.20107382  1  0  0.141014  0  3.691257  0  0  0.111261  0  3.938407  0  0  0.117984  0  3.957406  0  0  0.049356  0.10673  0  3.925453  0
C  C95  1  0.50057485  0.04128888  0.29906399  1  0  0.137682  0  3.692993  0  0  0.107872  0  3.940573  0  0  0.114573  0  3.959632  0  0  0.048776  0.103364  0  3.927545  0
C  C96  1  0.52952815  0.30553862  0.84752812  1  0  -0.161595  0  3.701141  0  0  -0.179854  0  3.949344  0  0  -0.187228  0  3.971076  0  0  -0.082699  -0.174767  0  3.934524  0
C  C97  1  0.45737896  0.18180322  0.65260627  1  0  -0.161862  0  3.702709  0  0  -0.180819  0  3.95071  0  0  -0.188213  0  3.972474  0  0  -0.082344  -0.175729  0  3.935879  0
C  C98  1  0.47047459  0.69445823  0.15246847  1  0  -0.161639  0  3.701112  0  0  -0.179855  0  3.949312  0  0  -0.187224  0  3.97104  0  0  -0.082691  -0.174772  0  3.934501  0
C  C99  1  0.54261453  0.81819803  0.34739312  1  0  -0.162082  0  3.702786  0  0  -0.180968  0  3.950827  0  0  -0.188364  0  3.97259  0  0  -0.082376  -0.175878  0  3.935996  0
C  C100  1  0.37463590  0.41690333  0.79717125  1  0  -0.138198  0  3.653753  0  0  -0.155486  0  3.896575  0  0  -0.161931  0  3.915564  0  0  -0.07529  -0.151154  0  3.883827  0
C  C101  1  0.61929287  0.07733569  0.70278011  1  0  -0.139468  0  3.654445  0  0  -0.15761  0  3.897667  0  0  -0.164034  0  3.916669  0  0  -0.075655  -0.153266  0  3.884867  0
C  C102  1  0.62536793  0.58309895  0.20282922  1  0  -0.138163  0  3.653705  0  0  -0.155438  0  3.896558  0  0  -0.161882  0  3.915542  0  0  -0.075247  -0.151107  0  3.883807  0
C  C103  1  0.38070061  0.92266555  0.29721821  1  0  -0.139592  0  3.65447  0  0  -0.157676  0  3.89781  0  0  -0.164097  0  3.916804  0  0  -0.075738  -0.153334  0  3.885031  0
C  C104  1  0.33611848  0.03819715  0.07701803  1  0  0.085267  0  3.676381  0  0  0.056608  0  3.943757  0  0  0.059022  0  3.959742  0  0  0.054991  0.054895  0  3.933251  0
C  C105  1  0.96200744  0.75907207  0.42294442  1  0  0.088925  0  3.678639  0  0  0.059799  0  3.945673  0  0  0.062265  0  3.961678  0  0  0.057599  0.058125  0  3.935106  0
C  C106  1  0.66388718  0.96180730  0.92298391  1  0  0.085396  0  3.676353  0  0  0.056699  0  3.94376  0  0  0.05911  0  3.959749  0  0  0.055068  0.054996  0  3.933223  0
C  C107  1  0.03799598  0.24092914  0.57705644  1  0  0.088967  0  3.678741  0  0  0.059837  0  3.945775  0  0  0.062306  0  3.96178  0  0  0.057586  0.058164  0  3.935209  0
N  N108  1  0.27302797  0.18742107  0.82338951  1  0  -0.335359  0  3.263681  0  0  -0.254133  0  3.525252  0  0  -0.274727  0  3.545477  0  0  -0.332243  -0.239278  0  3.510851  0
N  N109  1  0.36362517  0.94926861  0.67654922  1  0  -0.330695  0  3.265353  0  0  -0.249571  0  3.526796  0  0  -0.27016  0  3.547105  0  0  -0.331165  -0.234722  0  3.512331  0
N  N110  1  0.72697445  0.81258012  0.17660910  1  0  -0.335348  0  3.263682  0  0  -0.254127  0  3.525271  0  0  -0.274723  0  3.545496  0  0  -0.332225  -0.239276  0  3.510894  0
N  N111  1  0.63636988  0.05073156  0.32345182  1  0  -0.330746  0  3.265389  0  0  -0.249615  0  3.526858  0  0  -0.270205  0  3.547166  0  0  -0.331213  -0.234766  0  3.512391  0
N  N112  1  0.22839134  0.97740389  0.94509366  1  0  -0.295755  0  3.228746  0  0  -0.231824  0  3.483265  0  0  -0.245743  0  3.502079  0  0  -0.301147  -0.222076  0  3.470672  0
N  N113  1  0.03260053  0.78282936  0.55484706  1  0  -0.293661  0  3.228276  0  0  -0.229805  0  3.481665  0  0  -0.243745  0  3.500435  0  0  -0.299752  -0.22005  0  3.469088  0
N  N114  1  0.77161390  0.02259947  0.05490706  1  0  -0.295679  0  3.228745  0  0  -0.231739  0  3.483196  0  0  -0.245658  0  3.502006  0  0  -0.301116  -0.221995  0  3.470614  0
N  N115  1  0.96739386  0.21716649  0.44515401  1  0  -0.293683  0  3.228283  0  0  -0.22983  0  3.481658  0  0  -0.243772  0  3.500429  0  0  -0.299775  -0.220073  0  3.469078  0
N  N116  1  0.88216376  0.79051709  0.82949969  1  0  -0.332819  0  3.255611  0  0  -0.255532  0  3.525957  0  0  -0.276228  0  3.546015  0  0  -0.329653  -0.240803  0  3.512064  0
N  N117  1  0.96044423  0.55280359  0.67077022  1  0  -0.332799  0  3.258473  0  0  -0.255359  0  3.528577  0  0  -0.276071  0  3.548735  0  0  -0.329997  -0.240622  0  3.514641  0
N  N118  1  0.11784064  0.20948411  0.17050019  1  0  -0.332653  0  3.255683  0  0  -0.255373  0  3.526009  0  0  -0.27607  0  3.546066  0  0  -0.329524  -0.240647  0  3.512135  0
N  N119  1  0.03955140  0.44719549  0.32922969  1  0  -0.33274  0  3.258477  0  0  -0.255299  0  3.528571  0  0  -0.276011  0  3.548737  0  0  -0.330003  -0.240563  0  3.514637  0
N  N120  1  0.95743849  0.19948325  0.89178878  1  0  0.682072  0  4.155126  0  0  0.716934  0  4.446815  0  0  0.742848  0  4.454464  0  0  0.090075  0.711814  0  4.422006  0
N  N121  1  0.30784948  0.56536443  0.60817342  1  0  0.685768  0  4.152221  0  0  0.718241  0  4.446995  0  0  0.744135  0  4.454707  0  0  0.092685  0.713007  0  4.422481  0
N  N122  1  0.04256127  0.80051363  0.10820914  1  0  0.682017  0  4.155396  0  0  0.717085  0  4.446825  0  0  0.743022  0  4.454467  0  0  0.090055  0.698201  0  4.441296  0
N  N123  1  0.69214616  0.43463465  0.39182703  1  0  0.68579  0  4.152077  0  0  0.718291  0  4.446808  0  0  0.7442  0  4.454509  0  0  0.092693  0.712995  0  4.422378  0
N  N124  1  0.38722717  0.93291313  0.06901030  1  0  -0.246847  0  3.073681  0  0  -0.210569  0  3.346622  0  0  -0.218372  0  3.362558  0  0  -0.291062  -0.205264  0  3.335875  0
N  N125  1  0.86473698  0.81824971  0.43091841  1  0  -0.250136  0  3.076393  0  0  -0.214019  0  3.350032  0  0  -0.221842  0  3.36596  0  0  -0.293364  -0.208671  0  3.339216  0
N  N126  1  0.61278048  0.06709132  0.93099237  1  0  -0.246874  0  3.07351  0  0  -0.210586  0  3.346488  0  0  -0.218388  0  3.362426  0  0  -0.291086  -0.205273  0  3.335706  0
N  N127  1  0.13525840  0.18174612  0.56908168  1  0  -0.250051  0  3.076424  0  0  -0.213929  0  3.350044  0  0  -0.221752  0  3.365971  0  0  -0.293335  -0.208582  0  3.339231  0
O  O128  1  0.20277204  0.82728901  0.80286504  1  0  -0.657679  0  2.110557  0  0  -0.575249  0  2.381469  0  0  -0.60772  0  2.370138  0  0  -0.335895  -0.552131  0  2.388452  0
O  O129  1  0.02507538  0.90020574  0.69709686  1  0  -0.65694  0  2.108458  0  0  -0.574715  0  2.379545  0  0  -0.607174  0  2.368262  0  0  -0.335216  -0.551576  0  2.386413  0
O  O130  1  0.79723327  0.17270679  0.19713705  1  0  -0.657752  0  2.110539  0  0  -0.575282  0  2.381466  0  0  -0.607761  0  2.370138  0  0  -0.335898  -0.552161  0  2.388444  0
O  O131  1  0.97492265  0.09979441  0.30290339  1  0  -0.656938  0  2.108336  0  0  -0.574712  0  2.379443  0  0  -0.607172  0  2.36816  0  0  -0.335219  -0.551581  0  2.386336  0
O  O132  1  0.93928502  0.14190187  0.82081089  1  0  -0.502679  0  1.794307  0  0  -0.477301  0  2.026056  0  0  -0.495872  0  2.017746  0  0  -0.204547  -0.467912  0  2.026354  0
O  O133  1  0.32116675  0.61852147  0.67911871  1  0  -0.505441  0  1.796187  0  0  -0.478736  0  2.028482  0  0  -0.49733  0  2.020141  0  0  -0.205858  -0.469292  0  2.028922  0
O  O134  1  0.06071368  0.85810258  0.17918663  1  0  -0.50263  0  1.79436  0  0  -0.477284  0  2.02598  0  0  -0.49587  0  2.017678  0  0  -0.204462  -0.463369  0  2.031453  0
O  O135  1  0.67883253  0.38148192  0.32088091  1  0  -0.5054  0  1.796147  0  0  -0.478728  0  2.028454  0  0  -0.49733  0  2.020114  0  0  -0.20584  -0.469261  0  2.028915  0
O  O136  1  0.02640696  0.15661660  0.93973461  1  0  -0.496715  0  1.772422  0  0  -0.486278  0  2.000535  0  0  -0.503248  0  1.995141  0  0  -0.204532  -0.47799  0  1.998475  0
O  O137  1  0.21694350  0.58599079  0.56011066  1  0  -0.497166  0  1.771089  0  0  -0.48564  0  1.999765  0  0  -0.502533  0  1.994368  0  0  -0.204805  -0.477372  0  1.997846  0
O  O138  1  0.97358524  0.84336839  0.06026030  1  0  -0.496718  0  1.77261  0  0  -0.486361  0  2.000672  0  0  -0.503335  0  1.995263  0  0  -0.204566  -0.473473  0  2.003996  0
O  O139  1  0.78305652  0.41400934  0.43988869  1  0  -0.49721  0  1.771025  0  0  -0.485689  0  1.999678  0  0  -0.502586  0  1.994275  0  0  -0.204835  -0.477408  0  1.9978  0
O  O140  1  0.30002429  0.68119150  0.84923244  1  0  -0.577196  0  1.909778  0  0  -0.54003  0  2.129252  0  0  -0.561762  0  2.121523  0  0  -0.316104  -0.524873  0  2.134023  0
O  O141  1  0.83231176  0.95060258  0.65065218  1  0  -0.577276  0  1.909259  0  0  -0.540131  0  2.128551  0  0  -0.561881  0  2.120899  0  0  -0.315846  -0.525008  0  2.133352  0
O  O142  1  0.69998260  0.31880322  0.15077238  1  0  -0.577053  0  1.910064  0  0  -0.539871  0  2.129562  0  0  -0.56161  0  2.121861  0  0  -0.316074  -0.524719  0  2.134333  0
O  O143  1  0.16768638  0.04940299  0.34934971  1  0  -0.577205  0  1.909561  0  0  -0.540027  0  2.128836  0  0  -0.561775  0  2.121183  0  0  -0.315743  -0.52491  0  2.13365  0
O  O144  1  0.90805839  0.29290123  0.91169361  1  0  -0.420299  0  1.694352  0  0  -0.421082  0  1.884659  0  0  -0.430966  0  1.879138  0  0  -0.187508  -0.418447  0  1.883335  0
O  O145  1  0.38159042  0.49619102  0.58845741  1  0  -0.42147  0  1.693654  0  0  -0.421599  0  1.885007  0  0  -0.431513  0  1.87953  0  0  -0.188326  -0.418946  0  1.883802  0
O  O146  1  0.09194842  0.70710106  0.08830875  1  0  -0.420278  0  1.694401  0  0  -0.421153  0  1.884653  0  0  -0.431046  0  1.879133  0  0  -0.187539  -0.41381  0  1.888945  0
O  O147  1  0.61840454  0.50380374  0.41154414  1  0  -0.421497  0  1.693622  0  0  -0.421617  0  1.884953  0  0  -0.431536  0  1.879472  0  0  -0.188325  -0.418943  0  1.883776  0
