# generated using pymatgen
data_AlH27(C15O4)3
_symmetry_space_group_name_H-M   'P 1'
_cell_length_a   3.96971592
_cell_length_b   23.55958002
_cell_length_c   23.60556668
_cell_angle_alpha   60.01988706
_cell_angle_beta   87.52907123
_cell_angle_gamma   87.60427458
_symmetry_Int_Tables_number   1
_chemical_formula_structural   AlH27(C15O4)3
_chemical_formula_sum   'Al1 H27 C45 O12'
_cell_volume   1910.01168247
_cell_formula_units_Z   1
loop_
 _symmetry_equiv_pos_site_id
 _symmetry_equiv_pos_as_xyz
  1  'x, y, z'
loop_
 _atom_site_type_symbol
 _atom_site_label
 _atom_site_symmetry_multiplicity
 _atom_site_fract_x
 _atom_site_fract_y
 _atom_site_fract_z
 _atom_site_occupancy
 _atom_site_pbe_bader_charge
 _atom_site_pbe_bader_spin_density
 _atom_site_pbe_cm5_charge
 _atom_site_pbe_ddec_charge
 _atom_site_pbe_ddec_spin_density
 _atom_site_pbe_ddec_sum_bond_order
 _atom_site_pbe_magmom
Al  Al0  1  0.01638958  0.49934355  0.50025131  1  2.504894  0  0.427427  1.596528  0  2.557681  0
H  H1  1  0.73348613  0.32280843  0.67852714  1  0.050412  0  0.109927  0.114483  0  0.975955  0
H  H2  1  0.70385133  0.25773150  0.79779779  1  0.09521  0  0.103852  0.10703  0  1.036555  0
H  H3  1  0.86090830  0.16636834  0.01604162  1  0.078072  0  0.107712  0.125949  0  0.991807  0
H  H4  1  0.31234901  0.80309705  0.27019465  1  0.086105  0  0.110201  0.130928  0  0.998291  0
H  H5  1  0.25627145  0.89436705  0.23109596  1  0.035143  0  0.101027  0.099611  0  1.016937  0
H  H6  1  0.24339049  0.01269542  0.16851566  1  0.060083  0  0.099599  0.103673  0  1.006993  0
H  H7  1  0.51784802  0.10501523  0.10609012  1  0.055867  0  0.100569  0.099588  0  1.022684  0
H  H8  1  0.72095979  0.67772709  0.49661291  1  0.092054  0  0.109828  0.113653  0  0.977518  0
H  H9  1  0.69771903  0.79693642  0.44277467  1  0.085347  0  0.103063  0.105435  0  1.041994  0
H  H10  1  0.83209322  0.01696294  0.31578126  1  0.090728  0  0.107957  0.125905  0  0.992982  0
H  H11  1  0.34277389  0.26998227  0.42790447  1  0.077521  0  0.109844  0.129766  0  1.000144  0
H  H12  1  0.26474165  0.23383479  0.37525515  1  0.06723  0  0.101484  0.101039  0  1.016078  0
H  H13  1  0.23574679  0.17179775  0.31937645  1  0.059774  0  0.100147  0.104892  0  1.004769  0
H  H14  1  0.52189025  0.10709742  0.28727458  1  0.106768  0  0.100544  0.099517  0  1.02341  0
H  H15  1  0.79095920  0.49382764  0.32456637  1  0.08316  0  0.109641  0.113304  0  0.978078  0
H  H16  1  0.76930673  0.44057613  0.25903022  1  0.068386  0  0.101862  0.103403  0  1.042864  0
H  H17  1  0.86169015  0.31385041  0.16242595  1  0.08112  0  0.107684  0.125051  0  0.993969  0
H  H18  1  0.29750083  0.42897896  0.80346500  1  0.095051  0  0.110622  0.131605  0  0.994476  0
H  H19  1  0.20760181  0.37338661  0.89509814  1  0.059674  0  0.100966  0.099118  0  1.015121  0
H  H20  1  0.19884570  0.31744367  0.01369962  1  0.060497  0  0.099496  0.103933  0  1.006676  0
H  H21  1  0.51917414  0.28844536  0.10408759  1  0.07975  0  0.100578  0.099907  0  1.02151  0
H  H22  1  0.21980641  0.35724302  0.50985239  1  0.643632  0  0.316758  0.362462  0  0.937239  0
H  H23  1  0.17178523  0.50952448  0.63556898  1  0.665298  0  0.317335  0.362539  0  0.93219  0
H  H24  1  0.19267755  0.63497992  0.35745154  1  0.653018  0  0.316846  0.362611  0  0.934703  0
H  H25  1  0.06579051  0.38976265  0.24379237  1  0.60329  0  0.316223  0.348763  0  0.928461  0
H  H26  1  0.02093493  0.24931307  0.85274498  1  0.618777  0  0.313228  0.347963  0  0.934393  0
H  H27  1  0.00813378  0.85551532  0.39527151  1  0.624597  0  0.314231  0.346515  0  0.936114  0
C  C28  1  0.50834924  0.44607456  0.60166587  1  1.453091  0  0.267494  0.656948  0  4.06209  0
C  C29  1  0.54422426  0.45118143  0.44672893  1  1.475584  0  0.267139  0.655901  0  4.058695  0
C  C30  1  0.50834263  0.60090482  0.45226798  1  1.519071  0  0.266161  0.65411  0  4.063741  0
C  C31  1  0.63411963  0.34500423  0.70690363  1  -0.057013  0  -0.081041  -0.045708  0  4.024121  0
C  C32  1  0.63156300  0.30937192  0.77461597  1  -0.02497  0  -0.117427  -0.213774  0  4.039454  0
C  C33  1  0.72801130  0.24463502  0.92214813  1  0.405513  0  0.086138  0.291864  0  4.020515  0
C  C34  1  0.70725466  0.21103300  0.99039525  1  0.046897  0  -0.099943  -0.240326  0  3.938273  0
C  C35  1  0.36404326  0.70996759  0.35468774  1  0.471796  0  0.098038  0.333435  0  4.052824  0
C  C36  1  0.39849276  0.77790110  0.32022316  1  0.046717  0  -0.102996  -0.253416  0  3.906053  0
C  C37  1  0.39069072  0.92046567  0.24995214  1  0.064222  0  -0.091158  -0.101511  0  4.026425  0
C  C38  1  0.38153793  0.98823704  0.21387160  1  -0.07507  0  -0.101915  -0.155845  0  4.019802  0
C  C39  1  0.49782595  0.40892284  0.67324145  1  0.041361  0  -0.037676  -0.205882  0  4.008488  0
C  C40  1  0.52491546  0.33900333  0.81238499  1  -0.017958  0  -0.003278  0.110837  0  4.019986  0
C  C41  1  0.54270075  0.30418586  0.88463022  1  -0.025491  0  -0.028885  -0.091925  0  3.988017  0
C  C42  1  0.52244645  0.23621044  0.02483935  1  -0.067112  0  -0.00368  0.092786  0  4.024045  0
C  C43  1  0.51488361  0.20067496  0.09701384  1  0.03162  0  -0.006066  0.081704  0  4.015041  0
C  C44  1  0.51566240  0.13200816  0.13251617  1  0.042856  0  -0.085026  -0.172479  0  3.921621  0
C  C45  1  0.62748832  0.70621265  0.44707693  1  -0.151735  0  -0.080987  -0.044152  0  4.020765  0
C  C46  1  0.62777538  0.77401053  0.41505203  1  0.003874  0  -0.11667  -0.208445  0  4.033675  0
C  C47  1  0.71508440  0.92275700  0.33210733  1  0.404461  0  0.086304  0.290342  0  4.018538  0
C  C48  1  0.69353338  0.99109553  0.29708688  1  0.05155  0  -0.099248  -0.238354  0  3.936404  0
C  C49  1  0.40501659  0.35372721  0.43664001  1  0.541521  0  0.097887  0.332994  0  4.054014  0
C  C50  1  0.43881110  0.31942913  0.40260521  1  -0.010335  0  -0.104268  -0.254949  0  3.911247  0
C  C51  1  0.40489302  0.25146921  0.32914521  1  -0.06756  0  -0.092033  -0.103661  0  4.030639  0
C  C52  1  0.38635566  0.21574058  0.29743120  1  0.007938  0  -0.102841  -0.158165  0  4.023556  0
C  C53  1  0.49848609  0.67251560  0.41808518  1  0.000188  0  -0.03838  -0.209702  0  4.011214  0
C  C54  1  0.52986359  0.81207131  0.34869394  1  -0.010291  0  -0.002597  0.109114  0  4.01539  0
C  C55  1  0.55044695  0.88447708  0.31082913  1  -0.064132  0  -0.029066  -0.091529  0  3.985292  0
C  C56  1  0.52815484  0.02525266  0.23779529  1  0.072202  0  -0.003378  0.094102  0  4.01904  0
C  C57  1  0.51768912  0.09757363  0.20105686  1  -0.090594  0  -0.00585  0.078636  0  4.016614  0
C  C58  1  0.51840902  0.13329398  0.23398395  1  -0.041339  0  -0.085332  -0.171163  0  3.921135  0
C  C59  1  0.68947061  0.44484993  0.34618933  1  0.00038  0  -0.080323  -0.043912  0  4.015254  0
C  C60  1  0.68976688  0.41306627  0.31017672  1  -0.057009  0  -0.11624  -0.205159  0  4.029308  0
C  C61  1  0.75191230  0.33061648  0.24187899  1  0.508165  0  0.086015  0.287981  0  4.025694  0
C  C62  1  0.72004485  0.29620708  0.20849408  1  -0.010803  0  -0.099153  -0.237182  0  3.935468  0
C  C63  1  0.35371750  0.43645821  0.71043066  1  0.470948  0  0.097347  0.331295  0  4.053513  0
C  C64  1  0.38797351  0.40304782  0.77824309  1  0.03885  0  -0.102278  -0.252767  0  3.904435  0
C  C65  1  0.36076441  0.32879138  0.92092050  1  0.025454  0  -0.090856  -0.099412  0  4.025785  0
C  C66  1  0.35302187  0.29700159  0.98859277  1  -0.072558  0  -0.103591  -0.159148  0  4.023326  0
C  C67  1  0.54744431  0.41660056  0.40969162  1  -0.001072  0  -0.037136  -0.207316  0  4.005529  0
C  C68  1  0.57597941  0.34771562  0.33861372  1  -0.062843  0  -0.003279  0.111446  0  4.01656  0
C  C69  1  0.58247893  0.31058858  0.30307030  1  -0.006634  0  -0.030573  -0.09645  0  3.991776  0
C  C70  1  0.53977775  0.23848965  0.23518404  1  -0.028246  0  -0.002577  0.095919  0  4.018972  0
C  C71  1  0.52123026  0.20193037  0.19977032  1  -0.072868  0  -0.005768  0.078822  0  4.018636  0
C  C72  1  0.51659990  0.23502953  0.13125388  1  -0.085581  0  -0.085308  -0.173729  0  3.92267  0
O  O73  1  0.28539060  0.57181464  0.43754106  1  -1.257471  0  -0.242989  -0.619505  0  2.378952  0
O  O74  1  0.27126799  0.48986642  0.57269457  1  -1.258373  0  -0.243259  -0.620443  0  2.37704  0
O  O75  1  0.30615923  0.43696477  0.49113209  1  -1.259396  0  -0.244885  -0.626001  0  2.396071  0
O  O76  1  0.73698810  0.56989031  0.49408050  1  -1.269552  0  -0.242034  -0.598508  0  2.369724  0
O  O77  1  0.77206384  0.49247413  0.43549006  1  -1.262017  0  -0.240769  -0.593375  0  2.353851  0
O  O78  1  0.75079839  0.43489390  0.57091265  1  -1.25986  0  -0.241424  -0.596094  0  2.36326  0
O  O79  1  0.24561395  0.32394593  0.49586174  1  -1.151427  0  -0.353334  -0.440822  0  2.24431  0
O  O80  1  0.19600647  0.49594110  0.68228877  1  -1.174832  0  -0.351927  -0.438815  0  2.243123  0
O  O81  1  0.21497615  0.68206821  0.32449243  1  -1.165314  0  -0.350835  -0.438229  0  2.246428  0
O  O82  1  0.95929036  0.38330000  0.21098250  1  -1.141954  0  -0.361202  -0.447338  0  2.281536  0
O  O83  1  0.94175732  0.21593033  0.89611901  1  -1.152091  0  -0.360085  -0.449512  0  2.278493  0
O  O84  1  0.90778153  0.89751744  0.38672133  1  -1.152218  0  -0.361606  -0.448704  0  2.279917  0
