# generated using pymatgen
data_HgH5C8S2N5
_symmetry_space_group_name_H-M   'P 1'
_cell_length_a   7.29850108
_cell_length_b   10.42103656
_cell_length_c   15.70382764
_cell_angle_alpha   81.25933150
_cell_angle_beta   82.70998593
_cell_angle_gamma   78.19817539
_symmetry_Int_Tables_number   1
_chemical_formula_structural   HgH5C8S2N5
_chemical_formula_sum   'Hg4 H20 C32 S8 N20'
_cell_volume   1149.89373879
_cell_formula_units_Z   4
loop_
 _symmetry_equiv_pos_site_id
 _symmetry_equiv_pos_as_xyz
  1  'x, y, z'
loop_
 _atom_site_type_symbol
 _atom_site_label
 _atom_site_symmetry_multiplicity
 _atom_site_fract_x
 _atom_site_fract_y
 _atom_site_fract_z
 _atom_site_occupancy
 _atom_site_pbe_bader_charge
 _atom_site_pbe_bader_spin_density
 _atom_site_pbe_cm5_charge
 _atom_site_pbe_ddec_charge
 _atom_site_pbe_ddec_spin_density
 _atom_site_pbe_ddec_sum_bond_order
 _atom_site_pbe_magmom
Hg  Hg0  1  0.16246170  0.80995511  0.95054156  1  0.72126  0  0.521752  0.454185  0  2.659412  0
Hg  Hg1  1  0.83754296  0.19004310  0.04945811  1  0.721386  0  0.521737  0.454155  0  2.659428  0
Hg  Hg2  1  0.20611625  0.54346421  0.19410833  1  0.743694  0  0.536407  0.477087  0  2.642722  0
Hg  Hg3  1  0.79388952  0.45653500  0.80589118  1  0.743628  0  0.536453  0.477153  0  2.642653  0
H  H4  1  0.38187186  0.70263806  0.77794192  1  0.138271  0  0.099619  0.069613  0  1.062286  0
H  H5  1  0.61813556  0.29736017  0.22206014  1  0.138327  0  0.099615  0.069639  0  1.062326  0
H  H6  1  0.56027279  0.77219101  0.63719210  1  0.131678  0  0.106686  0.11697  0  1.045826  0
H  H7  1  0.43973819  0.22780425  0.36280877  1  0.131603  0  0.106689  0.116974  0  1.045858  0
H  H8  1  0.48530955  0.16078654  0.71585974  1  0.156857  0  0.100956  0.108898  0  1.070203  0
H  H9  1  0.51467721  0.83921661  0.28413348  1  0.156845  0  0.100959  0.10888  0  1.070144  0
H  H10  1  0.31595892  0.07534969  0.85339846  1  0.10578  0  0.101085  0.074265  0  1.027111  0
H  H11  1  0.68402677  0.92465741  0.14659697  1  0.105829  0  0.101122  0.074314  0  1.027132  0
H  H12  1  0.12850375  0.23734803  0.21274921  1  0.140095  0  0.104442  0.079503  0  1.035416  0
H  H13  1  0.87150478  0.76265118  0.78725140  1  0.140058  0  0.104443  0.079523  0  1.035391  0
H  H14  1  0.96477420  0.07600044  0.31346953  1  0.127561  0  0.112193  0.129298  0  1.001745  0
H  H15  1  0.03522966  0.92400075  0.68653116  1  0.127525  0  0.112219  0.129345  0  1.001652  0
H  H16  1  0.80787709  0.37414618  0.48794566  1  0.11998  0  0.107486  0.10518  0  1.056528  0
H  H17  1  0.19211688  0.62586093  0.51205119  1  0.119941  0  0.107505  0.105212  0  1.056489  0
H  H18  1  0.97627383  0.51804772  0.38281222  1  0.093874  0  0.118401  0.092514  0  0.969484  0
H  H19  1  0.02372481  0.48195742  0.61718392  1  0.093897  0  0.118373  0.092481  0  0.969531  0
H  H20  1  0.68101943  0.28529540  0.60333984  1  0.434735  0  0.300988  0.264498  0  0.972627  0
H  H21  1  0.31898336  0.71470973  0.39665542  1  0.434816  0  0.301001  0.264475  0  0.972632  0
H  H22  1  0.52309011  0.31490108  0.52916265  1  0.472633  0  0.294457  0.276547  0  1.017866  0
H  H23  1  0.47690520  0.68510109  0.47083653  1  0.472671  0  0.294484  0.276617  0  1.017768  0
C  C24  1  0.40885154  0.80297698  0.76148308  1  0.42514  0  0.034592  0.085353  0  3.957349  0
C  C25  1  0.59115699  0.19702223  0.23851881  1  0.425182  0  0.034584  0.085253  0  3.957402  0
C  C26  1  0.50711633  0.84180991  0.68369932  1  -0.050473  0  -0.081052  -0.159011  0  3.928533  0
C  C27  1  0.49289247  0.15818831  0.31630266  1  -0.050552  0  -0.081089  -0.159044  0  3.928714  0
C  C28  1  0.53594252  0.97286210  0.66422738  1  -0.001286  0  0.022178  0.089508  0  3.961181  0
C  C29  1  0.46406107  0.02714008  0.33577131  1  -0.000771  0  0.022196  0.08949  0  3.961267  0
C  C30  1  0.46698089  0.05856810  0.72685904  1  0.020306  0  -0.077262  -0.139296  0  3.891012  0
C  C31  1  0.53301415  0.94143505  0.27313752  1  0.019851  0  -0.07722  -0.139206  0  3.890909  0
C  C32  1  0.37114149  0.01111682  0.80360340  1  0.463913  0  0.042855  0.097786  0  3.942304  0
C  C33  1  0.62885466  0.98888732  0.19639299  1  0.463949  0  0.042795  0.097685  0  3.942387  0
C  C34  1  0.63951186  0.00820170  0.58119503  1  0.955186  0  0.226736  0.186413  0  3.972629  0
C  C35  1  0.36049115  0.99179750  0.41880400  1  0.955112  0  0.226762  0.186446  0  3.972797  0
C  C36  1  0.78395669  0.11265192  0.46869377  1  0.932298  0  0.218688  0.165966  0  3.995114  0
C  C37  1  0.21603861  0.88735025  0.53130478  1  0.932163  0  0.21874  0.166015  0  3.994871  0
C  C38  1  0.05535931  0.26234361  0.27477791  1  0.426489  0  0.040493  0.092359  0  3.942419  0
C  C39  1  0.94464730  0.73765758  0.72522198  1  0.426475  0  0.040586  0.09249  0  3.942359  0
C  C40  1  0.96336365  0.17385180  0.33031519  1  0.045847  0  -0.075402  -0.150709  0  3.909051  0
C  C41  1  0.03663994  0.82615038  0.66968478  1  0.045868  0  -0.075466  -0.150811  0  3.909131  0
C  C42  1  0.87052997  0.21035382  0.40971719  1  0.02263  0  0.02273  0.088269  0  3.978349  0
C  C43  1  0.12946672  0.78964835  0.59028255  1  0.022608  0  0.022729  0.088255  0  3.978445  0
C  C44  1  0.87561763  0.33695118  0.42858825  1  -0.073954  0  -0.078996  -0.149084  0  3.92317  0
C  C45  1  0.12437799  0.66305495  0.57140924  1  -0.073941  0  -0.079011  -0.149093  0  3.923108  0
C  C46  1  0.97078551  0.41934441  0.36922564  1  0.497047  0  0.047009  0.094523  0  3.960713  0
C  C47  1  0.02921229  0.58065875  0.63077202  1  0.497046  0  0.047069  0.094612  0  3.960593  0
C  C48  1  0.86820237  0.04101666  0.86039124  1  0.645995  0  0.120636  0.211305  0  4.229389  0
C  C49  1  0.13178672  0.95897267  0.13961917  1  0.646156  0  0.120579  0.211449  0  4.229587  0
C  C50  1  0.57494938  0.66425221  0.96248247  1  0.653457  0  0.149766  0.254655  0  4.20112  0
C  C51  1  0.42505421  0.33574996  0.03751813  1  0.653336  0  0.149784  0.254764  0  4.201077  0
C  C52  1  0.13645703  0.49243568  0.89258088  1  0.638513  0  0.150014  0.253363  0  4.203681  0
C  C53  1  0.86354646  0.50755661  0.10742010  1  0.63818  0  0.150058  0.253436  0  4.203536  0
C  C54  1  0.43506316  0.48579091  0.35880797  1  0.631438  0  0.141494  0.206995  0  4.227941  0
C  C55  1  0.56493071  0.51420633  0.64119499  1  0.630857  0  0.141537  0.206948  0  4.228  0
S  S56  1  0.83168950  0.91835215  0.93806767  1  0.088925  0  -0.096703  -0.175885  0  2.719945  0
S  S57  1  0.16831117  0.08163520  0.06194034  1  0.08866  0  -0.096616  -0.175868  0  2.720017  0
S  S58  1  0.43487767  0.73327262  0.04081703  1  0.138185  0  -0.094832  -0.166389  0  2.715403  0
S  S59  1  0.56512146  0.26672560  0.95918551  1  0.138166  0  -0.094843  -0.166396  0  2.715393  0
S  S60  1  0.08544422  0.35111200  0.87637422  1  0.146408  0  -0.092518  -0.165091  0  2.694224  0
S  S61  1  0.91455571  0.64888325  0.12362730  1  0.146783  0  -0.092536  -0.165102  0  2.693957  0
S  S62  1  0.48539487  0.56222388  0.26061069  1  0.122778  0  -0.071828  -0.1384  0  2.705149  0
S  S63  1  0.51460783  0.43777138  0.73939131  1  0.123159  0  -0.07184  -0.1384  0  2.705317  0
N  N64  1  0.34057374  0.88638362  0.82056905  1  -1.198259  0  -0.315964  -0.199325  0  3.507326  0
N  N65  1  0.65942735  0.11361757  0.17943117  1  -1.19835  0  -0.315958  -0.199219  0  3.507184  0
N  N66  1  0.72568278  0.91980370  0.52856179  1  -0.650907  0  -0.215676  -0.228513  0  3.227784  0
N  N67  1  0.27431640  0.08019945  0.47143516  1  -0.650148  0  -0.215624  -0.228468  0  3.227737  0
N  N68  1  0.81410762  0.98458874  0.45871331  1  -0.647948  0  -0.216907  -0.231074  0  3.225888  0
N  N69  1  0.18588965  0.01541640  0.54128482  1  -0.648754  0  -0.217002  -0.231152  0  3.225685  0
N  N70  1  0.05942533  0.38350650  0.29378523  1  -1.204721  0  -0.313734  -0.20757  0  3.51152  0
N  N71  1  0.94057853  0.61649468  0.70621419  1  -1.204537  0  -0.313798  -0.207706  0  3.511487  0
N  N72  1  0.88519012  0.13057157  0.80610127  1  -1.188867  0  -0.351882  -0.407164  0  2.810266  0
N  N73  1  0.11479790  0.86942172  0.19391326  1  -1.188855  0  -0.35187  -0.407297  0  2.810431  0
N  N74  1  0.67897154  0.61903477  0.90639813  1  -1.218589  0  -0.342103  -0.379233  0  3.097043  0
N  N75  1  0.32103370  0.38096642  0.09360248  1  -1.218492  0  -0.342104  -0.379321  0  3.097051  0
N  N76  1  0.17842670  0.59232227  0.90162827  1  -1.210171  0  -0.341509  -0.380727  0  3.077752  0
N  N77  1  0.82157377  0.40767100  0.09837215  1  -1.210138  0  -0.341504  -0.380745  0  3.077866  0
N  N78  1  0.40575284  0.43415576  0.43008423  1  -1.204466  0  -0.327313  -0.394942  0  2.874895  0
N  N79  1  0.59423386  0.56584246  0.56992032  1  -1.204298  0  -0.327351  -0.394921  0  2.874845  0
N  N80  1  0.58421703  0.24811679  0.57779266  1  -0.73284  0  -0.495361  -0.50601  0  3.207925  0
N  N81  1  0.41578353  0.75188637  0.42220612  1  -0.732903  0  -0.495408  -0.506096  0  3.207897  0
N  N82  1  0.67153233  0.13111761  0.54506522  1  -0.85849  0  -0.132664  0.10331  0  3.727846  0
N  N83  1  0.32846409  0.86888555  0.45493444  1  -0.85834  0  -0.13273  0.103296  0  3.72797  0
