# generated using pymatgen
data_Zr3H12C24(N3O8)2
_symmetry_space_group_name_H-M   'P 1'
_cell_length_a   17.26979874
_cell_length_b   17.27313313
_cell_length_c   18.15136992
_cell_angle_alpha   89.55450789
_cell_angle_beta   89.97322153
_cell_angle_gamma   110.25655121
_symmetry_Int_Tables_number   1
_chemical_formula_structural   Zr3H12C24(N3O8)2
_chemical_formula_sum   'Zr6 H24 C48 N12 O32'
_cell_volume   5079.55081290
_cell_formula_units_Z   2
loop_
 _symmetry_equiv_pos_site_id
 _symmetry_equiv_pos_as_xyz
  1  'x, y, z'
loop_
 _atom_site_type_symbol
 _atom_site_label
 _atom_site_symmetry_multiplicity
 _atom_site_fract_x
 _atom_site_fract_y
 _atom_site_fract_z
 _atom_site_occupancy
 _atom_site_pbe_bader_charge
 _atom_site_pbe_bader_spin_density
 _atom_site_pbe_cm5_charge
 _atom_site_pbe_ddec_charge
 _atom_site_pbe_ddec_spin_density
 _atom_site_pbe_ddec_sum_bond_order
 _atom_site_pbe_magmom
Zr  Zr0  1  0.89496299  0.88715646  0.90797905  1  2.601172  0  1.551103  2.355237  0  2.849603  0
Zr  Zr1  1  0.90661462  0.89262611  0.10333218  1  2.601313  0  1.55219  2.357096  0  2.847218  0
Zr  Zr2  1  0.07642634  0.06480027  0.89723778  1  2.601353  0  1.550605  2.356549  0  2.848291  0
Zr  Zr3  1  0.08407189  0.07397539  0.09256669  1  2.606345  0  1.551249  2.355538  0  2.850269  0
Zr  Zr4  1  0.90173844  0.06845336  0.00087475  1  2.631302  0  1.608508  2.360275  0  2.764447  0
Zr  Zr5  1  0.07911439  0.89091979  0.99949328  1  2.633791  0  1.61239  2.359847  0  2.776431  0
H  H6  1  0.90450947  0.76625219  0.00018274  1  0.606053  0  0.331725  0.440073  0  0.840176  0
H  H7  1  0.92702505  0.04180288  0.16374454  1  0.606623  0  0.330751  0.438443  0  0.842555  0
H  H8  1  0.20398892  0.06533540  0.99959087  1  0.633807  0  0.331377  0.439897  0  0.840955  0
H  H9  1  0.92641560  0.04514953  0.83747620  1  0.615267  0  0.330504  0.438236  0  0.842912  0
H  H10  1  0.92435444  0.87047836  0.24604460  1  0.596421  0  0.295361  0.404402  0  0.891064  0
H  H11  1  0.13416437  0.06072040  0.23095129  1  0.644609  0  0.330945  0.423394  0  0.872742  0
H  H12  1  0.19732981  0.22359422  0.09596792  1  0.614073  0  0.296301  0.405001  0  0.889792  0
H  H13  1  0.23398764  0.17529986  0.85889369  1  0.645145  0  0.343769  0.428857  0  0.848421  0
H  H14  1  0.09898404  0.05066660  0.75442055  1  0.59006  0  0.295511  0.40447  0  0.891001  0
H  H15  1  0.83295955  0.87583918  0.76424632  1  0.663773  0  0.342136  0.426885  0  0.851734  0
H  H16  1  0.74490303  0.77466172  0.90654911  1  0.608743  0  0.295833  0.404643  0  0.890629  0
H  H17  1  0.80028910  0.73532055  0.14399526  1  0.63628  0  0.342527  0.427933  0  0.851132  0
H  H18  1  0.17286768  0.22329137  0.87702526  1  0.647483  0  0.331383  0.424344  0  0.871385  0
H  H19  1  0.90414841  0.83756452  0.76867533  1  0.652261  0  0.331644  0.424266  0  0.870402  0
H  H20  1  0.74897422  0.79382675  0.12684275  1  0.656188  0  0.332443  0.424529  0  0.869474  0
H  H21  1  0.09713210  0.13256630  0.23777771  1  0.614081  0  0.343255  0.427605  0  0.850138  0
H  H22  1  0.36440228  0.96535770  0.43067564  1  0.11058  0  0.108115  0.109619  0  1.009311  0
H  H23  1  0.61738400  0.97790495  0.43022399  1  0.106533  0  0.109231  0.112086  0  1.001666  0
H  H24  1  0.61811357  0.98024919  0.56846805  1  0.111447  0  0.108202  0.110134  0  1.005121  0
H  H25  1  0.36525858  0.96794014  0.56876901  1  0.119178  0  0.108311  0.110013  0  1.008692  0
H  H26  1  0.00498210  0.60540985  0.42951952  1  0.105084  0  0.108194  0.109581  0  1.009126  0
H  H27  1  0.97932400  0.34884308  0.43402979  1  0.103824  0  0.108208  0.110037  0  1.004106  0
H  H28  1  0.97944969  0.35054306  0.57230534  1  0.113513  0  0.109158  0.111681  0  1.003206  0
H  H29  1  0.00529519  0.60711906  0.56766775  1  0.108624  0  0.108271  0.11009  0  1.007886  0
C  C30  1  0.75770867  0.97928491  0.88386582  1  1.700584  0  0.243804  0.706418  0  4.189262  0
C  C31  1  0.99872675  0.75495683  0.12699924  1  1.689725  0  0.244641  0.706546  0  4.189075  0
C  C32  1  0.75719071  0.97645871  0.11583013  1  1.696329  0  0.246145  0.704571  0  4.18797  0
C  C33  1  0.00112550  0.75991960  0.87181606  1  1.683037  0  0.247213  0.706768  0  4.185709  0
C  C34  1  0.21393793  0.97348938  0.87184598  1  1.693254  0  0.243609  0.704952  0  4.194155  0
C  C35  1  0.99232733  0.21080584  0.11840130  1  1.686654  0  0.244448  0.704869  0  4.193488  0
C  C36  1  0.21111148  0.96606942  0.12730798  1  1.7023  0  0.245835  0.704592  0  4.185222  0
C  C37  1  0.99143285  0.21425737  0.88587642  1  1.673032  0  0.246233  0.706045  0  4.185029  0
C  C38  1  0.99896766  0.55138193  0.76561174  1  1.145841  0  0.268686  0.442063  0  4.09512  0
C  C39  1  0.99331243  0.48098125  0.65940555  1  0.994957  0  0.262291  0.383744  0  4.006446  0
C  C40  1  0.99147322  0.41848897  0.77022270  1  1.149684  0  0.268411  0.440554  0  4.0921  0
C  C41  1  0.99631712  0.54501208  0.23389873  1  1.143708  0  0.267826  0.439903  0  4.101577  0
C  C42  1  0.99265107  0.47720138  0.34233283  1  1.0508  0  0.261906  0.384179  0  4.002446  0
C  C43  1  0.99106913  0.41292723  0.23343146  1  1.205004  0  0.267152  0.438073  0  4.094779  0
C  C44  1  0.42287273  0.97460011  0.76526748  1  1.150508  0  0.268056  0.442898  0  4.09475  0
C  C45  1  0.55478937  0.97920171  0.76797066  1  1.2136  0  0.267468  0.43979  0  4.095062  0
C  C46  1  0.49104173  0.97543807  0.65799142  1  1.042481  0  0.262381  0.38558  0  4.000747  0
C  C47  1  0.41894060  0.96461531  0.23404246  1  1.150718  0  0.26838  0.442147  0  4.095756  0
C  C48  1  0.55186039  0.97210966  0.23065611  1  1.16124  0  0.267388  0.438713  0  4.09234  0
C  C49  1  0.48907749  0.97014723  0.34093065  1  1.020578  0  0.262821  0.384065  0  4.003144  0
C  C50  1  0.41953795  0.96872178  0.46143506  1  0.0238  0  -0.07696  -0.093992  0  3.956845  0
C  C51  1  0.49074482  0.97157893  0.42228718  1  0.05955  0  0.00072  0.013655  0  3.956588  0
C  C52  1  0.56253248  0.97576623  0.46110262  1  0.002886  0  -0.075639  -0.094923  0  3.947269  0
C  C53  1  0.56296341  0.97703913  0.53768662  1  -0.059933  0  -0.076703  -0.09569  0  3.951603  0
C  C54  1  0.49169125  0.97424524  0.57671584  1  -0.097328  0  -0.000167  0.012265  0  3.959195  0
C  C55  1  0.42000121  0.97006047  0.53781774  1  -0.043255  0  -0.076789  -0.094714  0  3.957152  0
C  C56  1  0.99943964  0.55005118  0.46136877  1  0.018652  0  -0.07698  -0.094735  0  3.955281  0
C  C57  1  0.99225591  0.47710740  0.42361773  1  -0.006747  0  -0.00083  0.012733  0  3.95829  0
C  C58  1  0.98497574  0.40503892  0.46384708  1  0.001354  0  -0.076319  -0.095269  0  3.950901  0
C  C59  1  0.98506000  0.40595778  0.54043454  1  -0.044838  0  -0.074663  -0.093677  0  3.947929  0
C  C60  1  0.99251043  0.47900187  0.57807557  1  0.058127  0  -0.000434  0.012325  0  3.957803  0
C  C61  1  0.99958718  0.55099356  0.53778371  1  -0.122782  0  -0.076374  -0.094239  0  3.955914  0
C  C62  1  0.98989225  0.34170546  0.19345014  1  -0.22824  0  -0.002124  -0.062598  0  3.957544  0
C  C63  1  0.99040568  0.28218327  0.15843762  1  0.016783  0  -0.010307  -0.118696  0  3.880614  0
C  C64  1  0.99863562  0.61822938  0.19561425  1  -0.059224  0  -0.002658  -0.062925  0  3.962713  0
C  C65  1  0.99967831  0.68111805  0.16449040  1  -0.143777  0  -0.01148  -0.122041  0  3.887086  0
C  C66  1  0.98977265  0.34748677  0.81192355  1  -0.189271  0  -0.000479  -0.061421  0  3.95229  0
C  C67  1  0.99025796  0.28753735  0.84726496  1  0.021101  0  -0.008643  -0.117946  0  3.871823  0
C  C68  1  0.00352287  0.68829017  0.83238325  1  -0.22412  0  -0.009696  -0.120646  0  3.882003  0
C  C69  1  0.00226463  0.62544601  0.80192034  1  0.064218  0  -0.002848  -0.063679  0  3.960385  0
C  C70  1  0.28234262  0.96165369  0.16666526  1  -0.376351  0  -0.010026  -0.121084  0  3.881146  0
C  C71  1  0.34498965  0.96169065  0.19719479  1  0.17863  0  -0.002497  -0.063469  0  3.957543  0
C  C72  1  0.62313609  0.97461014  0.18944236  1  0.076967  0  -0.000913  -0.060945  0  3.951343  0
C  C73  1  0.68347052  0.97582181  0.15421049  1  -0.288747  0  -0.008253  -0.117958  0  3.872204  0
C  C74  1  0.28716308  0.97252793  0.83379014  1  0.105798  0  -0.010596  -0.119805  0  3.886242  0
C  C75  1  0.34967339  0.97318939  0.80259704  1  -0.284796  0  -0.002664  -0.06468  0  3.95957  0
C  C76  1  0.62594579  0.98108950  0.80886664  1  -0.201298  0  -0.002432  -0.061672  0  3.958884  0
C  C77  1  0.68591092  0.98130039  0.84401934  1  -0.001107  0  -0.010798  -0.121402  0  3.881936  0
N  N78  1  0.99820979  0.55258546  0.69156351  1  -1.115479  0  -0.300625  -0.402886  0  3.155623  0
N  N79  1  0.98933793  0.41172586  0.69634624  1  -1.129858  0  -0.299473  -0.401074  0  3.142886  0
N  N80  1  0.99618878  0.48647895  0.80856344  1  -1.107282  0  -0.297348  -0.392399  0  3.073297  0
N  N81  1  0.99586278  0.54764634  0.30783595  1  -1.118539  0  -0.298767  -0.40048  0  3.155561  0
N  N82  1  0.98997903  0.40767897  0.30747891  1  -1.137696  0  -0.299628  -0.402305  0  3.141256  0
N  N83  1  0.99413172  0.47963820  0.19292022  1  -1.11169  0  -0.297039  -0.389965  0  3.075675  0
N  N84  1  0.48806200  0.97753257  0.80732815  1  -1.124263  0  -0.29691  -0.391125  0  3.073476  0
N  N85  1  0.56023626  0.97837325  0.69401719  1  -1.152818  0  -0.300634  -0.404315  0  3.142121  0
N  N86  1  0.42052850  0.97336901  0.69129501  1  -1.156004  0  -0.299116  -0.4022  0  3.153814  0
N  N87  1  0.48401251  0.96755586  0.19169427  1  -1.106067  0  -0.297579  -0.391994  0  3.073693  0
N  N88  1  0.55839481  0.97392612  0.30460561  1  -1.120809  0  -0.299337  -0.400729  0  3.139621  0
N  N89  1  0.41759698  0.96529676  0.30806637  1  -1.120357  0  -0.300349  -0.403223  0  3.156903  0
O  O90  1  0.78244543  0.91984307  0.86802688  1  -1.171818  0  -0.339974  -0.633896  0  2.257861  0
O  O91  1  0.78920886  0.03656419  0.92980656  1  -1.150848  0  -0.335079  -0.58571  0  2.229688  0
O  O92  1  0.94186811  0.78200547  0.14643202  1  -1.169247  0  -0.340143  -0.633962  0  2.252889  0
O  O93  1  0.05394611  0.78500272  0.07827466  1  -1.148704  0  -0.336322  -0.585796  0  2.237842  0
O  O94  1  0.77817345  0.91349239  0.12493878  1  -1.165886  0  -0.321071  -0.600323  0  2.242869  0
O  O95  1  0.79499534  0.04094884  0.07795297  1  -1.155551  0  -0.34259  -0.595365  0  2.226836  0
O  O96  1  0.95010143  0.79290717  0.84933636  1  -1.166593  0  -0.320914  -0.601292  0  2.242801  0
O  O97  1  0.04931634  0.78177586  0.92692214  1  -1.151776  0  -0.344611  -0.596165  0  2.23268  0
O  O98  1  0.80186223  0.77856732  0.91309256  1  -1.226497  0  -0.70474  -0.962411  0  1.784271  0
O  O99  1  0.89037980  0.88727337  0.77812548  1  -1.259284  0  -0.575927  -0.778251  0  2.01967  0
O  O100  1  0.78956998  0.77133436  0.10675708  1  -1.239402  0  -0.576486  -0.778374  0  2.021984  0
O  O101  1  0.90368171  0.90327612  0.21312818  1  -1.208381  0  -0.705866  -0.964627  0  1.784479  0
O  O102  1  0.87727160  0.94364374  0.00281144  1  -1.222179  0  -0.788322  -1.182756  0  2.107582  0
O  O103  1  0.93320319  0.82551162  0.00343045  1  -1.251071  0  -0.679856  -1.051418  0  2.206548  0
O  O104  1  0.18732277  0.03116658  0.85347819  1  -1.17073  0  -0.340353  -0.633799  0  2.250838  0
O  O105  1  0.18397352  0.91735921  0.91999929  1  -1.145681  0  -0.335441  -0.584976  0  2.238667  0
O  O106  1  0.05192359  0.18596284  0.13389262  1  -1.171318  0  -0.340033  -0.632412  0  2.256578  0
O  O107  1  0.93459452  0.17979350  0.07254215  1  -1.15014  0  -0.336386  -0.585856  0  2.233263  0
O  O108  1  0.17880155  0.01704720  0.15059811  1  -1.166149  0  -0.31885  -0.598697  0  2.239519  0
O  O109  1  0.18890429  0.91945095  0.07138761  1  -1.151366  0  -0.344675  -0.595417  0  2.233964  0
O  O110  1  0.05470940  0.19403491  0.87624837  1  -1.164713  0  -0.320353  -0.601173  0  2.239017  0
O  O111  1  0.92781754  0.17590831  0.92446084  1  -1.155448  0  -0.342675  -0.596824  0  2.22932  0
O  O112  1  0.19659046  0.18294675  0.89607869  1  -1.235987  0  -0.576034  -0.779059  0  2.022438  0
O  O113  1  0.06524749  0.06952218  0.78752345  1  -1.210043  0  -0.706181  -0.964438  0  1.782596  0
O  O114  1  0.19289890  0.16667056  0.08861430  1  -1.231681  0  -0.705757  -0.963318  0  1.785149  0
O  O115  1  0.08478004  0.07557150  0.22249594  1  -1.204816  0  -0.576941  -0.778866  0  2.021095  0
O  O116  1  0.14464129  0.03695694  0.99656093  1  -1.276857  0  -0.679241  -1.051102  0  2.208306  0
O  O117  1  0.02668444  0.09312500  0.99821305  1  -1.222272  0  -0.788097  -1.182574  0  2.104497  0
O  O118  1  0.02699984  0.94005691  0.91840407  1  -1.222461  0  -0.789388  -1.183462  0  2.108217  0
O  O119  1  0.94512829  0.02979055  0.11578450  1  -1.246493  0  -0.679936  -1.051826  0  2.209531  0
O  O120  1  0.93904828  0.02643593  0.88516999  1  -1.254387  0  -0.678202  -1.050703  0  2.203716  0
O  O121  1  0.03114749  0.94217684  0.08146988  1  -1.226373  0  -0.789091  -1.182458  0  2.108134  0
