# generated using pymatgen
data_ZnH23C25NO4
_symmetry_space_group_name_H-M   'P 1'
_cell_length_a   14.11776238
_cell_length_b   15.28890301
_cell_length_c   17.12168023
_cell_angle_alpha   91.19448094
_cell_angle_beta   98.96347460
_cell_angle_gamma   91.17699759
_symmetry_Int_Tables_number   1
_chemical_formula_structural   ZnH23C25NO4
_chemical_formula_sum   'Zn2 H46 C50 N2 O8'
_cell_volume   3648.64694902
_cell_formula_units_Z   2
loop_
 _symmetry_equiv_pos_site_id
 _symmetry_equiv_pos_as_xyz
  1  'x, y, z'
loop_
 _atom_site_type_symbol
 _atom_site_label
 _atom_site_symmetry_multiplicity
 _atom_site_fract_x
 _atom_site_fract_y
 _atom_site_fract_z
 _atom_site_occupancy
 _atom_site_pbe_bader_charge
 _atom_site_pbe_bader_spin_density
 _atom_site_pbe_cm5_charge
 _atom_site_pbe_ddec_charge
 _atom_site_pbe_ddec_spin_density
 _atom_site_pbe_ddec_sum_bond_order
 _atom_site_pbe_magmom
Zn  Zn0  1  0.39990603  0.50333819  0.49832488  1  1.299582  0  0.674873  0.840219  0  2.37241  0
Zn  Zn1  1  0.60825949  0.51015437  0.51263024  1  1.294604  0  0.674543  0.846602  0  2.340095  0
H  H2  1  0.62436171  0.39915970  0.27671027  1  0.080831  0  0.100396  0.10135  0  1.006913  0
H  H3  1  0.36495519  0.50150800  0.74634719  1  0.095331  0  0.100791  0.107016  0  1.003131  0
H  H4  1  0.90157464  0.47405223  0.38303306  1  0.098956  0  0.111777  0.119851  0  0.990389  0
H  H5  1  0.09622073  0.64306015  0.55155249  1  0.095077  0  0.112662  0.121279  0  0.989706  0
H  H6  1  0.72860780  0.48088317  0.40013546  1  0.168167  0  0.12309  0.102562  0  1.016392  0
H  H7  1  0.27038289  0.62429611  0.54255381  1  0.144764  0  0.12692  0.106163  0  0.987379  0
H  H8  1  0.97404626  0.56706033  0.62496184  1  0.072505  0  0.109415  0.120202  0  0.996759  0
H  H9  1  0.04396340  0.38425968  0.44629082  1  0.060191  0  0.111016  0.122585  0  0.993758  0
H  H10  1  0.65261631  0.41912813  0.74506737  1  0.070516  0  0.101636  0.106463  0  1.011704  0
H  H11  1  0.33203566  0.47883980  0.24360721  1  0.063688  0  0.102351  0.105901  0  1.01667  0
H  H12  1  0.60017216  0.39279181  0.01239488  1  0.069495  0  0.097791  0.093087  0  1.033186  0
H  H13  1  0.38064974  0.38337574  0.98723858  1  0.059178  0  0.098192  0.092767  0  1.033943  0
H  H14  1  0.37371720  0.45368390  0.88470734  1  0.037528  0  0.096594  0.094707  0  1.025046  0
H  H15  1  0.60617354  0.35375530  0.13502867  1  0.053973  0  0.097794  0.097523  0  1.006324  0
H  H16  1  0.38236142  0.06872494  0.56462102  1  0.055896  0  0.099696  0.097855  0  1.007858  0
H  H17  1  0.65560464  0.94683885  0.52082774  1  0.070853  0  0.098753  0.096733  0  1.009555  0
H  H18  1  0.39046110  0.23193193  0.56896538  1  0.082228  0  0.10491  0.108531  0  0.99645  0
H  H19  1  0.65015197  0.78397843  0.51487844  1  0.093812  0  0.103944  0.106109  0  1.012471  0
H  H20  1  0.64018327  0.22905315  0.45531383  1  0.097203  0  0.103137  0.107497  0  0.998637  0
H  H21  1  0.34289545  0.78426847  0.47709078  1  0.075987  0  0.101197  0.103046  0  1.00646  0
H  H22  1  0.62938153  0.06602872  0.44497700  1  0.065286  0  0.099939  0.098694  0  1.007052  0
H  H23  1  0.34674380  0.94746946  0.48063959  1  0.067308  0  0.098586  0.096799  0  1.008751  0
H  H24  1  0.65737322  0.64796341  0.73972903  1  0.029838  0  0.087768  0.121583  0  1.003166  0
H  H25  1  0.77297792  0.68640493  0.78503122  1  0.003932  0  0.079503  0.098217  0  1.012787  0
H  H26  1  0.69158804  0.75953183  0.73239207  1  0.032336  0  0.086758  0.112257  0  1.002276  0
H  H27  1  0.81544910  0.71539214  0.64852229  1  0.00679  0  0.080676  0.062497  0  0.984819  0
H  H28  1  0.69938973  0.67676491  0.60545376  1  0.06286  0  0.090579  0.090816  0  1.031423  0
H  H29  1  0.73303008  0.53113668  0.66705496  1  0.089247  0  0.103443  0.123988  0  1.024057  0
H  H30  1  0.85215173  0.56808273  0.70456185  1  0.031841  0  0.092282  0.093222  0  0.98108  0
H  H31  1  0.35694006  0.27613036  0.34471737  1  0.010317  0  0.088269  0.121823  0  1.002656  0
H  H32  1  0.25425362  0.20589095  0.33947255  1  0.031971  0  0.0812  0.103336  0  1.007475  0
H  H33  1  0.27550862  0.26448612  0.25495309  1  -0.001227  0  0.084315  0.110628  0  1.006469  0
H  H34  1  0.14885601  0.34072147  0.31736918  1  -0.017805  0  0.078583  0.058702  0  0.990953  0
H  H35  1  0.25506997  0.40687186  0.32719177  1  0.051597  0  0.08671  0.080328  0  1.024571  0
H  H36  1  0.30511898  0.34421459  0.46412721  1  0.122578  0  0.102795  0.122257  0  1.037439  0
H  H37  1  0.19008952  0.29321128  0.45503965  1  0.026425  0  0.094629  0.097947  0  0.971334  0
H  H38  1  0.30231284  0.58742919  0.08637260  1  0.041058  0  0.088222  0.117886  0  0.996096  0
H  H39  1  0.34122951  0.53282718  0.00537312  1  0.030926  0  0.085129  0.112785  0  1.025609  0
H  H40  1  0.21627563  0.54325832  0.00751315  1  0.0147  0  0.084327  0.109305  0  1.005865  0
H  H41  1  0.26392623  0.39095543  0.04512707  1  0.029901  0  0.08982  0.081427  0  0.988692  0
H  H42  1  0.22945174  0.44722555  0.12633116  1  0.004608  0  0.092505  0.087749  0  0.975381  0
H  H43  1  0.78275017  0.47035029  0.89109683  1  0.028239  0  0.086262  0.113615  0  1.005774  0
H  H44  1  0.73768641  0.45736527  0.98118416  1  0.022389  0  0.084763  0.11072  0  1.0128  0
H  H45  1  0.83102097  0.38946021  0.95838524  1  0.000737  0  0.084054  0.10917  0  1.00621  0
H  H46  1  0.67392722  0.30513026  0.93376768  1  0.024274  0  0.090437  0.08354  0  0.986942  0
H  H47  1  0.72047304  0.31950591  0.84527427  1  0.032895  0  0.094631  0.090635  0  0.970513  0
C  C48  1  0.52080234  0.33763984  0.51495889  1  1.597599  0  0.211795  0.585566  0  4.182572  0
C  C49  1  0.49459709  0.67605383  0.49554756  1  1.512189  0  0.218663  0.599078  0  4.165489  0
C  C50  1  0.43781224  0.10347038  0.53883611  1  0.022752  0  -0.094505  -0.141042  0  3.995276  0
C  C51  1  0.58672188  0.91150409  0.51018048  1  -0.121697  0  -0.093245  -0.137594  0  3.997202  0
C  C52  1  0.44245851  0.19449414  0.54214957  1  -0.117913  0  -0.084553  -0.087887  0  3.991871  0
C  C53  1  0.58413834  0.82059777  0.50755816  1  -0.000915  0  -0.085494  -0.086584  0  3.9941  0
C  C54  1  0.51589180  0.23985650  0.51245331  1  0.015767  0  -0.019784  -0.033997  0  3.978899  0
C  C55  1  0.49629647  0.77410104  0.49617974  1  0.024656  0  -0.02036  -0.037146  0  3.969708  0
C  C56  1  0.58386858  0.19274822  0.47856724  1  -0.068795  0  -0.087065  -0.091394  0  3.997572  0
C  C57  1  0.41100875  0.82075481  0.48687622  1  0.047972  0  -0.086654  -0.088963  0  3.999578  0
C  C58  1  0.57802998  0.10188585  0.47392936  1  -0.103087  0  -0.095023  -0.140261  0  3.99646  0
C  C59  1  0.41359232  0.91184636  0.48938328  1  -0.113536  0  -0.094212  -0.139687  0  3.9957  0
C  C60  1  0.50539892  0.05547723  0.50448584  1  -0.051914  0  -0.004472  0.0745  0  4.00341  0
C  C61  1  0.50153522  0.95894361  0.50124387  1  -0.000303  0  -0.004963  0.073121  0  4.00558  0
C  C62  1  0.88201172  0.49502868  0.43948802  1  -0.002352  0  -0.08565  -0.190981  0  3.971164  0
C  C63  1  0.12063130  0.58272008  0.52708122  1  -0.047769  0  -0.084958  -0.190394  0  3.969677  0
C  C64  1  0.78617501  0.49832659  0.44856467  1  0.433865  0  0.054456  0.110442  0  3.925408  0
C  C65  1  0.21702562  0.57280510  0.52240749  1  0.493605  0  0.056011  0.112987  0  3.931066  0
C  C66  1  0.82395283  0.54799163  0.57987467  1  0.535845  0  0.134765  0.291844  0  3.912365  0
C  C67  1  0.19045324  0.43197927  0.46637395  1  0.51655  0  0.137292  0.294587  0  3.909941  0
C  C68  1  0.92159522  0.54814394  0.57338147  1  -0.060692  0  -0.08386  -0.236605  0  3.908671  0
C  C69  1  0.09196857  0.43946100  0.46731968  1  -0.042846  0  -0.082787  -0.23498  0  3.907524  0
C  C70  1  0.48955018  0.47482381  0.35308380  1  1.579437  0  0.213101  0.589072  0  4.172247  0
C  C71  1  0.50637970  0.49900262  0.65628379  1  1.551331  0  0.210593  0.588087  0  4.184078  0
C  C72  1  0.95238773  0.52019263  0.50343460  1  -0.028092  0  0.013427  0.11727  0  4.012174  0
C  C73  1  0.05559683  0.51464733  0.49845806  1  -0.038434  0  0.011547  0.113548  0  4.013678  0
C  C74  1  0.47964193  0.44432285  0.26851036  1  -0.039638  0  -0.018832  -0.024464  0  3.988904  0
C  C75  1  0.50973663  0.46595158  0.73826965  1  -0.048075  0  -0.021001  -0.029149  0  3.99358  0
C  C76  1  0.55669867  0.40780238  0.23759928  1  -0.031514  0  -0.091845  -0.105148  0  4.025865  0
C  C77  1  0.42962961  0.47227185  0.77705469  1  -0.114536  0  -0.091089  -0.101058  0  4.020342  0
C  C78  1  0.54607196  0.38294723  0.15824107  1  -0.054545  0  -0.095631  -0.135204  0  4.003333  0
C  C79  1  0.43486103  0.44403319  0.85393016  1  0.034658  0  -0.097858  -0.136697  0  4.005309  0
C  C80  1  0.45972868  0.39585021  0.10637010  1  -0.006372  0  -0.008945  0.063232  0  3.996945  0
C  C81  1  0.51908826  0.40771879  0.89492509  1  -0.093689  0  -0.010156  0.059368  0  4.002554  0
C  C82  1  0.37994483  0.42824069  0.13849785  1  0.01323  0  -0.008747  0.069771  0  3.909168  0
C  C83  1  0.59824741  0.39649184  0.85405921  1  0.071853  0  -0.010524  0.066559  0  3.917331  0
C  C84  1  0.39192734  0.45165399  0.21871463  1  -0.055358  0  -0.085703  -0.153512  0  3.963879  0
C  C85  1  0.59204511  0.42654390  0.77697979  1  -0.038369  0  -0.086019  -0.150943  0  3.959575  0
C  C86  1  0.45306108  0.38607204  0.02075611  1  -0.039561  0  -0.094396  -0.131663  0  4.009448  0
C  C87  1  0.52733060  0.39134158  0.97949131  1  -0.08946  0  -0.091628  -0.130027  0  4.001027  0
C  C88  1  0.79190488  0.57512299  0.65606699  1  -0.033952  0  -0.161422  -0.252305  0  3.945173  0
C  C89  1  0.75633740  0.66975525  0.65640201  1  -0.008895  0  -0.167321  -0.08572  0  3.944239  0
C  C90  1  0.71759276  0.69227340  0.73263609  1  -0.060251  0  -0.243728  -0.34599  0  3.969021  0
C  C91  1  0.22999073  0.34971596  0.43633133  1  -0.060785  0  -0.162101  -0.251941  0  3.93568  0
C  C92  1  0.22453388  0.34545141  0.34573221  1  0.023015  0  -0.165297  -0.081245  0  3.956733  0
C  C93  1  0.28061036  0.26858714  0.31962012  1  -0.026043  0  -0.244433  -0.348069  0  3.967647  0
C  C94  1  0.28494593  0.44544915  0.08780474  1  0.006441  0  -0.158543  -0.143902  0  3.996911  0
C  C95  1  0.28597176  0.53212818  0.04405312  1  -0.068419  0  -0.242919  -0.350773  0  3.962925  0
C  C96  1  0.68978147  0.35480108  0.89175305  1  -0.013794  0  -0.160504  -0.142439  0  3.993282  0
C  C97  1  0.76469813  0.42168078  0.93312367  1  -0.041446  0  -0.243468  -0.351346  0  3.97519  0
N  N98  1  0.75720041  0.52309157  0.51703932  1  -1.236874  0  -0.308528  -0.251169  0  3.411091  0
N  N99  1  0.25146505  0.49943740  0.49308156  1  -1.22838  0  -0.311251  -0.252108  0  3.430154  0
O  O100  1  0.44424649  0.37656142  0.52487234  1  -1.178106  0  -0.314793  -0.558154  0  2.372242  0
O  O101  1  0.57583339  0.63946058  0.50736430  1  -1.174919  0  -0.315428  -0.555307  0  2.373106  0
O  O102  1  0.59995065  0.37462836  0.50642172  1  -1.155044  0  -0.319269  -0.543842  0  2.305129  0
O  O103  1  0.41315281  0.63655170  0.48401063  1  -1.161262  0  -0.318684  -0.554415  0  2.331931  0
O  O104  1  0.41223350  0.47709975  0.38306924  1  -1.174671  0  -0.312732  -0.543036  0  2.346049  0
O  O105  1  0.58489283  0.49854031  0.62791233  1  -1.179914  0  -0.315479  -0.556042  0  2.38429  0
O  O106  1  0.57305668  0.49625660  0.38858203  1  -1.178707  0  -0.316381  -0.554979  0  2.327525  0
O  O107  1  0.42612305  0.52396619  0.62006667  1  -1.17323  0  -0.327069  -0.558846  0  2.305356  0
