# generated using pymatgen
data_DyZnH16C26N2ClO11
_symmetry_space_group_name_H-M   'P 1'
_cell_length_a   8.29288255
_cell_length_b   12.76591749
_cell_length_c   13.20980753
_cell_angle_alpha   107.02044707
_cell_angle_beta   104.47583599
_cell_angle_gamma   93.62346358
_symmetry_Int_Tables_number   1
_chemical_formula_structural   DyZnH16C26N2ClO11
_chemical_formula_sum   'Dy2 Zn2 H32 C52 N4 Cl2 O22'
_cell_volume   1280.64578950
_cell_formula_units_Z   2
loop_
 _symmetry_equiv_pos_site_id
 _symmetry_equiv_pos_as_xyz
  1  'x, y, z'
loop_
 _atom_site_type_symbol
 _atom_site_label
 _atom_site_symmetry_multiplicity
 _atom_site_fract_x
 _atom_site_fract_y
 _atom_site_fract_z
 _atom_site_occupancy
 _atom_site_hle17_bader_spin_density
 _atom_site_hle17_ddec_charge
 _atom_site_hle17_ddec_spin_density
 _atom_site_hle17_ddec_sum_bond_order
 _atom_site_hle17_magmom
 _atom_site_hse06_10hf_bader_spin_density
 _atom_site_hse06_10hf_ddec_charge
 _atom_site_hse06_10hf_ddec_spin_density
 _atom_site_hse06_10hf_ddec_sum_bond_order
 _atom_site_hse06_10hf_magmom
 _atom_site_hse06_bader_spin_density
 _atom_site_hse06_ddec_charge
 _atom_site_hse06_ddec_spin_density
 _atom_site_hse06_ddec_sum_bond_order
 _atom_site_hse06_magmom
 _atom_site_pbe_bader_spin_density
 _atom_site_pbe_cm5_charge
 _atom_site_pbe_ddec_charge
 _atom_site_pbe_ddec_spin_density
 _atom_site_pbe_ddec_sum_bond_order
 _atom_site_pbe_magmom
Dy  Dy0  1  0.24634699  0.48939630  0.48893705  1  0  2.28447  0  1.569659  0  0  2.141743  0  2.024327  0  0  2.27039  0  1.837404  0  0  1.518734  2.10574  0  2.053278  0
Dy  Dy1  1  0.75365401  0.51060075  0.51106066  1  0  2.284505  0  1.569726  0  0  2.141842  0  2.024297  0  0  2.270427  0  1.837474  0  0  1.518791  2.105803  0  2.053305  0
Zn  Zn2  1  0.32121910  0.21703037  0.66399797  1  0  1.002536  0  1.909978  0  0  0.822209  0  2.399533  0  0  0.86971  0  2.340862  0  0  0.632141  0.789277  0  2.439391  0
Zn  Zn3  1  0.67878010  0.78296997  0.33600267  1  0  1.002453  0  1.910062  0  0  0.82218  0  2.399614  0  0  0.869673  0  2.340946  0  0  0.632136  0.789249  0  2.439471  0
H  H4  1  0.00269972  0.58268397  0.36292225  1  0  0.442275  0  0.849905  0  0  0.414497  0  0.908323  0  0  0.424817  0  0.893448  0  0  0.305505  0.407104  0  0.919182  0
H  H5  1  0.99730357  0.41731807  0.63707725  1  0  0.442332  0  0.849805  0  0  0.414557  0  0.908218  0  0  0.424877  0  0.89334  0  0  0.305557  0.407162  0  0.919077  0
H  H6  1  0.14006529  0.58520087  0.29675353  1  0  0.404189  0  0.910304  0  0  0.36143  0  0.993481  0  0  0.373773  0  0.976259  0  0  0.286517  0.353025  0  1.005246  0
H  H7  1  0.85993658  0.41480033  0.70324550  1  0  0.404231  0  0.910256  0  0  0.361473  0  0.993424  0  0  0.373815  0  0.976203  0  0  0.286537  0.353068  0  1.00519  0
H  H8  1  0.26488357  0.21631702  0.14779263  1  0  0.105338  0  0.952556  0  0  0.113347  0  1.016338  0  0  0.116542  0  1.014922  0  0  0.103861  0.111113  0  1.017259  0
H  H9  1  0.73512061  0.78368336  0.85220880  1  0  0.105284  0  0.952623  0  0  0.113299  0  1.016404  0  0  0.116493  0  1.01499  0  0  0.10384  0.111066  0  1.017325  0
H  H10  1  0.35836643  0.14092844  0.97617569  1  0  0.090767  0  0.972144  0  0  0.100037  0  1.034109  0  0  0.102893  0  1.03242  0  0  0.094029  0.097977  0  1.035392  0
H  H11  1  0.64164184  0.85907362  0.02382611  1  0  0.090761  0  0.972145  0  0  0.1  0  1.034151  0  0  0.102868  0  1.032449  0  0  0.094007  0.09794  0  1.035432  0
H  H12  1  0.57569837  0.25265201  0.93905146  1  0  0.11191  0  0.956752  0  0  0.121377  0  1.017404  0  0  0.124541  0  1.016484  0  0  0.105698  0.119112  0  1.018153  0
H  H13  1  0.42430723  0.74734920  0.06095119  1  0  0.111878  0  0.956757  0  0  0.121343  0  1.017415  0  0  0.124507  0  1.016495  0  0  0.105674  0.119076  0  1.018164  0
H  H14  1  0.70533143  0.49545878  0.88954304  1  0  0.093099  0  0.964018  0  0  0.098084  0  1.034251  0  0  0.099903  0  1.033759  0  0  0.114436  0.096751  0  1.034671  0
H  H15  1  0.29466403  0.50454155  0.11045549  1  0  0.093148  0  0.964013  0  0  0.098132  0  1.034232  0  0  0.099952  0  1.033738  0  0  0.114471  0.096798  0  1.034653  0
H  H16  1  0.95749808  0.31164139  0.09214640  1  0  0.12775  0  0.926534  0  0  0.138877  0  0.984773  0  0  0.141676  0  0.983378  0  0  0.115501  0.136867  0  0.985746  0
H  H17  1  0.04251072  0.68836315  0.90785544  1  0  0.127808  0  0.926532  0  0  0.138931  0  0.98477  0  0  0.141738  0  0.983352  0  0  0.115505  0.136921  0  0.985744  0
H  H18  1  0.09720088  0.23023702  0.94134871  1  0  0.100129  0  0.98428  0  0  0.109539  0  1.046364  0  0  0.11147  0  1.047365  0  0  0.099373  0.108142  0  1.045807  0
H  H19  1  0.90280810  0.76976836  0.05865189  1  0  0.100107  0  0.984292  0  0  0.109516  0  1.046375  0  0  0.111445  0  1.047379  0  0  0.099373  0.10812  0  1.045817  0
H  H20  1  0.02951155  0.28557664  0.77363962  1  0  0.071636  0  0.964889  0  0  0.078484  0  1.035669  0  0  0.081115  0  1.032865  0  0  0.103764  0.076502  0  1.037774  0
H  H21  1  0.97049351  0.71442788  0.22636012  1  0  0.071657  0  0.964865  0  0  0.0785  0  1.035647  0  0  0.081129  0  1.032845  0  0  0.103782  0.07652  0  1.037747  0
H  H22  1  0.67272061  0.19220097  0.17944330  1  0  0.097791  0  0.983827  0  0  0.105173  0  1.050957  0  0  0.107082  0  1.051615  0  0  0.101264  0.103847  0  1.050406  0
H  H23  1  0.32727023  0.80779519  0.82055557  1  0  0.097769  0  0.983909  0  0  0.105178  0  1.051013  0  0  0.107088  0  1.05167  0  0  0.101245  0.103853  0  1.050462  0
H  H24  1  0.75813853  0.04333445  0.04082150  1  0  0.089753  0  0.939079  0  0  0.104259  0  0.991175  0  0  0.106875  0  0.990196  0  0  0.103902  0.102362  0  0.992002  0
H  H25  1  0.24184786  0.95665835  0.95917875  1  0  0.08978  0  0.938914  0  0  0.104269  0  0.991043  0  0  0.106892  0  0.990065  0  0  0.103905  0.102363  0  0.991878  0
H  H26  1  0.03886974  0.98034262  0.09570804  1  0  0.10856  0  0.941529  0  0  0.12033  0  1.001669  0  0  0.123274  0  1.000312  0  0  0.107804  0.118209  0  1.002724  0
H  H27  1  0.96111950  0.01965186  0.90429086  1  0  0.108581  0  0.941472  0  0  0.120366  0  1.001588  0  0  0.123312  0  1.000228  0  0  0.107823  0.118242  0  1.002649  0
H  H28  1  0.51597749  0.95826508  0.28062414  1  0  0.101274  0  0.964657  0  0  0.106822  0  1.031519  0  0  0.110629  0  1.027908  0  0  0.109726  0.10404  0  1.03413  0
H  H29  1  0.48402454  0.04173692  0.71938044  1  0  0.101262  0  0.964728  0  0  0.106838  0  1.031555  0  0  0.110647  0  1.027939  0  0  0.10973  0.104056  0  1.034165  0
H  H30  1  0.41497666  0.75114209  0.45534707  1  0  0.10091  0  0.936001  0  0  0.108017  0  1.001026  0  0  0.111327  0  0.997785  0  0  0.124965  0.105504  0  1.003681  0
H  H31  1  0.58502713  0.24886239  0.54466078  1  0  0.100866  0  0.936012  0  0  0.108013  0  1.001004  0  0  0.111324  0  0.997761  0  0  0.124952  0.105494  0  1.003665  0
H  H32  1  0.15218130  0.83229528  0.47664315  1  0  0.117273  0  0.949648  0  0  0.126007  0  1.007921  0  0  0.129063  0  1.006981  0  0  0.11018  0.123858  0  1.008574  0
H  H33  1  0.84782249  0.16770922  0.52336168  1  0  0.117351  0  0.949605  0  0  0.126038  0  1.007925  0  0  0.129095  0  1.006983  0  0  0.110201  0.123889  0  1.008579  0
H  H34  1  0.06998455  0.98048885  0.39455999  1  0  0.127986  0  0.957681  0  0  0.13542  0  1.019936  0  0  0.138888  0  1.017239  0  0  0.107427  0.132865  0  1.021952  0
H  H35  1  0.93001412  0.01950901  0.60543909  1  0  0.12798  0  0.957699  0  0  0.135424  0  1.019938  0  0  0.138888  0  1.017251  0  0  0.107411  0.132868  0  1.021955  0
C  C36  1  0.61587342  0.38701528  0.09132442  1  0  0.260888  0  3.757677  0  0  0.244459  0  4.021591  0  0  0.254991  0  4.035697  0  0  0.090745  0.237107  0  4.012006  0
C  C37  1  0.38412986  0.61298675  0.90867735  1  0  0.260801  0  3.757578  0  0  0.244354  0  4.021553  0  0  0.254901  0  4.035661  0  0  0.090773  0.237001  0  4.011967  0
C  C38  1  0.56733372  0.42962573  0.18804730  1  0  -0.158637  0  3.682967  0  0  -0.154003  0  3.927727  0  0  -0.159422  0  3.943433  0  0  -0.009605  -0.150375  0  3.917111  0
C  C39  1  0.43266386  0.57037876  0.81195124  1  0  -0.15839  0  3.682789  0  0  -0.153802  0  3.927609  0  0  -0.159221  0  3.94331  0  0  -0.009549  -0.150174  0  3.916991  0
C  C40  1  0.43805479  0.36747669  0.20617971  1  0  -0.045903  0  3.738327  0  0  -0.031976  0  3.972547  0  0  -0.035307  0  3.989747  0  0  -0.006207  -0.029512  0  3.960247  0
C  C41  1  0.56194940  0.63252369  0.79381946  1  0  -0.045933  0  3.738472  0  0  -0.031991  0  3.972688  0  0  -0.035319  0  3.989882  0  0  -0.006209  -0.029526  0  3.960388  0
C  C42  1  0.36375923  0.26287289  0.13073830  1  0  -0.081232  0  3.722659  0  0  -0.109801  0  3.979738  0  0  -0.109802  0  3.996157  0  0  -0.088194  -0.109626  0  3.968198  0
C  C43  1  0.63624264  0.73712831  0.86925998  1  0  -0.081123  0  3.722918  0  0  -0.109701  0  3.979988  0  0  -0.109703  0  3.996408  0  0  -0.088131  -0.109531  0  3.968454  0
C  C44  1  0.41630599  0.22121724  0.03660606  1  0  -0.052632  0  3.799722  0  0  -0.064424  0  4.053551  0  0  -0.064371  0  4.071623  0  0  -0.091346  -0.064479  0  4.04137  0
C  C45  1  0.58370354  0.77878483  0.96339443  1  0  -0.052696  0  3.799864  0  0  -0.06447  0  4.053695  0  0  -0.064425  0  4.071764  0  0  -0.091339  -0.064524  0  4.041514  0
C  C46  1  0.54017611  0.28376761  0.01516538  1  0  -0.1687  0  3.74643  0  0  -0.194498  0  4.003471  0  0  -0.197688  0  4.021317  0  0  -0.096592  -0.192278  0  3.991515  0
C  C47  1  0.45982771  0.71623691  0.98483415  1  0  -0.168637  0  3.746369  0  0  -0.194416  0  4.00339  0  0  -0.197606  0  4.021239  0  0  -0.096616  -0.192192  0  3.99143  0
C  C48  1  0.65514800  0.54149875  0.26669873  1  0  0.740676  0  3.835727  0  0  0.679196  0  4.143883  0  0  0.716761  0  4.132458  0  0  0.238548  0.6534  0  4.153343  0
C  C49  1  0.34485547  0.45850413  0.73329801  1  0  0.740616  0  3.835801  0  0  0.67911  0  4.143969  0  0  0.71668  0  4.132539  0  0  0.238569  0.653315  0  4.15343  0
C  C50  1  0.37106261  0.41172284  0.30222040  1  0  0.686465  0  3.858481  0  0  0.642337  0  4.142305  0  0  0.676685  0  4.140352  0  0  0.21373  0.61855  0  4.149371  0
C  C51  1  0.62893892  0.58827670  0.69777735  1  0  0.686336  0  3.858607  0  0  0.64222  0  4.142423  0  0  0.676568  0  4.140467  0  0  0.213619  0.618427  0  4.149496  0
C  C52  1  0.79046384  0.43607034  0.90215825  1  0  0.036355  0  3.69066  0  0  -0.005061  0  3.953013  0  0  0.00017  0  3.968385  0  0  0.039985  -0.008406  0  3.94258  0
C  C53  1  0.20953731  0.56393334  0.09784062  1  0  0.036285  0  3.690917  0  0  -0.00516  0  3.953221  0  0  7.3e-05  0  3.968586  0  0  0.039925  -0.008505  0  3.942789  0
C  C54  1  0.81844657  0.40607148  0.99763024  1  0  0.20606  0  3.802969  0  0  0.202704  0  4.064972  0  0  0.206548  0  4.083038  0  0  0.084161  0.199666  0  4.052879  0
C  C55  1  0.18155013  0.59392885  0.00236849  1  0  0.205837  0  3.803421  0  0  0.20262  0  4.06522  0  0  0.206481  0  4.083286  0  0  0.084113  0.199581  0  4.053127  0
C  C56  1  0.93053255  0.33207392  0.01554819  1  0  -0.118626  0  3.713939  0  0  -0.14592  0  3.964978  0  0  -0.145825  0  3.98408  0  0  -0.07406  -0.145553  0  3.951875  0
C  C57  1  0.06947001  0.66793059  0.98445190  1  0  -0.118698  0  3.714144  0  0  -0.146029  0  3.965138  0  0  -0.14593  0  3.984239  0  0  -0.074034  -0.145661  0  3.952036  0
C  C58  1  0.00743915  0.28786583  0.93332058  1  0  -0.108391  0  3.759894  0  0  -0.11906  0  4.01032  0  0  -0.12613  0  4.034857  0  0  -0.087053  -0.114528  0  3.993815  0
C  C59  1  0.99256466  0.71213870  0.06667821  1  0  -0.108338  0  3.759884  0  0  -0.119011  0  4.010315  0  0  -0.12608  0  4.03485  0  0  -0.087088  -0.114481  0  3.993811  0
C  C60  1  0.97109309  0.32013924  0.83896777  1  0  0.119212  0  3.713508  0  0  0.084094  0  3.970387  0  0  0.090104  0  3.988709  0  0  0.039863  0.080283  0  3.957776  0
C  C61  1  0.02891055  0.67986446  0.16103150  1  0  0.119169  0  3.713413  0  0  0.084062  0  3.970289  0  0  0.09007  0  3.988615  0  0  0.039825  0.080251  0  3.957678  0
C  C62  1  0.10564723  0.09624510  0.25949995  1  0  0.248151  0  3.757564  0  0  0.23113  0  4.027445  0  0  0.239305  0  4.042841  0  0  0.087719  0.225324  0  4.016917  0
C  C63  1  0.89434256  0.90374608  0.74049809  1  0  0.247956  0  3.757645  0  0  0.231074  0  4.02751  0  0  0.239259  0  4.0429  0  0  0.087673  0.225261  0  4.016987  0
C  C64  1  0.06248129  0.18246858  0.33633459  1  0  -0.127236  0  3.67427  0  0  -0.122182  0  3.914142  0  0  -0.126037  0  3.930574  0  0  0.001681  -0.119639  0  3.90332  0
C  C65  1  0.93751544  0.81752596  0.66366399  1  0  -0.127136  0  3.674134  0  0  -0.122249  0  3.914158  0  0  -0.126109  0  3.93059  0  0  0.001611  -0.119699  0  3.903335  0
C  C66  1  0.90461260  0.21666530  0.30570690  1  0  -0.048603  0  3.70716  0  0  -0.03366  0  3.939045  0  0  -0.039048  0  3.957558  0  0  -0.002559  -0.029972  0  3.926027  0
C  C67  1  0.09538681  0.78333009  0.69429009  1  0  -0.048637  0  3.707341  0  0  -0.033639  0  3.939204  0  0  -0.039024  0  3.957714  0  0  -0.002523  -0.029963  0  3.926199  0
C  C68  1  0.79474814  0.16490492  0.20044246  1  0  -0.061611  0  3.718069  0  0  -0.090323  0  3.97143  0  0  -0.089663  0  3.990785  0  0  -0.080195  -0.090515  0  3.957916  0
C  C69  1  0.20524520  0.83509125  0.79955606  1  0  -0.061673  0  3.718138  0  0  -0.090421  0  3.971504  0  0  -0.089763  0  3.990859  0  0  -0.080211  -0.09061  0  3.957988  0
C  C70  1  0.84302592  0.08170655  0.12364591  1  0  -0.055957  0  3.784591  0  0  -0.070821  0  4.04548  0  0  -0.072872  0  4.065834  0  0  -0.089656  -0.069505  0  4.031642  0
C  C71  1  0.15696137  0.91828461  0.87635400  1  0  -0.055947  0  3.784128  0  0  -0.070795  0  4.04505  0  0  -0.072857  0  4.065414  0  0  -0.089691  -0.069472  0  4.031202  0
C  C72  1  0.99902112  0.04683998  0.15311554  1  0  -0.146635  0  3.736528  0  0  -0.174348  0  3.99921  0  0  -0.175921  0  4.016878  0  0  -0.090873  -0.173114  0  3.987243  0
C  C73  1  0.00096385  0.95315199  0.84688348  1  0  -0.14664  0  3.736419  0  0  -0.174361  0  3.999059  0  0  -0.175935  0  4.016725  0  0  -0.090875  -0.173122  0  3.987092  0
C  C74  1  0.18066260  0.22934051  0.45143721  1  0  0.708922  0  3.864864  0  0  0.649555  0  4.171028  0  0  0.686195  0  4.162186  0  0  0.228245  0.624285  0  4.1793  0
C  C75  1  0.81933127  0.77065234  0.54856347  1  0  0.708886  0  3.864939  0  0  0.649644  0  4.170944  0  0  0.686284  0  4.162099  0  0  0.228338  0.624374  0  4.179215  0
C  C76  1  0.85833809  0.31394853  0.38162446  1  0  0.699009  0  3.859937  0  0  0.651785  0  4.149598  0  0  0.687149  0  4.146089  0  0  0.220529  0.62761  0  4.156942  0
C  C77  1  0.14166219  0.68605101  0.61837158  1  0  0.69901  0  3.85988  0  0  0.651828  0  4.149452  0  0  0.687188  0  4.145948  0  0  0.22051  0.627655  0  4.156796  0
C  C78  1  0.28831806  0.98090881  0.33216772  1  0  0.231942  0  3.793675  0  0  0.227235  0  4.055528  0  0  0.2322  0  4.073394  0  0  0.090034  0.223232  0  4.043629  0
C  C79  1  0.71168238  0.01909153  0.66783539  1  0  0.231967  0  3.793435  0  0  0.227383  0  4.055233  0  0  0.232353  0  4.073099  0  0  0.090098  0.223378  0  4.043338  0
C  C80  1  0.43193662  0.93220587  0.32328873  1  0  0.006495  0  3.703576  0  0  -0.032594  0  3.952901  0  0  -0.028395  0  3.970118  0  0  0.029786  -0.035158  0  3.941318  0
C  C81  1  0.56806557  0.06779695  0.67671688  1  0  0.006568  0  3.703628  0  0  -0.032528  0  3.952919  0  0  -0.028329  0  3.970134  0  0  0.02982  -0.035094  0  3.941339  0
C  C82  1  0.37522732  0.81641029  0.42141401  1  0  0.118945  0  3.670425  0  0  0.07814  0  3.930716  0  0  0.085723  0  3.946933  0  0  0.041337  0.07301  0  3.919941  0
C  C83  1  0.62478145  0.18359422  0.57859463  1  0  0.119028  0  3.670193  0  0  0.078196  0  3.930502  0  0  0.085778  0  3.946718  0  0  0.041405  0.073084  0  3.919696  0
C  C84  1  0.23058113  0.86220651  0.43311160  1  0  -0.078924  0  3.714832  0  0  -0.088514  0  3.969214  0  0  -0.093873  0  3.988758  0  0  -0.075526  -0.085124  0  3.955929  0
C  C85  1  0.76942481  0.13779634  0.56689385  1  0  -0.078996  0  3.714774  0  0  -0.088551  0  3.969202  0  0  -0.093912  0  3.988745  0  0  -0.075592  -0.085162  0  3.95592  0
C  C86  1  0.18417724  0.94522085  0.38754260  1  0  -0.118797  0  3.700906  0  0  -0.148646  0  3.955412  0  0  -0.14779  0  3.973024  0  0  -0.078023  -0.148889  0  3.943667  0
C  C87  1  0.81582711  0.05478035  0.61245986  1  0  -0.11888  0  3.700865  0  0  -0.148728  0  3.955327  0  0  -0.147878  0  3.972948  0  0  -0.078054  -0.148973  0  3.943586  0
N  N88  1  0.86619274  0.39354718  0.82375190  1  0  -0.290305  0  3.175701  0  0  -0.226359  0  3.425902  0  0  -0.240086  0  3.441819  0  0  -0.304432  -0.216832  0  3.414515  0
N  N89  1  0.13380397  0.60645317  0.17624456  1  0  -0.290163  0  3.175689  0  0  -0.226226  0  3.425882  0  0  -0.23995  0  3.441797  0  0  -0.304363  -0.216698  0  3.414493  0
N  N90  1  0.47304493  0.85108695  0.36644066  1  0  -0.321899  0  3.373127  0  0  -0.233585  0  3.651632  0  0  -0.253153  0  3.668899  0  0  -0.335656  -0.220341  0  3.639662  0
N  N91  1  0.52695868  0.14891671  0.63356617  1  0  -0.32199  0  3.372984  0  0  -0.233724  0  3.651614  0  0  -0.253292  0  3.668878  0  0  -0.335722  -0.220483  0  3.639651  0
Cl  Cl92  1  0.22525155  0.12173352  0.75855664  1  0  -0.57942  0  0.981274  0  0  -0.515385  0  1.266705  0  0  -0.53418  0  1.243383  0  0  -0.287427  -0.501727  0  1.282533  0
Cl  Cl93  1  0.77474906  0.87826766  0.24144522  1  0  -0.579438  0  0.981327  0  0  -0.515394  0  1.266733  0  0  -0.534189  0  1.24341  0  0  -0.287436  -0.501742  0  1.282566  0
O  O94  1  0.73793716  0.45484580  0.07604829  1  0  -0.281131  0  2.341894  0  0  -0.215007  0  2.56487  0  0  -0.231726  0  2.567982  0  0  -0.149931  -0.203068  0  2.562411  0
O  O95  1  0.26206362  0.54515621  0.92395383  1  0  -0.281024  0  2.341949  0  0  -0.214946  0  2.564906  0  0  -0.23171  0  2.568046  0  0  -0.149937  -0.203007  0  2.562448  0
O  O96  1  0.78086899  0.54434717  0.34633680  1  0  -0.740688  0  2.090255  0  0  -0.682689  0  2.339756  0  0  -0.718173  0  2.325471  0  0  -0.372392  -0.66422  0  2.347665  0
O  O97  1  0.21913466  0.45565654  0.65366021  1  0  -0.740698  0  2.090191  0  0  -0.682731  0  2.339738  0  0  -0.718221  0  2.325443  0  0  -0.372481  -0.664264  0  2.347647  0
O  O98  1  0.59911273  0.62503962  0.24519364  1  0  -0.591944  0  2.04543  0  0  -0.522046  0  2.32173  0  0  -0.549674  0  2.303598  0  0  -0.29429  -0.502568  0  2.333251  0
O  O99  1  0.40088591  0.37496403  0.75480711  1  0  -0.59206  0  2.045675  0  0  -0.522006  0  2.321819  0  0  -0.549634  0  2.303686  0  0  -0.294258  -0.502525  0  2.333339  0
O  O100  1  0.46645626  0.48344420  0.39348497  1  0  -0.825592  0  2.07176  0  0  -0.764949  0  2.323393  0  0  -0.810658  0  2.31268  0  0  -0.433631  -0.746191  0  2.329766  0
O  O101  1  0.53354366  0.51655367  0.60651432  1  0  -0.825564  0  2.071777  0  0  -0.764925  0  2.323411  0  0  -0.810638  0  2.312699  0  0  -0.433589  -0.746166  0  2.329786  0
O  O102  1  0.21994925  0.38152133  0.29455250  1  0  -0.644847  0  1.991067  0  0  -0.601127  0  2.225108  0  0  -0.632272  0  2.217215  0  0  -0.341395  -0.584673  0  2.229411  0
O  O103  1  0.78005244  0.61847905  0.70544552  1  0  -0.644766  0  1.991077  0  0  -0.601055  0  2.225121  0  0  -0.632194  0  2.217227  0  0  -0.341334  -0.584595  0  2.229425  0
O  O104  1  0.26484678  0.06437621  0.28585680  1  0  -0.290853  0  2.331615  0  0  -0.224255  0  2.553754  0  0  -0.240999  0  2.55578  0  0  -0.154449  -0.212059  0  2.551866  0
O  O105  1  0.73514497  0.93561830  0.71414024  1  0  -0.290651  0  2.331603  0  0  -0.224267  0  2.553845  0  0  -0.241025  0  2.555883  0  0  -0.154363  -0.212067  0  2.551957  0
O  O106  1  0.14907125  0.18190550  0.51856226  1  0  -0.602708  0  2.05104  0  0  -0.527039  0  2.320261  0  0  -0.555802  0  2.304082  0  0  -0.296339  -0.506643  0  2.33041  0
O  O107  1  0.85091906  0.81808816  0.48143808  1  0  -0.602716  0  2.051192  0  0  -0.527089  0  2.320388  0  0  -0.555829  0  2.304175  0  0  -0.296374  -0.506682  0  2.330505  0
O  O108  1  0.30124379  0.30611713  0.47588012  1  0  -0.699899  0  2.033548  0  0  -0.654252  0  2.290564  0  0  -0.68875  0  2.276805  0  0  -0.372424  -0.636672  0  2.298179  0
O  O109  1  0.69875189  0.69387244  0.52411612  1  0  -0.699874  0  2.033582  0  0  -0.654277  0  2.290583  0  0  -0.688768  0  2.276822  0  0  -0.372488  -0.636693  0  2.298197  0
O  O110  1  0.97666653  0.39464478  0.44284953  1  0  -0.814867  0  2.173626  0  0  -0.753066  0  2.433179  0  0  -0.797569  0  2.421887  0  0  -0.432441  -0.734036  0  2.439628  0
O  O111  1  0.02332983  0.60535390  0.55714792  1  0  -0.814871  0  2.1735  0  0  -0.753101  0  2.433056  0  0  -0.797599  0  2.421768  0  0  -0.432449  -0.734062  0  2.439493  0
O  O112  1  0.70834991  0.32046147  0.38499894  1  0  -0.658813  0  1.94185  0  0  -0.615954  0  2.175729  0  0  -0.648574  0  2.165496  0  0  -0.351618  -0.59924  0  2.180902  0
O  O113  1  0.29164947  0.67953972  0.61499818  1  0  -0.658779  0  1.941749  0  0  -0.615918  0  2.175589  0  0  -0.648552  0  2.165375  0  0  -0.351568  -0.599212  0  2.180761  0
O  O114  1  0.12506113  0.58831993  0.37198522  1  0  -0.925847  0  1.920269  0  0  -0.874746  0  2.129768  0  0  -0.90602  0  2.093055  0  0  -0.654863  -0.859817  0  2.151055  0
O  O115  1  0.87494182  0.41168045  0.62801300  1  0  -0.925958  0  1.920145  0  0  -0.874872  0  2.12965  0  0  -0.906136  0  2.092938  0  0  -0.65496  -0.859936  0  2.150946  0
