# generated using pymatgen
data_Ag2H24Pt3C12N6O19
_symmetry_space_group_name_H-M   'P 1'
_cell_length_a   8.15049407
_cell_length_b   18.26194746
_cell_length_c   21.80560245
_cell_angle_alpha   90.00003177
_cell_angle_beta   89.99996842
_cell_angle_gamma   92.48931709
_symmetry_Int_Tables_number   1
_chemical_formula_structural   Ag2H24Pt3C12N6O19
_chemical_formula_sum   'Ag8 H96 Pt12 C48 N24 O76'
_cell_volume   3242.56800920
_cell_formula_units_Z   4
loop_
 _symmetry_equiv_pos_site_id
 _symmetry_equiv_pos_as_xyz
  1  'x, y, z'
loop_
 _atom_site_type_symbol
 _atom_site_label
 _atom_site_symmetry_multiplicity
 _atom_site_fract_x
 _atom_site_fract_y
 _atom_site_fract_z
 _atom_site_occupancy
 _atom_site_pbe_bader_charge
 _atom_site_pbe_bader_spin_density
 _atom_site_pbe_cm5_charge
 _atom_site_pbe_ddec_charge
 _atom_site_pbe_ddec_spin_density
 _atom_site_pbe_ddec_sum_bond_order
 _atom_site_pbe_magmom
Ag  Ag0  1  0.87754005  0.63593366  0.69420743  1  0.743167  0  0.439136  0.543317  0  1.463191  0
Ag  Ag1  1  0.62246221  0.86406760  0.19420848  1  0.743145  0  0.439138  0.543298  0  1.463237  0
Ag  Ag2  1  0.12246113  0.36406695  0.30579167  1  0.743127  0  0.439133  0.543294  0  1.4632  0
Ag  Ag3  1  0.37753898  0.13593300  0.80579153  1  0.743141  0  0.439134  0.543305  0  1.463219  0
Ag  Ag4  1  0.48256336  0.75880635  0.37478959  1  0.664155  0  0.430742  0.436085  0  1.660471  0
Ag  Ag5  1  0.01743685  0.74119343  0.87478958  1  0.66416  0  0.43075  0.436104  0  1.660471  0
Ag  Ag6  1  0.51743650  0.24119315  0.62521043  1  0.664158  0  0.43075  0.436082  0  1.660475  0
Ag  Ag7  1  0.98256296  0.25880553  0.12521044  1  0.664155  0  0.430758  0.436114  0  1.660434  0
H  H8  1  0.75231062  0.44267080  0.73613653  1  0.070622  0  0.090528  0.058602  0  1.029228  0
H  H9  1  0.74769011  0.05733014  0.23613512  1  0.070589  0  0.090538  0.058612  0  1.029261  0
H  H10  1  0.24769061  0.55733035  0.26386440  1  0.070593  0  0.090524  0.058593  0  1.029275  0
H  H11  1  0.25230975  0.94266936  0.76386444  1  0.070598  0  0.090535  0.058614  0  1.029286  0
H  H12  1  0.93733286  0.40304387  0.76092142  1  0.064964  0  0.098158  0.072364  0  0.984288  0
H  H13  1  0.56266778  0.09695654  0.26092144  1  0.064885  0  0.09814  0.072355  0  0.984297  0
H  H14  1  0.06266955  0.59695673  0.23907860  1  0.064879  0  0.098146  0.072351  0  0.984295  0
H  H15  1  0.43733213  0.90304351  0.73907812  1  0.06488  0  0.098148  0.072344  0  0.984334  0
H  H16  1  0.99462825  0.51317898  0.82913051  1  0.055992  0  0.098791  0.074921  0  0.981479  0
H  H17  1  0.50537377  0.98682181  0.32912981  1  0.056028  0  0.098783  0.074901  0  0.981484  0
H  H18  1  0.00537416  0.48682162  0.17086996  1  0.056033  0  0.098786  0.074902  0  0.981485  0
H  H19  1  0.49462491  0.01317824  0.67086974  1  0.056038  0  0.098801  0.074933  0  0.981466  0
H  H20  1  0.81921102  0.45562423  0.84919784  1  0.045209  0  0.097541  0.066348  0  0.985821  0
H  H21  1  0.68079195  0.04437624  0.34919690  1  0.045206  0  0.097534  0.066313  0  0.985881  0
H  H22  1  0.18079262  0.54437637  0.15080264  1  0.045198  0  0.09753  0.066295  0  0.985902  0
H  H23  1  0.31920673  0.95562381  0.65080312  1  0.045201  0  0.097553  0.066343  0  0.985891  0
H  H24  1  0.87792662  0.60693223  0.88554999  1  0.034692  0  0.090109  0.045556  0  1.026609  0
H  H25  1  0.62207292  0.89306915  0.38554923  1  0.034703  0  0.090083  0.045545  0  1.026619  0
H  H26  1  0.12207462  0.39306892  0.11445048  1  0.034713  0  0.090087  0.045577  0  1.02659  0
H  H27  1  0.37792576  0.10693091  0.61445033  1  0.034712  0  0.090094  0.045555  0  1.026598  0
H  H28  1  0.68904465  0.55646560  0.90050120  1  0.040736  0  0.100834  0.069722  0  0.955948  0
H  H29  1  0.81095727  0.94353525  0.40049996  1  0.040742  0  0.100844  0.069729  0  0.955917  0
H  H30  1  0.31095776  0.44353501  0.09950019  1  0.040744  0  0.100823  0.069727  0  0.955913  0
H  H31  1  0.18904259  0.05646426  0.59949960  1  0.040726  0  0.10083  0.069707  0  0.955906  0
H  H32  1  0.54436245  0.64963500  0.83423662  1  0.089192  0  0.086757  0.047509  0  1.072699  0
H  H33  1  0.95563706  0.85036525  0.33423668  1  0.089203  0  0.08676  0.047525  0  1.072658  0
H  H34  1  0.45563741  0.35036451  0.16576386  1  0.089174  0  0.086753  0.047492  0  1.07265  0
H  H35  1  0.04436285  0.14963480  0.66576334  1  0.089187  0  0.086749  0.047506  0  1.072685  0
H  H36  1  0.63374548  0.68525475  0.90371005  1  0.059364  0  0.104999  0.089631  0  0.963216  0
H  H37  1  0.86625270  0.81474554  0.40370919  1  0.059391  0  0.104995  0.089635  0  0.963226  0
H  H38  1  0.36625325  0.31474585  0.09629043  1  0.059387  0  0.104992  0.089621  0  0.963198  0
H  H39  1  0.13374471  0.18525396  0.59629036  1  0.059378  0  0.105012  0.089651  0  0.963199  0
H  H40  1  0.64523075  0.80778711  0.84591713  1  0.060876  0  0.102592  0.081301  0  0.987254  0
H  H41  1  0.85476879  0.69221369  0.34591714  1  0.060965  0  0.102602  0.081316  0  0.987249  0
H  H42  1  0.35476798  0.19221349  0.15408243  1  0.061151  0  0.102615  0.081355  0  0.987186  0
H  H43  1  0.14523117  0.30778691  0.65408242  1  0.060952  0  0.102605  0.081327  0  0.987203  0
H  H44  1  0.56243859  0.75922583  0.78100308  1  0.095698  0  0.086627  0.056417  0  1.073482  0
H  H45  1  0.93756089  0.74077329  0.28100309  1  0.095711  0  0.086627  0.056413  0  1.073486  0
H  H46  1  0.43756127  0.24077368  0.21899648  1  0.095717  0  0.086629  0.056438  0  1.073495  0
H  H47  1  0.06243774  0.25922621  0.71899647  1  0.095711  0  0.086624  0.056416  0  1.073484  0
H  H48  1  0.73590788  0.87669705  0.75781088  1  0.062489  0  0.100192  0.076326  0  0.981008  0
H  H49  1  0.76409296  0.62330315  0.25781087  1  0.062482  0  0.100189  0.076326  0  0.981014  0
H  H50  1  0.26409202  0.12330300  0.24218914  1  0.062486  0  0.100192  0.076321  0  0.981  0
H  H51  1  0.23590818  0.37669690  0.74218868  1  0.062519  0  0.100196  0.07633  0  0.981013  0
H  H52  1  0.90901242  0.83168656  0.78689420  1  0.066554  0  0.091656  0.052308  0  1.046728  0
H  H53  1  0.59098716  0.66831367  0.28689471  1  0.066553  0  0.091667  0.052303  0  1.046724  0
H  H54  1  0.09098749  0.16831350  0.21310535  1  0.066555  0  0.091654  0.052297  0  1.046718  0
H  H55  1  0.40901275  0.33168639  0.71310530  1  0.066553  0  0.091673  0.052301  0  1.046757  0
H  H56  1  0.05384048  0.82829295  0.69594565  1  0.051677  0  0.099125  0.076039  0  0.965902  0
H  H57  1  0.44615753  0.67170672  0.19594608  1  0.051613  0  0.099139  0.076069  0  0.965931  0
H  H58  1  0.94615820  0.17170711  0.30405437  1  0.051654  0  0.099149  0.076082  0  0.96591  0
H  H59  1  0.55384110  0.32829278  0.80405393  1  0.051636  0  0.099138  0.076057  0  0.96594  0
H  H60  1  0.90045016  0.88761980  0.66881722  1  0.090749  0  0.100017  0.0742  0  0.985499  0
H  H61  1  0.59954708  0.61237979  0.16881770  1  0.090744  0  0.100002  0.074203  0  0.985475  0
H  H62  1  0.09954725  0.11237970  0.33118234  1  0.090751  0  0.100003  0.074194  0  0.985482  0
H  H63  1  0.40045155  0.38761971  0.83118277  1  0.090754  0  0.099998  0.074199  0  0.985459  0
H  H64  1  0.82654555  0.79642773  0.58552898  1  0.056402  0  0.087294  0.046416  0  1.044436  0
H  H65  1  0.67345303  0.70357182  0.08552949  1  0.056433  0  0.087317  0.046457  0  1.044383  0
H  H66  1  0.17345308  0.20357178  0.41447058  1  0.05642  0  0.087308  0.046428  0  1.044415  0
H  H67  1  0.32654682  0.29642769  0.91447053  1  0.056419  0  0.087308  0.046437  0  1.0444  0
H  H68  1  0.03210169  0.83494121  0.58118340  1  0.041629  0  0.101228  0.072699  0  0.957912  0
H  H69  1  0.46789530  0.66505893  0.08118383  1  0.041632  0  0.101213  0.07267  0  0.957921  0
H  H70  1  0.96789577  0.16505884  0.41881616  1  0.04164  0  0.101227  0.072678  0  0.957906  0
H  H71  1  0.53210338  0.33494112  0.91881619  1  0.041645  0  0.101232  0.072687  0  0.957906  0
H  H72  1  0.89586809  0.68928996  0.53142909  1  0.072878  0  0.090013  0.062665  0  1.038996  0
H  H73  1  0.60413179  0.81070955  0.03143012  1  0.072904  0  0.089991  0.062633  0  1.039051  0
H  H74  1  0.10413182  0.31071009  0.46857001  1  0.072897  0  0.089995  0.062657  0  1.039039  0
H  H75  1  0.39586806  0.18928996  0.96857035  1  0.072899  0  0.089986  0.062615  0  1.039059  0
H  H76  1  0.09794959  0.73043166  0.52172296  1  0.101138  0  0.101135  0.083904  0  0.980581  0
H  H77  1  0.40204871  0.76956844  0.02172345  1  0.101207  0  0.101124  0.083876  0  0.980612  0
H  H78  1  0.90204919  0.26956949  0.47827660  1  0.101216  0  0.101123  0.083861  0  0.980643  0
H  H79  1  0.59795115  0.23043106  0.97827610  1  0.101224  0  0.101106  0.08385  0  0.980647  0
H  H80  1  0.22258011  0.62951102  0.57622589  1  0.048378  0  0.073746  0.010585  0  1.104061  0
H  H81  1  0.27742061  0.87048967  0.07622691  1  0.048381  0  0.073738  0.010552  0  1.104066  0
H  H82  1  0.77742112  0.37049014  0.42377321  1  0.04839  0  0.073746  0.010569  0  1.104062  0
H  H83  1  0.72257924  0.12950983  0.92377310  1  0.048383  0  0.073743  0.01057  0  1.104035  0
H  H84  1  0.10811659  0.59774285  0.51102018  1  0.074546  0  0.103541  0.086923  0  0.963109  0
H  H85  1  0.39188295  0.90225725  0.01102073  1  0.074569  0  0.103547  0.086955  0  0.963081  0
H  H86  1  0.89188336  0.40225775  0.48897938  1  0.074565  0  0.103563  0.086948  0  0.963084  0
H  H87  1  0.60811818  0.09774281  0.98897974  1  0.074565  0  0.103555  0.086938  0  0.963082  0
H  H88  1  0.10387734  0.47794378  0.56667144  1  0.094781  0  0.100935  0.081742  0  0.978074  0
H  H89  1  0.39612198  0.02205711  0.06667136  1  0.094636  0  0.100939  0.081748  0  0.978058  0
H  H90  1  0.89612144  0.52205737  0.43332857  1  0.094615  0  0.100964  0.081768  0  0.978082  0
H  H91  1  0.60387788  0.97794239  0.93332865  1  0.094613  0  0.100942  0.081746  0  0.978055  0
H  H92  1  0.20644590  0.52396646  0.62839457  1  0.05971  0  0.072213  0.013203  0  1.106187  0
H  H93  1  0.29355481  0.97603482  0.12839518  1  0.059726  0  0.072229  0.013242  0  1.106136  0
H  H94  1  0.79355534  0.47603470  0.37160499  1  0.059726  0  0.072209  0.013223  0  1.106117  0
H  H95  1  0.70644392  0.02396579  0.87160484  1  0.05973  0  0.07223  0.013242  0  1.106125  0
H  H96  1  0.04827839  0.41083542  0.66047210  1  0.056422  0  0.09899  0.072094  0  0.997245  0
H  H97  1  0.45172448  0.08916554  0.16047250  1  0.056413  0  0.098985  0.072082  0  0.997256  0
H  H98  1  0.95172407  0.58916573  0.33952792  1  0.056405  0  0.099013  0.072115  0  0.997314  0
H  H99  1  0.54827665  0.91083452  0.83952798  1  0.056411  0  0.098979  0.072078  0  0.997263  0
H  H100  1  0.86181063  0.44747871  0.63443147  1  0.094629  0  0.086905  0.050722  0  1.067928  0
H  H101  1  0.63819142  0.05252162  0.13443099  1  0.094614  0  0.086906  0.050737  0  1.067939  0
H  H102  1  0.13819056  0.55252189  0.36556855  1  0.094619  0  0.086913  0.050743  0  1.067932  0
H  H103  1  0.36180966  0.94747788  0.86556856  1  0.094619  0  0.086913  0.050751  0  1.067927  0
Pt  Pt104  1  0.54570381  0.51836190  0.63828419  1  0.809456  0  0.722423  0.314021  0  3.728665  0
Pt  Pt105  1  0.95429715  0.98163768  0.13828386  1  0.809463  0  0.722442  0.314  0  3.728672  0
Pt  Pt106  1  0.45429610  0.48163816  0.36171628  1  0.809475  0  0.722474  0.314071  0  3.728623  0
Pt  Pt107  1  0.04570398  0.01836237  0.86171570  1  0.809454  0  0.72245  0.314046  0  3.728618  0
Pt  Pt108  1  0.55108245  0.68630850  0.58596511  1  0.828298  0  0.729874  0.3316  0  3.716529  0
Pt  Pt109  1  0.94891735  0.81369105  0.08596561  1  0.828289  0  0.729865  0.331541  0  3.716488  0
Pt  Pt110  1  0.44891730  0.31368991  0.41403445  1  0.828279  0  0.729832  0.331476  0  3.716477  0
Pt  Pt111  1  0.05108255  0.18630901  0.91403486  1  0.828303  0  0.729826  0.331522  0  3.716462  0
Pt  Pt112  1  0.39673790  0.64824093  0.72052870  1  0.830582  0  0.731253  0.338254  0  3.708238  0
Pt  Pt113  1  0.10326375  0.85175876  0.22052883  1  0.830561  0  0.73123  0.338229  0  3.70825  0
Pt  Pt114  1  0.60326441  0.35175858  0.27947178  1  0.830579  0  0.73122  0.338204  0  3.708203  0
Pt  Pt115  1  0.89673738  0.14824130  0.77947210  1  0.830576  0  0.731211  0.338237  0  3.708248  0
C  C116  1  0.87707169  0.45546447  0.75388884  1  0.393393  0  -0.077781  -0.000983  0  3.925817  0
C  C117  1  0.62293024  0.04453649  0.25388791  1  0.394033  0  -0.077806  -0.001045  0  3.925818  0
C  C118  1  0.12292955  0.54453668  0.24611164  1  0.393152  0  -0.077801  -0.001029  0  3.925814  0
C  C119  1  0.37707089  0.95546357  0.74611165  1  0.394031  0  -0.077835  -0.00109  0  3.925957  0
C  C120  1  0.86974519  0.49461372  0.81450905  1  0.45582  0  -0.075605  -0.002636  0  3.933302  0
C  C121  1  0.63025665  0.00538727  0.31450810  1  0.455289  0  -0.07563  -0.002672  0  3.933325  0
C  C122  1  0.13025727  0.50538743  0.18549188  1  0.455135  0  -0.075625  -0.00263  0  3.933321  0
C  C123  1  0.36974203  0.99461278  0.68549146  1  0.455129  0  -0.075655  -0.002703  0  3.933367  0
C  C124  1  0.75395158  0.59261865  0.86677776  1  0.453675  0  -0.07314  0.007512  0  3.951844  0
C  C125  1  0.74604911  0.90738162  0.36677743  1  0.453671  0  -0.073103  0.007491  0  3.951769  0
C  C126  1  0.24604955  0.40738140  0.13322271  1  0.453669  0  -0.073096  0.007408  0  3.951837  0
C  C127  1  0.25395075  0.09261789  0.63322258  1  0.453688  0  -0.07309  0.007537  0  3.951694  0
C  C128  1  0.66082198  0.66132733  0.85855238  1  0.404441  0  -0.08098  -0.013513  0  3.913583  0
C  C129  1  0.83917503  0.83867293  0.35855200  1  0.404438  0  -0.080987  -0.013532  0  3.913552  0
C  C130  1  0.33917547  0.33867272  0.14144810  1  0.404452  0  -0.080937  -0.013376  0  3.913403  0
C  C131  1  0.16082242  0.16132712  0.64144802  1  0.404441  0  -0.080984  -0.01354  0  3.913516  0
C  C132  1  0.67680639  0.77600213  0.80487125  1  0.37951  0  -0.084791  -0.021664  0  3.928223  0
C  C133  1  0.82319315  0.72399810  0.30487082  1  0.379418  0  -0.084777  -0.021651  0  3.928242  0
C  C134  1  0.32319351  0.22399793  0.19512877  1  0.379226  0  -0.084843  -0.021842  0  3.928312  0
C  C135  1  0.17680670  0.27600140  0.69512874  1  0.379459  0  -0.08477  -0.021679  0  3.928189  0
C  C136  1  0.78841368  0.82245288  0.76439449  1  0.414662  0  -0.081106  -0.003304  0  3.93989  0
C  C137  1  0.71158710  0.67754678  0.26439452  1  0.414659  0  -0.081145  -0.003324  0  3.939897  0
C  C138  1  0.21158623  0.17754718  0.23560553  1  0.414653  0  -0.081093  -0.003237  0  3.939902  0
C  C139  1  0.28841398  0.32245272  0.73560550  1  0.414606  0  -0.081137  -0.003287  0  3.939979  0
C  C140  1  0.93423456  0.82978449  0.67205307  1  0.393279  0  -0.076422  -0.001311  0  3.926368  0
C  C141  1  0.56576272  0.67021566  0.17205359  1  0.393337  0  -0.076455  -0.001388  0  3.926444  0
C  C142  1  0.06576412  0.17021557  0.32794649  1  0.393316  0  -0.076434  -0.001347  0  3.926399  0
C  C143  1  0.43423595  0.32978440  0.82794689  1  0.393304  0  -0.07642  -0.001324  0  3.926366  0
C  C144  1  0.94753069  0.79880857  0.60848316  1  0.428357  0  -0.07751  -0.001823  0  3.957945  0
C  C145  1  0.55246663  0.70119099  0.10848369  1  0.42833  0  -0.077503  -0.001785  0  3.957833  0
C  C146  1  0.05246799  0.20119149  0.39151686  1  0.428311  0  -0.077505  -0.001761  0  3.957874  0
C  C147  1  0.44753200  0.29880851  0.89151678  1  0.428324  0  -0.077517  -0.00179  0  3.9579  0
C  C148  1  0.01960100  0.69495463  0.55170195  1  0.369636  0  -0.083328  -0.01544  0  3.923152  0
C  C149  1  0.48039731  0.80504604  0.05170291  1  0.369521  0  -0.083302  -0.015365  0  3.923152  0
C  C150  1  0.98039773  0.30504597  0.44829715  1  0.369519  0  -0.083332  -0.015415  0  3.923208  0
C  C151  1  0.51960259  0.19495402  0.94829711  1  0.369514  0  -0.083283  -0.015304  0  3.923089  0
C  C152  1  0.09713970  0.62215206  0.55705101  1  0.414297  0  -0.078885  0.017561  0  3.911516  0
C  C153  1  0.40285978  0.87784807  0.05705201  1  0.414349  0  -0.078862  0.017588  0  3.911478  0
C  C154  1  0.90286026  0.37784854  0.44294809  1  0.414351  0  -0.078897  0.01756  0  3.911512  0
C  C155  1  0.59714008  0.12215144  0.94294800  1  0.414349  0  -0.078895  0.017553  0  3.911478  0
C  C156  1  0.08384970  0.50908725  0.60918117  1  0.385006  0  -0.083494  0.004222  0  3.933878  0
C  C157  1  0.41615221  0.99091346  0.10918084  1  0.385135  0  -0.083527  0.004159  0  3.933889  0
C  C158  1  0.91615154  0.49091390  0.39081885  1  0.385148  0  -0.083529  0.004122  0  3.933896  0
C  C159  1  0.58384769  0.00908659  0.89081917  1  0.385156  0  -0.083518  0.004177  0  3.93384  0
C  C160  1  0.98434683  0.46217151  0.65319361  1  0.380865  0  -0.084419  -0.008372  0  3.92825  0
C  C161  1  0.51565401  0.03782938  0.15319315  1  0.380842  0  -0.084414  -0.008383  0  3.928208  0
C  C162  1  0.01565440  0.53782964  0.34680687  1  0.380831  0  -0.084431  -0.008376  0  3.928274  0
C  C163  1  0.48434589  0.96217067  0.84680686  1  0.380839  0  -0.084411  -0.008386  0  3.928211  0
N  N164  1  0.39462226  0.54908967  0.75562012  1  0.437775  0  -0.103785  0.295462  0  4.058143  0
N  N165  1  0.10537694  0.95091058  0.25561984  1  0.437731  0  -0.103816  0.295418  0  4.058269  0
N  N166  1  0.60537765  0.45091038  0.24437990  1  0.437717  0  -0.103773  0.295498  0  4.058184  0
N  N167  1  0.89462297  0.04908947  0.74438018  1  0.43778  0  -0.103826  0.295408  0  4.058223  0
N  N168  1  0.45900427  0.76640129  0.63264305  1  0.438667  0  -0.105633  0.295007  0  4.063798  0
N  N169  1  0.04099628  0.73359834  0.13264314  1  0.438659  0  -0.105544  0.295189  0  4.06361  0
N  N170  1  0.54099671  0.23359713  0.36735743  1  0.438693  0  -0.105477  0.29523  0  4.063759  0
N  N171  1  0.95900373  0.26640281  0.86735733  1  0.438685  0  -0.105525  0.295163  0  4.063698  0
N  N172  1  0.63763654  0.53740843  0.55673313  1  0.454779  0  -0.108938  0.288158  0  4.086627  0
N  N173  1  0.86236325  0.96259055  0.05673418  1  0.454715  0  -0.108985  0.288038  0  4.08685  0
N  N174  1  0.36236321  0.46258998  0.44326643  1  0.454735  0  -0.108996  0.288072  0  4.086859  0
N  N175  1  0.13763660  0.03740895  0.94326630  1  0.454758  0  -0.10893  0.288136  0  4.086781  0
N  N176  1  0.50859439  0.41126447  0.62119590  1  0.470225  0  -0.102648  0.326264  0  4.171733  0
N  N177  1  0.99140512  0.08873476  0.12119584  1  0.470195  0  -0.102651  0.326256  0  4.171851  0
N  N178  1  0.49140541  0.58873449  0.37880411  1  0.470171  0  -0.102599  0.326333  0  4.172052  0
N  N179  1  0.00859474  0.91126475  0.87880418  1  0.470227  0  -0.102597  0.326386  0  4.171799  0
N  N180  1  0.22608290  0.67767724  0.77978964  1  0.463857  0  -0.107498  0.320291  0  4.148846  0
N  N181  1  0.27391622  0.82232248  0.27979019  1  0.463829  0  -0.107514  0.320271  0  4.148875  0
N  N182  1  0.77391824  0.32232281  0.22020992  1  0.463848  0  -0.10749  0.320324  0  4.148837  0
N  N183  1  0.72608364  0.17767703  0.72020983  1  0.46379  0  -0.107526  0.320294  0  4.148798  0
N  N184  1  0.52904554  0.73978184  0.50673732  1  0.459349  0  -0.10604  0.327075  0  4.178639  0
N  N185  1  0.97095315  0.76021765  0.00673779  1  0.459349  0  -0.106015  0.327082  0  4.178722  0
N  N186  1  0.47095427  0.26021711  0.49326315  1  0.459356  0  -0.106072  0.327015  0  4.178687  0
N  N187  1  0.02904680  0.23978295  0.99326314  1  0.459358  0  -0.106047  0.327092  0  4.178569  0
O  O188  1  0.58436456  0.62563924  0.66306821  1  -0.864758  0  -0.511265  -0.555809  0  2.674838  0
O  O189  1  0.91563513  0.87436036  0.16306875  1  -0.864715  0  -0.51124  -0.55572  0  2.674691  0
O  O190  1  0.41563524  0.37435972  0.33693180  1  -0.864736  0  -0.511247  -0.555721  0  2.674672  0
O  O191  1  0.08436477  0.12563970  0.83693172  1  -0.864732  0  -0.511272  -0.55582  0  2.674831  0
O  O192  1  0.45549928  0.49530021  0.72335546  1  -0.524877  0  -0.190249  -0.264388  0  2.361355  0
O  O193  1  0.04450218  0.00469968  0.22335544  1  -0.524877  0  -0.190218  -0.26435  0  2.361341  0
O  O194  1  0.54450181  0.50469930  0.27664456  1  -0.524864  0  -0.190238  -0.264394  0  2.361358  0
O  O195  1  0.95549773  0.99530037  0.77664458  1  -0.524877  0  -0.190221  -0.264366  0  2.361355  0
O  O196  1  0.34184148  0.53231802  0.80636763  1  -0.440746  0  -0.106818  -0.237085  0  2.039666  0
O  O197  1  0.15815887  0.96768227  0.30636735  1  -0.440736  0  -0.106794  -0.237049  0  2.039769  0
O  O198  1  0.65815837  0.46768149  0.19363331  1  -0.44071  0  -0.106792  -0.237065  0  2.039745  0
O  O199  1  0.84184109  0.03231833  0.69363221  1  -0.440742  0  -0.106776  -0.237032  0  2.039717  0
O  O200  1  0.39603897  0.75250107  0.68776650  1  -0.526984  0  -0.195716  -0.269403  0  2.340828  0
O  O201  1  0.10396155  0.74749914  0.18776613  1  -0.526986  0  -0.19576  -0.269514  0  2.34077  0
O  O202  1  0.60396211  0.24749844  0.31223443  1  -0.526987  0  -0.195756  -0.269492  0  2.340859  0
O  O203  1  0.89603836  0.25250091  0.81223435  1  -0.526982  0  -0.195751  -0.269493  0  2.340825  0
O  O204  1  0.45344778  0.82978871  0.61524066  1  -0.443139  0  -0.10802  -0.236324  0  2.030303  0
O  O205  1  0.04655284  0.67021146  0.11524072  1  -0.44314  0  -0.108003  -0.236322  0  2.030299  0
O  O206  1  0.54655340  0.17021189  0.38475890  1  -0.443158  0  -0.108058  -0.236372  0  2.030388  0
O  O207  1  0.95344707  0.32978860  0.88475976  1  -0.443176  0  -0.108027  -0.236339  0  2.030356  0
O  O208  1  0.64742357  0.60533721  0.53554364  1  -0.515205  0  -0.188095  -0.250501  0  2.371625  0
O  O209  1  0.85257263  0.89466230  0.03554420  1  -0.515226  0  -0.188091  -0.250462  0  2.371629  0
O  O210  1  0.35257384  0.39466229  0.46445592  1  -0.515221  0  -0.188058  -0.25042  0  2.371668  0
O  O211  1  0.14742605  0.10533776  0.96445582  1  -0.515228  0  -0.188096  -0.25048  0  2.371623  0
O  O212  1  0.68949936  0.49072595  0.52265196  1  -0.455221  0  -0.100763  -0.234637  0  2.116686  0
O  O213  1  0.81050151  0.00927322  0.02265235  1  -0.455162  0  -0.100755  -0.2346  0  2.116825  0
O  O214  1  0.31050044  0.50927301  0.47734805  1  -0.455176  0  -0.100777  -0.23466  0  2.116847  0
O  O215  1  0.18949962  0.99072684  0.97734812  1  -0.455182  0  -0.100784  -0.234655  0  2.116841  0
O  O216  1  0.62190607  0.36943228  0.63465206  1  -0.512822  0  -0.161374  -0.322578  0  2.168358  0
O  O217  1  0.87809347  0.13056751  0.13465249  1  -0.512826  0  -0.161379  -0.322576  0  2.168313  0
O  O218  1  0.37809378  0.63056723  0.36534796  1  -0.512807  0  -0.161407  -0.322618  0  2.168285  0
O  O219  1  0.12190644  0.86943255  0.86534753  1  -0.512823  0  -0.161404  -0.322654  0  2.168383  0
O  O220  1  0.37376614  0.38653368  0.60236497  1  -0.489259  0  -0.13863  -0.29828  0  2.095898  0
O  O221  1  0.12623175  0.11346559  0.10236499  1  -0.48922  0  -0.138634  -0.298259  0  2.096003  0
O  O222  1  0.62623126  0.61346582  0.39763459  1  -0.489206  0  -0.13869  -0.298333  0  2.096209  0
O  O223  1  0.87376688  0.88653392  0.89763549  1  -0.489249  0  -0.138668  -0.298332  0  2.095954  0
O  O224  1  0.08114289  0.65201401  0.77903617  1  -0.520343  0  -0.151319  -0.329914  0  2.297348  0
O  O225  1  0.41885750  0.84798626  0.27903624  1  -0.520343  0  -0.151337  -0.329933  0  2.297337  0
O  O226  1  0.91885824  0.34798605  0.22096338  1  -0.520368  0  -0.151323  -0.329947  0  2.297366  0
O  O227  1  0.58114251  0.15201489  0.72096286  1  -0.520334  0  -0.151313  -0.329923  0  2.297348  0
O  O228  1  0.26972035  0.72361124  0.82006829  1  -0.4996  0  -0.15268  -0.290253  0  2.140123  0
O  O229  1  0.23027994  0.77638851  0.32006836  1  -0.49953  0  -0.152662  -0.290235  0  2.14015  0
O  O230  1  0.73027951  0.27638827  0.17993173  1  -0.499527  0  -0.1527  -0.290277  0  2.140094  0
O  O231  1  0.76972360  0.22361100  0.67993120  1  -0.499543  0  -0.15265  -0.290236  0  2.14012  0
O  O232  1  0.65528081  0.76123137  0.47845651  1  -0.493842  0  -0.153569  -0.320142  0  2.103468  0
O  O233  1  0.84471951  0.73876678  0.97845688  1  -0.49386  0  -0.153624  -0.320173  0  2.103562  0
O  O234  1  0.34472027  0.23876814  0.52154351  1  -0.493843  0  -0.153541  -0.320077  0  2.103504  0
O  O235  1  0.15528029  0.26123218  0.02154359  1  -0.49385  0  -0.153559  -0.320123  0  2.103484  0
O  O236  1  0.38981738  0.74538072  0.48318513  1  -0.510063  0  -0.161153  -0.32507  0  2.124864  0
O  O237  1  0.11018144  0.75461913  0.98318511  1  -0.510032  0  -0.161147  -0.325065  0  2.124838  0
O  O238  1  0.61018242  0.25461823  0.51681488  1  -0.510069  0  -0.161155  -0.325057  0  2.124866  0
O  O239  1  0.88981728  0.24538148  0.01681491  1  -0.510065  0  -0.161151  -0.325086  0  2.124818  0
O  O240  1  0.96910335  0.49980938  0.71055044  1  -1.042914  0  -0.236126  -0.236811  0  2.559088  0
O  O241  1  0.53089859  0.00019100  0.21054996  1  -1.0429  0  -0.236103  -0.236747  0  2.558933  0
O  O242  1  0.03089665  0.50019177  0.28944958  1  -1.042004  0  -0.236093  -0.236737  0  2.558937  0
O  O243  1  0.46910250  0.99980851  0.78944959  1  -1.042892  0  -0.236086  -0.236725  0  2.558965  0
O  O244  1  0.76769972  0.55611021  0.80942277  1  -1.045713  0  -0.233698  -0.22334  0  2.515401  0
O  O245  1  0.73230105  0.94389003  0.30942154  1  -1.04577  0  -0.233658  -0.223209  0  2.515337  0
O  O246  1  0.23230142  0.44388985  0.19057862  1  -1.045613  0  -0.233676  -0.223255  0  2.515386  0
O  O247  1  0.26769886  0.05611003  0.69057847  1  -1.045621  0  -0.233665  -0.223232  0  2.515355  0
O  O248  1  0.76115828  0.71211756  0.82299409  1  -1.038179  0  -0.22969  -0.206437  0  2.631749  0
O  O249  1  0.73884129  0.78788323  0.32299325  1  -1.038216  0  -0.229703  -0.20645  0  2.631746  0
O  O250  1  0.23884045  0.28788304  0.17700639  1  -1.038208  0  -0.229709  -0.206431  0  2.631725  0
O  O251  1  0.26115861  0.21211683  0.67700631  1  -1.038202  0  -0.229723  -0.206443  0  2.631783  0
O  O252  1  0.81178789  0.78831384  0.70619843  1  -1.047168  0  -0.235275  -0.231394  0  2.510063  0
O  O253  1  0.68821174  0.71168579  0.20619848  1  -1.047146  0  -0.235266  -0.231386  0  2.510055  0
O  O254  1  0.18821201  0.21168622  0.29380113  1  -1.047159  0  -0.23529  -0.231424  0  2.510146  0
O  O255  1  0.31178811  0.28831372  0.79380108  1  -1.047159  0  -0.235306  -0.231442  0  2.510119  0
O  O256  1  0.01051567  0.72707044  0.61169755  1  -1.040491  0  -0.235986  -0.237401  0  2.571097  0
O  O257  1  0.48948132  0.77293027  0.11169849  1  -1.040522  0  -0.235995  -0.237466  0  2.571061  0
O  O258  1  0.98948306  0.27293016  0.38830201  1  -1.040509  0  -0.235996  -0.237461  0  2.571164  0
O  O259  1  0.51051741  0.22707033  0.88830153  1  -1.040507  0  -0.236004  -0.237491  0  2.571151  0
O  O260  1  0.99979091  0.57456143  0.59610463  1  -1.051259  0  -0.234942  -0.228227  0  2.552573  0
O  O261  1  0.50021026  0.92543976  0.09610482  1  -1.051252  0  -0.234915  -0.228199  0  2.55255  0
O  O262  1  0.00021037  0.42544027  0.40389538  1  -1.051252  0  -0.234914  -0.228179  0  2.552562  0
O  O263  1  0.49978965  0.07456029  0.90389565  1  -1.051259  0  -0.234893  -0.228173  0  2.552573  0
